MODEL 1
REMARK VINA RESULT:     -12.6      0.000      0.000
REMARK  Name = 52934180
REMARK  2 active torsions:
REMARK  status: ('A' for Active; 'I' for Inactive)
REMARK    1  A    between atoms: N_4  and  C_30
REMARK    2  A    between atoms: C_17  and  C_20
REMARK                            x       y       z     vdW  Elec       q    Type
REMARK                         _______ _______ _______ _____ _____    ______ ____
ROOT
ATOM      1  O   UNL     1      30.349  -6.897 -25.360  0.00  0.00    -0.290 OA
ATOM      2  O   UNL     1      31.483 -12.238 -19.692  0.00  0.00    -0.270 OA
ATOM      3  N   UNL     1      31.578 -10.742 -21.490  0.00  0.00    -0.276 N 
ATOM      4  N   UNL     1      32.857  -5.276 -25.340  0.00  0.00    -0.211 N 
ATOM      5  N   UNL     1      34.017  -4.695 -24.979  0.00  0.00    -0.177 NA
ATOM      6  C   UNL     1      31.987  -7.910 -22.200  0.00  0.00    +0.015 C 
ATOM      7  C   UNL     1      31.523  -8.381 -20.796  0.00  0.00    +0.022 C 
ATOM      8  C   UNL     1      32.767  -9.078 -22.870  0.00  0.00    +0.022 C 
ATOM      9  C   UNL     1      32.937  -6.680 -22.007  0.00  0.00    +0.030 C 
ATOM     10  C   UNL     1      30.746  -7.493 -23.058  0.00  0.00    +0.071 C 
ATOM     11  C   UNL     1      30.780  -9.716 -20.824  0.00  0.00    +0.094 C 
ATOM     12  C   UNL     1      32.007 -10.405 -22.852  0.00  0.00    +0.094 C 
ATOM     13  C   UNL     1      33.169  -5.972 -23.290  0.00  0.00    +0.016 C 
ATOM     14  C   UNL     1      31.094  -6.817 -24.387  0.00  0.00    +0.188 C 
ATOM     15  C   UNL     1      32.307  -6.048 -24.359  0.00  0.00    +0.101 C 
ATOM     16  C   UNL     1      34.202  -5.124 -23.726  0.00  0.00    +0.115 C 
ATOM     17  C   UNL     1      31.839 -11.947 -20.833  0.00  0.00    +0.249 C 
ENDROOT
BRANCH  17  20
ATOM     18  N   UNL     1      34.550 -16.118 -21.206  0.00  0.00    -0.318 N 
ATOM     19  N   UNL     1      34.811 -15.956 -23.407  0.00  0.00    -0.318 N 
ATOM     20  C   UNL     1      32.607 -12.968 -21.551  0.00  0.00    +0.055 C 
ATOM     21  C   UNL     1      33.165 -14.033 -20.835  0.00  0.00    +0.020 C 
ATOM     22  C   UNL     1      32.768 -12.862 -22.934  0.00  0.00    +0.006 C 
ATOM     23  C   UNL     1      33.885 -14.975 -21.571  0.00  0.00    +0.059 C 
ATOM     24  C   UNL     1      33.495 -13.820 -23.653  0.00  0.00    +0.016 C 
ATOM     25  C   UNL     1      34.063 -14.896 -22.949  0.00  0.00    +0.059 C 
ATOM     26  C   UNL     1      35.085 -16.668 -22.337  0.00  0.00    +0.144 C 
ATOM     27  C   UNL     1      35.869 -17.917 -22.285  0.00  0.00    +0.044 C 
ATOM     28  H   UNL     1      34.627 -16.478 -20.293  0.00  0.00    +0.148 HD
ATOM     29  H   UNL     1      35.082 -16.141 -24.336  0.00  0.00    +0.148 HD
ENDBRANCH  17  20
BRANCH   4  30
ATOM     30  C   UNL     1      32.336  -5.037 -26.665  0.00  0.00    +0.096 C 
ATOM     31  C   UNL     1      32.298  -3.543 -26.994  0.00  0.00    +0.024 C 
ATOM     32  C   UNL     1      33.122  -5.810 -27.726  0.00  0.00    +0.024 C 
ENDBRANCH   4  30
TORSDOF 2
ENDMDL
MODEL 2
REMARK VINA RESULT:     -10.0      1.469      2.063
REMARK  Name = 52934180
REMARK  2 active torsions:
REMARK  status: ('A' for Active; 'I' for Inactive)
REMARK    1  A    between atoms: N_4  and  C_30
REMARK    2  A    between atoms: C_17  and  C_20
REMARK                            x       y       z     vdW  Elec       q    Type
REMARK                         _______ _______ _______ _____ _____    ______ ____
ROOT
ATOM      1  O   UNL     1      31.443  -6.524 -26.934  0.00  0.00    -0.290 OA
ATOM      2  O   UNL     1      30.615 -10.471 -20.176  0.00  0.00    -0.270 OA
ATOM      3  N   UNL     1      31.292  -9.446 -22.169  0.00  0.00    -0.276 N 
ATOM      4  N   UNL     1      34.074  -5.141 -26.647  0.00  0.00    -0.211 N 
ATOM      5  N   UNL     1      35.193  -4.583 -26.146  0.00  0.00    -0.177 NA
ATOM      6  C   UNL     1      32.208  -6.897 -23.333  0.00  0.00    +0.015 C 
ATOM      7  C   UNL     1      31.393  -6.991 -22.015  0.00  0.00    +0.022 C 
ATOM      8  C   UNL     1      32.958  -8.246 -23.536  0.00  0.00    +0.022 C 
ATOM      9  C   UNL     1      33.244  -5.733 -23.177  0.00  0.00    +0.030 C 
ATOM     10  C   UNL     1      31.248  -6.596 -24.532  0.00  0.00    +0.071 C 
ATOM     11  C   UNL     1      30.508  -8.234 -21.944  0.00  0.00    +0.094 C 
ATOM     12  C   UNL     1      32.047  -9.469 -23.426  0.00  0.00    +0.094 C 
ATOM     13  C   UNL     1      33.839  -5.362 -24.484  0.00  0.00    +0.016 C 
ATOM     14  C   UNL     1      31.962  -6.277 -25.849  0.00  0.00    +0.188 C 
ATOM     15  C   UNL     1      33.229  -5.618 -25.690  0.00  0.00    +0.101 C 
ATOM     16  C   UNL     1      35.044  -4.721 -24.825  0.00  0.00    +0.115 C 
ATOM     17  C   UNL     1      31.245 -10.481 -21.232  0.00  0.00    +0.249 C 
ENDROOT
BRANCH  17  20
ATOM     18  N   UNL     1      32.879 -14.215 -24.109  0.00  0.00    -0.318 N 
ATOM     19  N   UNL     1      34.115 -15.136 -22.508  0.00  0.00    -0.318 N 
ATOM     20  C   UNL     1      32.013 -11.698 -21.515  0.00  0.00    +0.055 C 
ATOM     21  C   UNL     1      31.954 -12.261 -22.795  0.00  0.00    +0.020 C 
ATOM     22  C   UNL     1      32.789 -12.273 -20.506  0.00  0.00    +0.006 C 
ATOM     23  C   UNL     1      32.705 -13.417 -23.007  0.00  0.00    +0.059 C 
ATOM     24  C   UNL     1      33.535 -13.434 -20.742  0.00  0.00    +0.016 C 
ATOM     25  C   UNL     1      33.487 -14.013 -22.022  0.00  0.00    +0.059 C 
ATOM     26  C   UNL     1      33.729 -15.228 -23.761  0.00  0.00    +0.144 C 
ATOM     27  C   UNL     1      34.122 -16.266 -24.732  0.00  0.00    +0.044 C 
ATOM     28  H   UNL     1      32.466 -14.082 -24.992  0.00  0.00    +0.148 HD
ATOM     29  H   UNL     1      34.723 -15.741 -22.023  0.00  0.00    +0.148 HD
ENDBRANCH  17  20
BRANCH   4  30
ATOM     30  C   UNL     1      33.890  -5.177 -28.079  0.00  0.00    +0.096 C 
ATOM     31  C   UNL     1      33.088  -3.971 -28.574  0.00  0.00    +0.024 C 
ATOM     32  C   UNL     1      35.226  -5.283 -28.816  0.00  0.00    +0.024 C 
ENDBRANCH   4  30
TORSDOF 2
ENDMDL
