MODEL 1
REMARK VINA RESULT:     -10.8      0.000      0.000
REMARK  Name = 448138
REMARK  6 active torsions:
REMARK  status: ('A' for Active; 'I' for Inactive)
REMARK    1  A    between atoms: C_1  and  O_15
REMARK    2  A    between atoms: C_4  and  C_11
REMARK    3  A    between atoms: O_15  and  C_16
REMARK    4  A    between atoms: C_16  and  C_17
REMARK    5  A    between atoms: C_17  and  C_18
REMARK    6  A    between atoms: C_18  and  C_21
REMARK                            x       y       z     vdW  Elec       q    Type
REMARK                         _______ _______ _______ _____ _____    ______ ____
ROOT
ATOM      1  C   UNL     1      34.718 -22.119 -17.308  0.00  0.00    +0.130 C 
ATOM      2  C   UNL     1      35.920 -21.490 -17.631  0.00  0.00    +0.012 C 
ATOM      3  C   UNL     1      33.591 -21.923 -18.110  0.00  0.00    +0.012 C 
ATOM      4  C   UNL     1      34.873 -20.472 -19.556  0.00  0.00    +0.029 C 
ATOM      5  C   UNL     1      35.998 -20.667 -18.755  0.00  0.00    +0.001 C 
ATOM      6  C   UNL     1      33.669 -21.100 -19.233  0.00  0.00    +0.001 C 
ATOM      7  C   UNL     1      37.136 -21.688 -16.786  0.00  0.00    +0.034 C 
ATOM      8  C   UNL     1      32.296 -22.587 -17.780  0.00  0.00    +0.034 C 
ENDROOT
BRANCH   4  11
ATOM      9  O   UNL     1      35.715 -18.173 -22.185  0.00  0.00    -0.447 OA
ATOM     10  N   UNL     1      33.974 -19.517 -21.659  0.00  0.00    -0.372 NA
ATOM     11  C   UNL     1      34.953 -19.624 -20.711  0.00  0.00    +0.156 C 
ATOM     12  C   UNL     1      36.012 -18.814 -21.021  0.00  0.00    +0.266 C 
ATOM     13  C   UNL     1      34.479 -18.647 -22.504  0.00  0.00    +0.253 C 
ATOM     14  C   UNL     1      33.887 -18.119 -23.742  0.00  0.00    +0.110 C 
ENDBRANCH   4  11
BRANCH   1  15
ATOM     15  O   UNL     1      34.640 -22.923 -16.210  0.00  0.00    -0.476 OA
BRANCH  15  16
ATOM     16  C   UNL     1      34.459 -22.281 -14.950  0.00  0.00    +0.206 C 
BRANCH  16  17
ATOM     17  C   UNL     1      34.969 -23.201 -13.850  0.00  0.00    +0.055 C 
BRANCH  17  18
ATOM     18  C   UNL     1      35.081 -24.648 -14.333  0.00  0.00    +0.071 C 
BRANCH  18  21
ATOM     19  O   UNL     1      36.660 -26.457 -14.425  0.00  0.00    -0.358 OA
ATOM     20  N   UNL     1      38.020 -26.734 -14.389  0.00  0.00    -0.082 NA
ATOM     21  C   UNL     1      36.509 -25.130 -14.314  0.00  0.00    +0.154 C 
ATOM     22  C   UNL     1      37.683 -24.488 -14.206  0.00  0.00    +0.054 C 
ATOM     23  C   UNL     1      38.612 -25.543 -14.258  0.00  0.00    +0.101 C 
ATOM     24  C   UNL     1      40.079 -25.456 -14.187  0.00  0.00    +0.056 C 
ENDBRANCH  18  21
ENDBRANCH  17  18
ENDBRANCH  16  17
ENDBRANCH  15  16
ENDBRANCH   1  15
TORSDOF 6
ENDMDL
MODEL 2
REMARK VINA RESULT:     -10.7      0.109      1.757
REMARK  Name = 448138
REMARK  6 active torsions:
REMARK  status: ('A' for Active; 'I' for Inactive)
REMARK    1  A    between atoms: C_1  and  O_15
REMARK    2  A    between atoms: C_4  and  C_11
REMARK    3  A    between atoms: O_15  and  C_16
REMARK    4  A    between atoms: C_16  and  C_17
REMARK    5  A    between atoms: C_17  and  C_18
REMARK    6  A    between atoms: C_18  and  C_21
REMARK                            x       y       z     vdW  Elec       q    Type
REMARK                         _______ _______ _______ _____ _____    ______ ____
ROOT
ATOM      1  C   UNL     1      34.760 -22.149 -17.239  0.00  0.00    +0.130 C 
ATOM      2  C   UNL     1      33.638 -21.991 -18.052  0.00  0.00    +0.012 C 
ATOM      3  C   UNL     1      35.950 -21.493 -17.559  0.00  0.00    +0.012 C 
ATOM      4  C   UNL     1      34.893 -20.521 -19.502  0.00  0.00    +0.029 C 
ATOM      5  C   UNL     1      33.704 -21.177 -19.183  0.00  0.00    +0.001 C 
ATOM      6  C   UNL     1      36.016 -20.680 -18.690  0.00  0.00    +0.001 C 
ATOM      7  C   UNL     1      32.355 -22.684 -17.725  0.00  0.00    +0.034 C 
ATOM      8  C   UNL     1      37.162 -21.650 -16.702  0.00  0.00    +0.034 C 
ENDROOT
BRANCH   4  11
ATOM      9  O   UNL     1      35.715 -18.268 -22.177  0.00  0.00    -0.447 OA
ATOM     10  N   UNL     1      33.957 -19.563 -21.588  0.00  0.00    -0.372 NA
ATOM     11  C   UNL     1      34.960 -19.685 -20.668  0.00  0.00    +0.156 C 
ATOM     12  C   UNL     1      36.030 -18.906 -21.016  0.00  0.00    +0.266 C 
ATOM     13  C   UNL     1      34.459 -18.713 -22.455  0.00  0.00    +0.253 C 
ATOM     14  C   UNL     1      33.845 -18.182 -23.681  0.00  0.00    +0.110 C 
ENDBRANCH   4  11
BRANCH   1  15
ATOM     15  O   UNL     1      34.697 -22.944 -16.134  0.00  0.00    -0.476 OA
BRANCH  15  16
ATOM     16  C   UNL     1      34.391 -22.307 -14.895  0.00  0.00    +0.206 C 
BRANCH  16  17
ATOM     17  C   UNL     1      34.998 -23.119 -13.760  0.00  0.00    +0.055 C 
BRANCH  17  18
ATOM     18  C   UNL     1      35.062 -24.607 -14.105  0.00  0.00    +0.071 C 
BRANCH  18  21
ATOM     19  O   UNL     1      36.619 -26.432 -14.246  0.00  0.00    -0.358 OA
ATOM     20  N   UNL     1      37.977 -26.720 -14.295  0.00  0.00    -0.082 NA
ATOM     21  C   UNL     1      36.485 -25.101 -14.168  0.00  0.00    +0.154 C 
ATOM     22  C   UNL     1      37.668 -24.467 -14.161  0.00  0.00    +0.054 C 
ATOM     23  C   UNL     1      38.584 -25.531 -14.243  0.00  0.00    +0.101 C 
ATOM     24  C   UNL     1      40.054 -25.454 -14.275  0.00  0.00    +0.056 C 
ENDBRANCH  18  21
ENDBRANCH  17  18
ENDBRANCH  16  17
ENDBRANCH  15  16
ENDBRANCH   1  15
TORSDOF 6
ENDMDL
MODEL 3
REMARK VINA RESULT:     -10.7      5.528      9.473
REMARK  Name = 448138
REMARK  6 active torsions:
REMARK  status: ('A' for Active; 'I' for Inactive)
REMARK    1  A    between atoms: C_1  and  O_15
REMARK    2  A    between atoms: C_4  and  C_11
REMARK    3  A    between atoms: O_15  and  C_16
REMARK    4  A    between atoms: C_16  and  C_17
REMARK    5  A    between atoms: C_17  and  C_18
REMARK    6  A    between atoms: C_18  and  C_21
REMARK                            x       y       z     vdW  Elec       q    Type
REMARK                         _______ _______ _______ _____ _____    ______ ____
ROOT
ATOM      1  C   UNL     1      33.771 -14.800 -22.873  0.00  0.00    +0.130 C 
ATOM      2  C   UNL     1      33.284 -14.045 -23.939  0.00  0.00    +0.012 C 
ATOM      3  C   UNL     1      33.594 -14.351 -21.563  0.00  0.00    +0.012 C 
ATOM      4  C   UNL     1      32.441 -12.395 -22.389  0.00  0.00    +0.029 C 
ATOM      5  C   UNL     1      32.619 -12.843 -23.698  0.00  0.00    +0.001 C 
ATOM      6  C   UNL     1      32.929 -13.149 -21.321  0.00  0.00    +0.001 C 
ATOM      7  C   UNL     1      33.464 -14.509 -25.348  0.00  0.00    +0.034 C 
ATOM      8  C   UNL     1      34.108 -15.145 -20.408  0.00  0.00    +0.034 C 
ENDROOT
BRANCH   4  11
ATOM      9  O   UNL     1      30.448  -9.646 -21.213  0.00  0.00    -0.447 OA
ATOM     10  N   UNL     1      31.898 -10.033 -22.905  0.00  0.00    -0.372 NA
ATOM     11  C   UNL     1      31.758 -11.157 -22.141  0.00  0.00    +0.156 C 
ATOM     12  C   UNL     1      30.883 -10.933 -21.113  0.00  0.00    +0.266 C 
ATOM     13  C   UNL     1      31.102  -9.174 -22.310  0.00  0.00    +0.253 C 
ATOM     14  C   UNL     1      30.824  -7.776 -22.672  0.00  0.00    +0.110 C 
ENDBRANCH   4  11
BRANCH   1  15
ATOM     15  O   UNL     1      34.422 -15.975 -23.108  0.00  0.00    -0.476 OA
BRANCH  15  16
ATOM     16  C   UNL     1      33.657 -17.034 -23.678  0.00  0.00    +0.206 C 
BRANCH  16  17
ATOM     17  C   UNL     1      34.178 -18.361 -23.143  0.00  0.00    +0.055 C 
BRANCH  17  18
ATOM     18  C   UNL     1      35.138 -18.157 -21.971  0.00  0.00    +0.071 C 
BRANCH  18  21
ATOM     19  O   UNL     1      36.039 -19.471 -20.173  0.00  0.00    -0.358 OA
ATOM     20  N   UNL     1      35.704 -20.458 -19.254  0.00  0.00    -0.082 NA
ATOM     21  C   UNL     1      34.952 -19.214 -20.912  0.00  0.00    +0.154 C 
ATOM     22  C   UNL     1      33.899 -19.964 -20.553  0.00  0.00    +0.054 C 
ATOM     23  C   UNL     1      34.420 -20.736 -19.500  0.00  0.00    +0.101 C 
ATOM     24  C   UNL     1      33.724 -21.756 -18.698  0.00  0.00    +0.056 C 
ENDBRANCH  18  21
ENDBRANCH  17  18
ENDBRANCH  16  17
ENDBRANCH  15  16
ENDBRANCH   1  15
TORSDOF 6
ENDMDL
MODEL 4
REMARK VINA RESULT:     -10.6      7.181     10.965
REMARK  Name = 448138
REMARK  6 active torsions:
REMARK  status: ('A' for Active; 'I' for Inactive)
REMARK    1  A    between atoms: C_1  and  O_15
REMARK    2  A    between atoms: C_4  and  C_11
REMARK    3  A    between atoms: O_15  and  C_16
REMARK    4  A    between atoms: C_16  and  C_17
REMARK    5  A    between atoms: C_17  and  C_18
REMARK    6  A    between atoms: C_18  and  C_21
REMARK                            x       y       z     vdW  Elec       q    Type
REMARK                         _______ _______ _______ _____ _____    ______ ____
ROOT
ATOM      1  C   UNL     1      32.493 -12.931 -22.571  0.00  0.00    +0.130 C 
ATOM      2  C   UNL     1      32.053 -12.539 -21.307  0.00  0.00    +0.012 C 
ATOM      3  C   UNL     1      32.594 -11.989 -23.596  0.00  0.00    +0.012 C 
ATOM      4  C   UNL     1      31.817 -10.267 -22.091  0.00  0.00    +0.029 C 
ATOM      5  C   UNL     1      31.716 -11.207 -21.066  0.00  0.00    +0.001 C 
ATOM      6  C   UNL     1      32.256 -10.658 -23.356  0.00  0.00    +0.001 C 
ATOM      7  C   UNL     1      31.940 -13.533 -20.196  0.00  0.00    +0.034 C 
ATOM      8  C   UNL     1      33.062 -12.389 -24.956  0.00  0.00    +0.034 C 
ENDROOT
BRANCH   4  11
ATOM      9  O   UNL     1      31.121  -6.988 -20.796  0.00  0.00    -0.447 OA
ATOM     10  N   UNL     1      31.029  -8.027 -22.802  0.00  0.00    -0.372 NA
ATOM     11  C   UNL     1      31.467  -8.896 -21.843  0.00  0.00    +0.156 C 
ATOM     12  C   UNL     1      31.528  -8.277 -20.624  0.00  0.00    +0.266 C 
ATOM     13  C   UNL     1      30.840  -6.917 -22.126  0.00  0.00    +0.253 C 
ATOM     14  C   UNL     1      30.366  -5.613 -22.614  0.00  0.00    +0.110 C 
ENDBRANCH   4  11
BRANCH   1  15
ATOM     15  O   UNL     1      32.823 -14.233 -22.807  0.00  0.00    -0.476 OA
BRANCH  15  16
ATOM     16  C   UNL     1      34.209 -14.564 -22.774  0.00  0.00    +0.206 C 
BRANCH  16  17
ATOM     17  C   UNL     1      34.419 -15.706 -21.789  0.00  0.00    +0.055 C 
BRANCH  17  18
ATOM     18  C   UNL     1      34.679 -17.030 -22.509  0.00  0.00    +0.071 C 
BRANCH  18  21
ATOM     19  O   UNL     1      36.185 -17.873 -20.837  0.00  0.00    -0.358 OA
ATOM     20  N   UNL     1      36.407 -18.962 -20.004  0.00  0.00    -0.082 NA
ATOM     21  C   UNL     1      35.072 -18.118 -21.543  0.00  0.00    +0.154 C 
ATOM     22  C   UNL     1      34.525 -19.306 -21.240  0.00  0.00    +0.054 C 
ATOM     23  C   UNL     1      35.403 -19.805 -20.262  0.00  0.00    +0.101 C 
ATOM     24  C   UNL     1      35.319 -21.087 -19.545  0.00  0.00    +0.056 C 
ENDBRANCH  18  21
ENDBRANCH  17  18
ENDBRANCH  16  17
ENDBRANCH  15  16
ENDBRANCH   1  15
TORSDOF 6
ENDMDL
MODEL 5
REMARK VINA RESULT:     -10.6      7.123     10.943
REMARK  Name = 448138
REMARK  6 active torsions:
REMARK  status: ('A' for Active; 'I' for Inactive)
REMARK    1  A    between atoms: C_1  and  O_15
REMARK    2  A    between atoms: C_4  and  C_11
REMARK    3  A    between atoms: O_15  and  C_16
REMARK    4  A    between atoms: C_16  and  C_17
REMARK    5  A    between atoms: C_17  and  C_18
REMARK    6  A    between atoms: C_18  and  C_21
REMARK                            x       y       z     vdW  Elec       q    Type
REMARK                         _______ _______ _______ _____ _____    ______ ____
ROOT
ATOM      1  C   UNL     1      32.497 -12.992 -22.616  0.00  0.00    +0.130 C 
ATOM      2  C   UNL     1      32.594 -12.078 -23.665  0.00  0.00    +0.012 C 
ATOM      3  C   UNL     1      32.071 -12.564 -21.357  0.00  0.00    +0.012 C 
ATOM      4  C   UNL     1      31.839 -10.312 -22.200  0.00  0.00    +0.029 C 
ATOM      5  C   UNL     1      32.264 -10.739 -23.458  0.00  0.00    +0.001 C 
ATOM      6  C   UNL     1      31.742 -11.225 -21.150  0.00  0.00    +0.001 C 
ATOM      7  C   UNL     1      33.047 -12.517 -25.020  0.00  0.00    +0.034 C 
ATOM      8  C   UNL     1      31.961 -13.527 -20.221  0.00  0.00    +0.034 C 
ENDROOT
BRANCH   4  11
ATOM      9  O   UNL     1      30.718  -6.901 -22.324  0.00  0.00    -0.447 OA
ATOM     10  N   UNL     1      31.783  -8.239 -20.844  0.00  0.00    -0.372 NA
ATOM     11  C   UNL     1      31.502  -8.933 -21.987  0.00  0.00    +0.156 C 
ATOM     12  C   UNL     1      30.856  -8.132 -22.889  0.00  0.00    +0.266 C 
ATOM     13  C   UNL     1      31.298  -7.045 -21.100  0.00  0.00    +0.253 C 
ATOM     14  C   UNL     1      31.298  -5.850 -20.244  0.00  0.00    +0.110 C 
ENDBRANCH   4  11
BRANCH   1  15
ATOM     15  O   UNL     1      32.819 -14.301 -22.818  0.00  0.00    -0.476 OA
BRANCH  15  16
ATOM     16  C   UNL     1      34.206 -14.630 -22.834  0.00  0.00    +0.206 C 
BRANCH  16  17
ATOM     17  C   UNL     1      34.458 -15.752 -21.835  0.00  0.00    +0.055 C 
BRANCH  17  18
ATOM     18  C   UNL     1      34.714 -17.085 -22.539  0.00  0.00    +0.071 C 
BRANCH  18  21
ATOM     19  O   UNL     1      36.188 -17.916 -20.833  0.00  0.00    -0.358 OA
ATOM     20  N   UNL     1      36.393 -18.999 -19.987  0.00  0.00    -0.082 NA
ATOM     21  C   UNL     1      35.088 -18.166 -21.557  0.00  0.00    +0.154 C 
ATOM     22  C   UNL     1      34.534 -19.351 -21.255  0.00  0.00    +0.054 C 
ATOM     23  C   UNL     1      35.393 -19.843 -20.256  0.00  0.00    +0.101 C 
ATOM     24  C   UNL     1      35.295 -21.120 -19.531  0.00  0.00    +0.056 C 
ENDBRANCH  18  21
ENDBRANCH  17  18
ENDBRANCH  16  17
ENDBRANCH  15  16
ENDBRANCH   1  15
TORSDOF 6
ENDMDL
MODEL 6
REMARK VINA RESULT:     -10.6      6.639     12.561
REMARK  Name = 448138
REMARK  6 active torsions:
REMARK  status: ('A' for Active; 'I' for Inactive)
REMARK    1  A    between atoms: C_1  and  O_15
REMARK    2  A    between atoms: C_4  and  C_11
REMARK    3  A    between atoms: O_15  and  C_16
REMARK    4  A    between atoms: C_16  and  C_17
REMARK    5  A    between atoms: C_17  and  C_18
REMARK    6  A    between atoms: C_18  and  C_21
REMARK                            x       y       z     vdW  Elec       q    Type
REMARK                         _______ _______ _______ _____ _____    ______ ____
ROOT
ATOM      1  C   UNL     1      33.209 -14.029 -22.747  0.00  0.00    +0.130 C 
ATOM      2  C   UNL     1      33.611 -14.990 -23.674  0.00  0.00    +0.012 C 
ATOM      3  C   UNL     1      33.457 -14.227 -21.387  0.00  0.00    +0.012 C 
ATOM      4  C   UNL     1      34.509 -16.344 -21.886  0.00  0.00    +0.029 C 
ATOM      5  C   UNL     1      34.261 -16.147 -23.245  0.00  0.00    +0.001 C 
ATOM      6  C   UNL     1      34.106 -15.384 -20.958  0.00  0.00    +0.001 C 
ATOM      7  C   UNL     1      33.356 -14.795 -25.134  0.00  0.00    +0.034 C 
ATOM      8  C   UNL     1      33.034 -13.210 -20.379  0.00  0.00    +0.034 C 
ENDROOT
BRANCH   4  11
ATOM      9  O   UNL     1      36.734 -19.065 -21.145  0.00  0.00    -0.447 OA
ATOM     10  N   UNL     1      34.601 -18.494 -20.656  0.00  0.00    -0.372 NA
ATOM     11  C   UNL     1      35.176 -17.536 -21.444  0.00  0.00    +0.156 C 
ATOM     12  C   UNL     1      36.468 -17.872 -21.745  0.00  0.00    +0.266 C 
ATOM     13  C   UNL     1      35.568 -19.372 -20.513  0.00  0.00    +0.253 C 
ATOM     14  C   UNL     1      35.556 -20.637 -19.764  0.00  0.00    +0.110 C 
ENDBRANCH   4  11
BRANCH   1  15
ATOM     15  O   UNL     1      32.574 -12.898 -23.166  0.00  0.00    -0.476 OA
BRANCH  15  16
ATOM     16  C   UNL     1      33.378 -11.735 -23.350  0.00  0.00    +0.206 C 
BRANCH  16  17
ATOM     17  C   UNL     1      32.481 -10.506 -23.315  0.00  0.00    +0.055 C 
BRANCH  17  18
ATOM     18  C   UNL     1      31.468 -10.580 -22.173  0.00  0.00    +0.071 C 
BRANCH  18  21
ATOM     19  O   UNL     1      31.449  -9.651 -19.956  0.00  0.00    -0.358 OA
ATOM     20  N   UNL     1      31.563  -8.452 -19.264  0.00  0.00    -0.082 NA
ATOM     21  C   UNL     1      31.569  -9.381 -21.264  0.00  0.00    +0.154 C 
ATOM     22  C   UNL     1      31.759  -8.074 -21.502  0.00  0.00    +0.054 C 
ATOM     23  C   UNL     1      31.748  -7.524 -20.208  0.00  0.00    +0.101 C 
ATOM     24  C   UNL     1      31.912  -6.112 -19.827  0.00  0.00    +0.056 C 
ENDBRANCH  18  21
ENDBRANCH  17  18
ENDBRANCH  16  17
ENDBRANCH  15  16
ENDBRANCH   1  15
TORSDOF 6
ENDMDL
MODEL 7
REMARK VINA RESULT:     -10.6      6.661     12.557
REMARK  Name = 448138
REMARK  6 active torsions:
REMARK  status: ('A' for Active; 'I' for Inactive)
REMARK    1  A    between atoms: C_1  and  O_15
REMARK    2  A    between atoms: C_4  and  C_11
REMARK    3  A    between atoms: O_15  and  C_16
REMARK    4  A    between atoms: C_16  and  C_17
REMARK    5  A    between atoms: C_17  and  C_18
REMARK    6  A    between atoms: C_18  and  C_21
REMARK                            x       y       z     vdW  Elec       q    Type
REMARK                         _______ _______ _______ _____ _____    ______ ____
ROOT
ATOM      1  C   UNL     1      33.201 -14.015 -22.748  0.00  0.00    +0.130 C 
ATOM      2  C   UNL     1      33.453 -14.214 -21.391  0.00  0.00    +0.012 C 
ATOM      3  C   UNL     1      33.602 -14.976 -23.679  0.00  0.00    +0.012 C 
ATOM      4  C   UNL     1      34.503 -16.331 -21.893  0.00  0.00    +0.029 C 
ATOM      5  C   UNL     1      34.104 -15.371 -20.963  0.00  0.00    +0.001 C 
ATOM      6  C   UNL     1      34.253 -16.132 -23.251  0.00  0.00    +0.001 C 
ATOM      7  C   UNL     1      33.031 -13.198 -20.380  0.00  0.00    +0.034 C 
ATOM      8  C   UNL     1      33.342 -14.781 -25.136  0.00  0.00    +0.034 C 
ENDROOT
BRANCH   4  11
ATOM      9  O   UNL     1      36.739 -19.046 -21.157  0.00  0.00    -0.447 OA
ATOM     10  N   UNL     1      34.604 -18.482 -20.666  0.00  0.00    -0.372 NA
ATOM     11  C   UNL     1      35.175 -17.521 -21.453  0.00  0.00    +0.156 C 
ATOM     12  C   UNL     1      36.468 -17.853 -21.755  0.00  0.00    +0.266 C 
ATOM     13  C   UNL     1      35.574 -19.357 -20.525  0.00  0.00    +0.253 C 
ATOM     14  C   UNL     1      35.566 -20.623 -19.776  0.00  0.00    +0.110 C 
ENDBRANCH   4  11
BRANCH   1  15
ATOM     15  O   UNL     1      32.566 -12.884 -23.167  0.00  0.00    -0.476 OA
BRANCH  15  16
ATOM     16  C   UNL     1      33.366 -11.715 -23.328  0.00  0.00    +0.206 C 
BRANCH  16  17
ATOM     17  C   UNL     1      32.459 -10.492 -23.310  0.00  0.00    +0.055 C 
BRANCH  17  18
ATOM     18  C   UNL     1      31.457 -10.552 -22.157  0.00  0.00    +0.071 C 
BRANCH  18  21
ATOM     19  O   UNL     1      31.387  -9.591 -19.955  0.00  0.00    -0.358 OA
ATOM     20  N   UNL     1      31.525  -8.388 -19.274  0.00  0.00    -0.082 NA
ATOM     21  C   UNL     1      31.573  -9.345 -21.260  0.00  0.00    +0.154 C 
ATOM     22  C   UNL     1      31.827  -8.051 -21.506  0.00  0.00    +0.054 C 
ATOM     23  C   UNL     1      31.788  -7.483 -20.221  0.00  0.00    +0.101 C 
ATOM     24  C   UNL     1      31.996  -6.073 -19.851  0.00  0.00    +0.056 C 
ENDBRANCH  18  21
ENDBRANCH  17  18
ENDBRANCH  16  17
ENDBRANCH  15  16
ENDBRANCH   1  15
TORSDOF 6
ENDMDL
MODEL 8
REMARK VINA RESULT:     -10.5      3.717      8.976
REMARK  Name = 448138
REMARK  6 active torsions:
REMARK  status: ('A' for Active; 'I' for Inactive)
REMARK    1  A    between atoms: C_1  and  O_15
REMARK    2  A    between atoms: C_4  and  C_11
REMARK    3  A    between atoms: O_15  and  C_16
REMARK    4  A    between atoms: C_16  and  C_17
REMARK    5  A    between atoms: C_17  and  C_18
REMARK    6  A    between atoms: C_18  and  C_21
REMARK                            x       y       z     vdW  Elec       q    Type
REMARK                         _______ _______ _______ _____ _____    ______ ____
ROOT
ATOM      1  C   UNL     1      34.205 -20.914 -19.353  0.00  0.00    +0.130 C 
ATOM      2  C   UNL     1      32.814 -20.848 -19.440  0.00  0.00    +0.012 C 
ATOM      3  C   UNL     1      34.805 -21.561 -18.272  0.00  0.00    +0.012 C 
ATOM      4  C   UNL     1      32.623 -22.077 -17.369  0.00  0.00    +0.029 C 
ATOM      5  C   UNL     1      32.023 -21.430 -18.449  0.00  0.00    +0.001 C 
ATOM      6  C   UNL     1      34.014 -22.142 -17.280  0.00  0.00    +0.001 C 
ATOM      7  C   UNL     1      32.154 -20.160 -20.591  0.00  0.00    +0.034 C 
ATOM      8  C   UNL     1      36.291 -21.642 -18.160  0.00  0.00    +0.034 C 
ENDROOT
BRANCH   4  11
ATOM      9  O   UNL     1      30.045 -23.256 -15.162  0.00  0.00    -0.447 OA
ATOM     10  N   UNL     1      32.292 -23.449 -15.332  0.00  0.00    -0.372 NA
ATOM     11  C   UNL     1      31.809 -22.673 -16.348  0.00  0.00    +0.156 C 
ATOM     12  C   UNL     1      30.449 -22.552 -16.255  0.00  0.00    +0.266 C 
ATOM     13  C   UNL     1      31.206 -23.764 -14.663  0.00  0.00    +0.253 C 
ATOM     14  C   UNL     1      31.080 -24.589 -13.452  0.00  0.00    +0.110 C 
ENDBRANCH   4  11
BRANCH   1  15
ATOM     15  O   UNL     1      34.978 -20.345 -20.321  0.00  0.00    -0.476 OA
BRANCH  15  16
ATOM     16  C   UNL     1      36.054 -19.517 -19.885  0.00  0.00    +0.206 C 
BRANCH  16  17
ATOM     17  C   UNL     1      36.382 -18.518 -20.986  0.00  0.00    +0.055 C 
BRANCH  17  18
ATOM     18  C   UNL     1      35.164 -18.225 -21.862  0.00  0.00    +0.071 C 
BRANCH  18  21
ATOM     19  O   UNL     1      34.572 -16.350 -20.482  0.00  0.00    -0.358 OA
ATOM     20  N   UNL     1      34.168 -15.022 -20.542  0.00  0.00    -0.082 NA
ATOM     21  C   UNL     1      34.725 -16.788 -21.739  0.00  0.00    +0.154 C 
ATOM     22  C   UNL     1      34.451 -15.841 -22.649  0.00  0.00    +0.054 C 
ATOM     23  C   UNL     1      34.103 -14.739 -21.847  0.00  0.00    +0.101 C 
ATOM     24  C   UNL     1      33.701 -13.394 -22.287  0.00  0.00    +0.056 C 
ENDBRANCH  18  21
ENDBRANCH  17  18
ENDBRANCH  16  17
ENDBRANCH  15  16
ENDBRANCH   1  15
TORSDOF 6
ENDMDL
MODEL 9
REMARK VINA RESULT:     -10.4      3.304      8.880
REMARK  Name = 448138
REMARK  6 active torsions:
REMARK  status: ('A' for Active; 'I' for Inactive)
REMARK    1  A    between atoms: C_1  and  O_15
REMARK    2  A    between atoms: C_4  and  C_11
REMARK    3  A    between atoms: O_15  and  C_16
REMARK    4  A    between atoms: C_16  and  C_17
REMARK    5  A    between atoms: C_17  and  C_18
REMARK    6  A    between atoms: C_18  and  C_21
REMARK                            x       y       z     vdW  Elec       q    Type
REMARK                         _______ _______ _______ _____ _____    ______ ____
ROOT
ATOM      1  C   UNL     1      34.623 -21.349 -18.528  0.00  0.00    +0.130 C 
ATOM      2  C   UNL     1      35.177 -21.846 -17.349  0.00  0.00    +0.012 C 
ATOM      3  C   UNL     1      33.251 -21.467 -18.757  0.00  0.00    +0.012 C 
ATOM      4  C   UNL     1      32.991 -22.578 -16.628  0.00  0.00    +0.029 C 
ATOM      5  C   UNL     1      34.362 -22.460 -16.399  0.00  0.00    +0.001 C 
ATOM      6  C   UNL     1      32.436 -22.082 -17.807  0.00  0.00    +0.001 C 
ATOM      7  C   UNL     1      36.644 -21.727 -17.086  0.00  0.00    +0.034 C 
ATOM      8  C   UNL     1      32.639 -20.942 -20.013  0.00  0.00    +0.034 C 
ENDROOT
BRANCH   4  11
ATOM      9  O   UNL     1      31.487 -24.176 -13.783  0.00  0.00    -0.447 OA
ATOM     10  N   UNL     1      30.826 -23.484 -15.832  0.00  0.00    -0.372 NA
ATOM     11  C   UNL     1      32.153 -23.213 -15.650  0.00  0.00    +0.156 C 
ATOM     12  C   UNL     1      32.563 -23.627 -14.412  0.00  0.00    +0.266 C 
ATOM     13  C   UNL     1      30.485 -24.052 -14.697  0.00  0.00    +0.253 C 
ATOM     14  C   UNL     1      29.172 -24.570 -14.287  0.00  0.00    +0.110 C 
ENDBRANCH   4  11
BRANCH   1  15
ATOM     15  O   UNL     1      35.419 -20.748 -19.458  0.00  0.00    -0.476 OA
BRANCH  15  16
ATOM     16  C   UNL     1      34.795 -19.817 -20.339  0.00  0.00    +0.206 C 
BRANCH  16  17
ATOM     17  C   UNL     1      35.843 -18.831 -20.836  0.00  0.00    +0.055 C 
BRANCH  17  18
ATOM     18  C   UNL     1      35.398 -18.138 -22.124  0.00  0.00    +0.071 C 
BRANCH  18  21
ATOM     19  O   UNL     1      34.705 -16.455 -20.556  0.00  0.00    -0.358 OA
ATOM     20  N   UNL     1      34.200 -15.163 -20.478  0.00  0.00    -0.082 NA
ATOM     21  C   UNL     1      34.855 -16.758 -21.852  0.00  0.00    +0.154 C 
ATOM     22  C   UNL     1      34.484 -15.752 -22.660  0.00  0.00    +0.054 C 
ATOM     23  C   UNL     1      34.077 -14.763 -21.747  0.00  0.00    +0.101 C 
ATOM     24  C   UNL     1      33.562 -13.418 -22.047  0.00  0.00    +0.056 C 
ENDBRANCH  18  21
ENDBRANCH  17  18
ENDBRANCH  16  17
ENDBRANCH  15  16
ENDBRANCH   1  15
TORSDOF 6
ENDMDL
