MODEL 1
REMARK VINA RESULT:     -12.0      0.000      0.000
REMARK  Name = 6852140
REMARK  4 active torsions:
REMARK  status: ('A' for Active; 'I' for Inactive)
REMARK    1  A    between atoms: C_2  and  N_18
REMARK    2  A    between atoms: C_5  and  C_13
REMARK    3  A    between atoms: C_19  and  C_21
REMARK    4  A    between atoms: C_24  and  O_28
REMARK                            x       y       z     vdW  Elec       q    Type
REMARK                         _______ _______ _______ _____ _____    ______ ____
ROOT
ATOM      1  C   UNL     1      31.207 -23.271 -15.275  0.00  0.00    +0.014 C 
ATOM      2  C   UNL     1      32.513 -22.915 -15.652  0.00  0.00    +0.050 C 
ATOM      3  C   UNL     1      31.015 -24.101 -14.145  0.00  0.00    +0.001 C 
ATOM      4  C   UNL     1      30.088 -22.823 -15.997  0.00  0.00    +0.004 C 
ATOM      5  C   UNL     1      28.799 -23.187 -15.608  0.00  0.00    +0.031 C 
ATOM      6  C   UNL     1      29.709 -24.457 -13.768  0.00  0.00    +0.000 C 
ATOM      7  C   UNL     1      33.613 -23.371 -14.925  0.00  0.00    +0.015 C 
ATOM      8  C   UNL     1      32.134 -24.549 -13.424  0.00  0.00    +0.000 C 
ATOM      9  C   UNL     1      28.609 -24.002 -14.496  0.00  0.00    +0.003 C 
ATOM     10  C   UNL     1      33.423 -24.186 -13.813  0.00  0.00    +0.001 C 
ENDROOT
BRANCH   5  13
ATOM     11  N   UNL     1      26.816 -21.714 -15.866  0.00  0.00    -0.343 N 
ATOM     12  N   UNL     1      27.378 -23.240 -17.545  0.00  0.00    -0.285 NA
ATOM     13  C   UNL     1      27.650 -22.714 -16.364  0.00  0.00    +0.117 C 
ATOM     14  H   UNL     1      26.044 -21.409 -16.395  0.00  0.00    +0.144 HD
ATOM     15  H   UNL     1      27.000 -21.311 -14.987  0.00  0.00    +0.144 HD
ATOM     16  H   UNL     1      26.600 -22.921 -18.058  0.00  0.00    +0.188 HD
ENDBRANCH   5  13
BRANCH   2  18
ATOM     17  O   UNL     1      33.251 -23.704 -18.378  0.00  0.00    -0.270 OA
ATOM     18  N   UNL     1      32.764 -22.098 -16.762  0.00  0.00    -0.280 N 
ATOM     19  C   UNL     1      33.113 -22.531 -18.040  0.00  0.00    +0.249 C 
ATOM     20  H   UNL     1      32.687 -21.126 -16.626  0.00  0.00    +0.155 HD
BRANCH  19  21
ATOM     21  C   UNL     1      33.365 -21.436 -18.997  0.00  0.00    +0.053 C 
ATOM     22  C   UNL     1      34.643 -20.929 -19.168  0.00  0.00    +0.016 C 
ATOM     23  C   UNL     1      32.289 -20.936 -19.714  0.00  0.00    +0.004 C 
ATOM     24  C   UNL     1      34.851 -19.894 -20.080  0.00  0.00    +0.130 C 
ATOM     25  C   UNL     1      35.798 -21.475 -18.392  0.00  0.00    +0.034 C 
ATOM     26  C   UNL     1      32.497 -19.901 -20.625  0.00  0.00    +0.003 C 
ATOM     27  C   UNL     1      33.779 -19.380 -20.808  0.00  0.00    +0.036 C 
BRANCH  24  28
ATOM     28  O   UNL     1      36.096 -19.372 -20.273  0.00  0.00    -0.506 OA
ATOM     29  H   UNL     1      36.685 -19.290 -19.549  0.00  0.00    +0.292 HD
ENDBRANCH  24  28
ENDBRANCH  19  21
ENDBRANCH   2  18
TORSDOF 4
ENDMDL
MODEL 2
REMARK VINA RESULT:     -11.4      1.908      4.366
REMARK  Name = 6852140
REMARK  4 active torsions:
REMARK  status: ('A' for Active; 'I' for Inactive)
REMARK    1  A    between atoms: C_2  and  N_18
REMARK    2  A    between atoms: C_5  and  C_13
REMARK    3  A    between atoms: C_19  and  C_21
REMARK    4  A    between atoms: C_24  and  O_28
REMARK                            x       y       z     vdW  Elec       q    Type
REMARK                         _______ _______ _______ _____ _____    ______ ____
ROOT
ATOM      1  C   UNL     1      32.935 -23.012 -15.206  0.00  0.00    +0.014 C 
ATOM      2  C   UNL     1      32.071 -22.543 -16.210  0.00  0.00    +0.050 C 
ATOM      3  C   UNL     1      32.411 -23.810 -14.160  0.00  0.00    +0.001 C 
ATOM      4  C   UNL     1      34.305 -22.706 -15.216  0.00  0.00    +0.004 C 
ATOM      5  C   UNL     1      35.147 -23.180 -14.210  0.00  0.00    +0.031 C 
ATOM      6  C   UNL     1      33.274 -24.279 -13.157  0.00  0.00    +0.000 C 
ATOM      7  C   UNL     1      30.712 -22.856 -16.183  0.00  0.00    +0.015 C 
ATOM      8  C   UNL     1      31.040 -24.116 -14.151  0.00  0.00    +0.000 C 
ATOM      9  C   UNL     1      34.634 -23.966 -13.183  0.00  0.00    +0.003 C 
ATOM     10  C   UNL     1      30.198 -23.641 -15.156  0.00  0.00    +0.001 C 
ENDROOT
BRANCH   5  13
ATOM     11  N   UNL     1      37.324 -23.007 -15.394  0.00  0.00    -0.343 N 
ATOM     12  N   UNL     1      37.158 -22.413 -13.141  0.00  0.00    -0.285 NA
ATOM     13  C   UNL     1      36.565 -22.855 -14.235  0.00  0.00    +0.117 C 
ATOM     14  H   UNL     1      38.282 -22.782 -15.389  0.00  0.00    +0.144 HD
ATOM     15  H   UNL     1      36.901 -23.339 -16.220  0.00  0.00    +0.144 HD
ATOM     16  H   UNL     1      38.117 -22.192 -13.156  0.00  0.00    +0.188 HD
ENDBRANCH   5  13
BRANCH   2  18
ATOM     17  O   UNL     1      33.313 -23.388 -18.728  0.00  0.00    -0.270 OA
ATOM     18  N   UNL     1      32.532 -21.749 -17.268  0.00  0.00    -0.280 N 
ATOM     19  C   UNL     1      33.117 -22.208 -18.447  0.00  0.00    +0.249 C 
ATOM     20  H   UNL     1      32.433 -20.774 -17.170  0.00  0.00    +0.155 HD
BRANCH  19  21
ATOM     21  C   UNL     1      33.549 -21.134 -19.361  0.00  0.00    +0.053 C 
ATOM     22  C   UNL     1      34.871 -20.717 -19.384  0.00  0.00    +0.016 C 
ATOM     23  C   UNL     1      32.599 -20.559 -20.190  0.00  0.00    +0.004 C 
ATOM     24  C   UNL     1      35.251 -19.699 -20.258  0.00  0.00    +0.130 C 
ATOM     25  C   UNL     1      35.891 -21.342 -18.487  0.00  0.00    +0.034 C 
ATOM     26  C   UNL     1      32.979 -19.541 -21.064  0.00  0.00    +0.003 C 
ATOM     27  C   UNL     1      34.306 -19.111 -21.098  0.00  0.00    +0.036 C 
BRANCH  24  28
ATOM     28  O   UNL     1      36.543 -19.265 -20.306  0.00  0.00    -0.506 OA
ATOM     29  H   UNL     1      36.846 -18.782 -21.049  0.00  0.00    +0.292 HD
ENDBRANCH  24  28
ENDBRANCH  19  21
ENDBRANCH   2  18
TORSDOF 4
ENDMDL
MODEL 3
REMARK VINA RESULT:     -11.0      2.701      7.249
REMARK  Name = 6852140
REMARK  4 active torsions:
REMARK  status: ('A' for Active; 'I' for Inactive)
REMARK    1  A    between atoms: C_2  and  N_18
REMARK    2  A    between atoms: C_5  and  C_13
REMARK    3  A    between atoms: C_19  and  C_21
REMARK    4  A    between atoms: C_24  and  O_28
REMARK                            x       y       z     vdW  Elec       q    Type
REMARK                         _______ _______ _______ _____ _____    ______ ____
ROOT
ATOM      1  C   UNL     1      34.633 -22.193 -16.822  0.00  0.00    +0.014 C 
ATOM      2  C   UNL     1      33.350 -22.393 -17.358  0.00  0.00    +0.050 C 
ATOM      3  C   UNL     1      35.622 -21.560 -17.613  0.00  0.00    +0.001 C 
ATOM      4  C   UNL     1      34.957 -22.608 -15.520  0.00  0.00    +0.004 C 
ATOM      5  C   UNL     1      36.236 -22.402 -15.005  0.00  0.00    +0.031 C 
ATOM      6  C   UNL     1      36.905 -21.359 -17.077  0.00  0.00    +0.000 C 
ATOM      7  C   UNL     1      33.047 -21.975 -18.654  0.00  0.00    +0.015 C 
ATOM      8  C   UNL     1      35.299 -21.144 -18.915  0.00  0.00    +0.000 C 
ATOM      9  C   UNL     1      37.209 -21.778 -15.781  0.00  0.00    +0.003 C 
ATOM     10  C   UNL     1      34.020 -21.352 -19.431  0.00  0.00    +0.001 C 
ENDROOT
BRANCH   5  13
ATOM     11  N   UNL     1      35.631 -22.722 -12.618  0.00  0.00    -0.343 N 
ATOM     12  N   UNL     1      37.746 -23.346 -13.391  0.00  0.00    -0.285 NA
ATOM     13  C   UNL     1      36.556 -22.836 -13.654  0.00  0.00    +0.117 C 
ATOM     14  H   UNL     1      35.868 -23.022 -11.711  0.00  0.00    +0.144 HD
ATOM     15  H   UNL     1      34.739 -22.342 -12.792  0.00  0.00    +0.144 HD
ATOM     16  H   UNL     1      37.964 -23.641 -12.477  0.00  0.00    +0.188 HD
ENDBRANCH   5  13
BRANCH   2  18
ATOM     17  O   UNL     1      30.535 -21.613 -17.108  0.00  0.00    -0.270 OA
ATOM     18  N   UNL     1      32.332 -23.015 -16.624  0.00  0.00    -0.280 N 
ATOM     19  C   UNL     1      31.005 -22.597 -16.541  0.00  0.00    +0.249 C 
ATOM     20  H   UNL     1      32.577 -23.823 -16.118  0.00  0.00    +0.155 HD
BRANCH  19  21
ATOM     21  C   UNL     1      30.170 -23.423 -15.650  0.00  0.00    +0.053 C 
ATOM     22  C   UNL     1      30.523 -23.608 -14.323  0.00  0.00    +0.016 C 
ATOM     23  C   UNL     1      29.027 -24.005 -16.178  0.00  0.00    +0.004 C 
ATOM     24  C   UNL     1      29.714 -24.394 -13.503  0.00  0.00    +0.130 C 
ATOM     25  C   UNL     1      31.756 -22.977 -13.759  0.00  0.00    +0.034 C 
ATOM     26  C   UNL     1      28.219 -24.792 -15.359  0.00  0.00    +0.003 C 
ATOM     27  C   UNL     1      28.562 -24.987 -14.020  0.00  0.00    +0.036 C 
BRANCH  24  28
ATOM     28  O   UNL     1      30.033 -24.597 -12.193  0.00  0.00    -0.506 OA
ATOM     29  H   UNL     1      30.916 -24.481 -11.903  0.00  0.00    +0.292 HD
ENDBRANCH  24  28
ENDBRANCH  19  21
ENDBRANCH   2  18
TORSDOF 4
ENDMDL
MODEL 4
REMARK VINA RESULT:     -10.6      3.170      5.944
REMARK  Name = 6852140
REMARK  4 active torsions:
REMARK  status: ('A' for Active; 'I' for Inactive)
REMARK    1  A    between atoms: C_2  and  N_18
REMARK    2  A    between atoms: C_5  and  C_13
REMARK    3  A    between atoms: C_19  and  C_21
REMARK    4  A    between atoms: C_24  and  O_28
REMARK                            x       y       z     vdW  Elec       q    Type
REMARK                         _______ _______ _______ _____ _____    ______ ____
ROOT
ATOM      1  C   UNL     1      31.829 -23.466 -15.026  0.00  0.00    +0.014 C 
ATOM      2  C   UNL     1      32.380 -24.146 -13.927  0.00  0.00    +0.050 C 
ATOM      3  C   UNL     1      30.433 -23.234 -15.066  0.00  0.00    +0.001 C 
ATOM      4  C   UNL     1      32.631 -23.014 -16.086  0.00  0.00    +0.004 C 
ATOM      5  C   UNL     1      32.066 -22.342 -17.169  0.00  0.00    +0.031 C 
ATOM      6  C   UNL     1      29.881 -22.555 -16.165  0.00  0.00    +0.000 C 
ATOM      7  C   UNL     1      31.567 -24.589 -12.883  0.00  0.00    +0.015 C 
ATOM      8  C   UNL     1      29.630 -23.686 -14.006  0.00  0.00    +0.000 C 
ATOM      9  C   UNL     1      30.694 -22.112 -17.209  0.00  0.00    +0.003 C 
ATOM     10  C   UNL     1      30.195 -24.359 -12.923  0.00  0.00    +0.001 C 
ENDROOT
BRANCH   5  13
ATOM     11  N   UNL     1      32.367 -21.270 -19.389  0.00  0.00    -0.343 N 
ATOM     12  N   UNL     1      34.220 -22.038 -18.191  0.00  0.00    -0.285 NA
ATOM     13  C   UNL     1      32.910 -21.879 -18.259  0.00  0.00    +0.117 C 
ATOM     14  H   UNL     1      32.956 -20.965 -20.116  0.00  0.00    +0.144 HD
ATOM     15  H   UNL     1      31.392 -21.145 -19.461  0.00  0.00    +0.144 HD
ATOM     16  H   UNL     1      34.793 -21.725 -18.928  0.00  0.00    +0.188 HD
ENDBRANCH   5  13
BRANCH   2  18
ATOM     17  O   UNL     1      34.300 -23.153 -11.946  0.00  0.00    -0.270 OA
ATOM     18  N   UNL     1      33.753 -24.406 -13.833  0.00  0.00    -0.280 N 
ATOM     19  C   UNL     1      34.621 -23.903 -12.864  0.00  0.00    +0.249 C 
ATOM     20  H   UNL     1      34.143 -24.999 -14.515  0.00  0.00    +0.155 HD
BRANCH  19  21
ATOM     21  C   UNL     1      36.027 -24.311 -13.048  0.00  0.00    +0.053 C 
ATOM     22  C   UNL     1      36.786 -23.780 -14.078  0.00  0.00    +0.016 C 
ATOM     23  C   UNL     1      36.560 -25.235 -12.163  0.00  0.00    +0.004 C 
ATOM     24  C   UNL     1      38.112 -24.184 -14.228  0.00  0.00    +0.130 C 
ATOM     25  C   UNL     1      36.204 -22.783 -15.029  0.00  0.00    +0.034 C 
ATOM     26  C   UNL     1      37.887 -25.639 -12.313  0.00  0.00    +0.003 C 
ATOM     27  C   UNL     1      38.663 -25.114 -13.346  0.00  0.00    +0.036 C 
BRANCH  24  28
ATOM     28  O   UNL     1      38.887 -23.682 -15.232  0.00  0.00    -0.506 OA
ATOM     29  H   UNL     1      39.791 -23.493 -15.074  0.00  0.00    +0.292 HD
ENDBRANCH  24  28
ENDBRANCH  19  21
ENDBRANCH   2  18
TORSDOF 4
ENDMDL
MODEL 5
REMARK VINA RESULT:     -10.5      1.780      4.137
REMARK  Name = 6852140
REMARK  4 active torsions:
REMARK  status: ('A' for Active; 'I' for Inactive)
REMARK    1  A    between atoms: C_2  and  N_18
REMARK    2  A    between atoms: C_5  and  C_13
REMARK    3  A    between atoms: C_19  and  C_21
REMARK    4  A    between atoms: C_24  and  O_28
REMARK                            x       y       z     vdW  Elec       q    Type
REMARK                         _______ _______ _______ _____ _____    ______ ____
ROOT
ATOM      1  C   UNL     1      31.710 -23.087 -15.240  0.00  0.00    +0.014 C 
ATOM      2  C   UNL     1      31.302 -22.427 -16.412  0.00  0.00    +0.050 C 
ATOM      3  C   UNL     1      30.737 -23.712 -14.424  0.00  0.00    +0.001 C 
ATOM      4  C   UNL     1      33.061 -23.137 -14.860  0.00  0.00    +0.004 C 
ATOM      5  C   UNL     1      33.448 -23.796 -13.693  0.00  0.00    +0.031 C 
ATOM      6  C   UNL     1      31.145 -24.371 -13.252  0.00  0.00    +0.000 C 
ATOM      7  C   UNL     1      29.955 -22.386 -16.773  0.00  0.00    +0.015 C 
ATOM      8  C   UNL     1      29.386 -23.662 -14.804  0.00  0.00    +0.000 C 
ATOM      9  C   UNL     1      32.492 -24.412 -12.891  0.00  0.00    +0.003 C 
ATOM     10  C   UNL     1      28.999 -23.002 -15.971  0.00  0.00    +0.001 C 
ENDROOT
BRANCH   5  13
ATOM     11  N   UNL     1      35.303 -24.693 -12.308  0.00  0.00    -0.343 N 
ATOM     12  N   UNL     1      35.723 -23.057 -13.922  0.00  0.00    -0.285 NA
ATOM     13  C   UNL     1      34.851 -23.840 -13.313  0.00  0.00    +0.117 C 
ATOM     14  H   UNL     1      36.257 -24.707 -12.067  0.00  0.00    +0.144 HD
ATOM     15  H   UNL     1      34.668 -25.283 -11.840  0.00  0.00    +0.144 HD
ATOM     16  H   UNL     1      36.673 -23.086 -13.667  0.00  0.00    +0.188 HD
ENDBRANCH   5  13
BRANCH   2  18
ATOM     17  O   UNL     1      33.069 -23.617 -18.426  0.00  0.00    -0.270 OA
ATOM     18  N   UNL     1      32.219 -21.790 -17.258  0.00  0.00    -0.280 N 
ATOM     19  C   UNL     1      33.037 -22.410 -18.201  0.00  0.00    +0.249 C 
ATOM     20  H   UNL     1      32.292 -20.811 -17.179  0.00  0.00    +0.155 HD
BRANCH  19  21
ATOM     21  C   UNL     1      33.939 -21.486 -18.913  0.00  0.00    +0.053 C 
ATOM     22  C   UNL     1      33.440 -20.595 -19.850  0.00  0.00    +0.016 C 
ATOM     23  C   UNL     1      35.292 -21.536 -18.617  0.00  0.00    +0.004 C 
ATOM     24  C   UNL     1      34.316 -19.733 -20.509  0.00  0.00    +0.130 C 
ATOM     25  C   UNL     1      31.979 -20.546 -20.165  0.00  0.00    +0.034 C 
ATOM     26  C   UNL     1      36.169 -20.673 -19.275  0.00  0.00    +0.003 C 
ATOM     27  C   UNL     1      35.681 -19.772 -20.222  0.00  0.00    +0.036 C 
BRANCH  24  28
ATOM     28  O   UNL     1      33.859 -18.844 -21.436  0.00  0.00    -0.506 OA
ATOM     29  H   UNL     1      32.938 -18.700 -21.531  0.00  0.00    +0.292 HD
ENDBRANCH  24  28
ENDBRANCH  19  21
ENDBRANCH   2  18
TORSDOF 4
ENDMDL
MODEL 6
REMARK VINA RESULT:     -10.4      3.447      6.220
REMARK  Name = 6852140
REMARK  4 active torsions:
REMARK  status: ('A' for Active; 'I' for Inactive)
REMARK    1  A    between atoms: C_2  and  N_18
REMARK    2  A    between atoms: C_5  and  C_13
REMARK    3  A    between atoms: C_19  and  C_21
REMARK    4  A    between atoms: C_24  and  O_28
REMARK                            x       y       z     vdW  Elec       q    Type
REMARK                         _______ _______ _______ _____ _____    ______ ____
ROOT
ATOM      1  C   UNL     1      32.804 -22.659 -16.044  0.00  0.00    +0.014 C 
ATOM      2  C   UNL     1      34.189 -22.540 -16.246  0.00  0.00    +0.050 C 
ATOM      3  C   UNL     1      31.919 -22.292 -17.086  0.00  0.00    +0.001 C 
ATOM      4  C   UNL     1      32.278 -23.133 -14.831  0.00  0.00    +0.004 C 
ATOM      5  C   UNL     1      30.900 -23.244 -14.648  0.00  0.00    +0.031 C 
ATOM      6  C   UNL     1      30.533 -22.412 -16.884  0.00  0.00    +0.000 C 
ATOM      7  C   UNL     1      34.693 -22.066 -17.458  0.00  0.00    +0.015 C 
ATOM      8  C   UNL     1      32.444 -21.819 -18.299  0.00  0.00    +0.000 C 
ATOM      9  C   UNL     1      30.029 -22.885 -15.672  0.00  0.00    +0.003 C 
ATOM     10  C   UNL     1      33.822 -21.706 -18.482  0.00  0.00    +0.001 C 
ENDROOT
BRANCH   5  13
ATOM     11  N   UNL     1      29.592 -24.892 -13.329  0.00  0.00    -0.343 N 
ATOM     12  N   UNL     1      30.620 -23.082 -12.267  0.00  0.00    -0.285 NA
ATOM     13  C   UNL     1      30.370 -23.737 -13.386  0.00  0.00    +0.117 C 
ATOM     14  H   UNL     1      29.244 -25.208 -12.464  0.00  0.00    +0.144 HD
ATOM     15  H   UNL     1      29.392 -25.393 -14.152  0.00  0.00    +0.144 HD
ATOM     16  H   UNL     1      30.263 -23.415 -11.412  0.00  0.00    +0.188 HD
ENDBRANCH   5  13
BRANCH   2  18
ATOM     17  O   UNL     1      35.098 -25.208 -15.441  0.00  0.00    -0.270 OA
ATOM     18  N   UNL     1      35.113 -22.886 -15.252  0.00  0.00    -0.280 N 
ATOM     19  C   UNL     1      35.509 -24.179 -14.911  0.00  0.00    +0.249 C 
ATOM     20  H   UNL     1      35.520 -22.147 -14.745  0.00  0.00    +0.155 HD
BRANCH  19  21
ATOM     21  C   UNL     1      36.462 -24.238 -13.787  0.00  0.00    +0.053 C 
ATOM     22  C   UNL     1      36.023 -24.086 -12.481  0.00  0.00    +0.016 C 
ATOM     23  C   UNL     1      37.801 -24.449 -14.077  0.00  0.00    +0.004 C 
ATOM     24  C   UNL     1      36.947 -24.147 -11.439  0.00  0.00    +0.130 C 
ATOM     25  C   UNL     1      34.577 -23.860 -12.176  0.00  0.00    +0.034 C 
ATOM     26  C   UNL     1      38.725 -24.509 -13.034  0.00  0.00    +0.003 C 
ATOM     27  C   UNL     1      38.298 -24.358 -11.714  0.00  0.00    +0.036 C 
BRANCH  24  28
ATOM     28  O   UNL     1      36.550 -24.002 -10.142  0.00  0.00    -0.506 OA
ATOM     29  H   UNL     1      36.282 -24.752  -9.649  0.00  0.00    +0.292 HD
ENDBRANCH  24  28
ENDBRANCH  19  21
ENDBRANCH   2  18
TORSDOF 4
ENDMDL
MODEL 7
REMARK VINA RESULT:      -9.8      2.094      3.605
REMARK  Name = 6852140
REMARK  4 active torsions:
REMARK  status: ('A' for Active; 'I' for Inactive)
REMARK    1  A    between atoms: C_2  and  N_18
REMARK    2  A    between atoms: C_5  and  C_13
REMARK    3  A    between atoms: C_19  and  C_21
REMARK    4  A    between atoms: C_24  and  O_28
REMARK                            x       y       z     vdW  Elec       q    Type
REMARK                         _______ _______ _______ _____ _____    ______ ____
ROOT
ATOM      1  C   UNL     1      34.925 -22.463 -15.927  0.00  0.00    +0.014 C 
ATOM      2  C   UNL     1      36.019 -21.857 -16.567  0.00  0.00    +0.050 C 
ATOM      3  C   UNL     1      35.156 -23.305 -14.813  0.00  0.00    +0.001 C 
ATOM      4  C   UNL     1      33.609 -22.253 -16.369  0.00  0.00    +0.004 C 
ATOM      5  C   UNL     1      32.535 -22.863 -15.721  0.00  0.00    +0.031 C 
ATOM      6  C   UNL     1      34.062 -23.911 -14.172  0.00  0.00    +0.000 C 
ATOM      7  C   UNL     1      37.321 -22.078 -16.115  0.00  0.00    +0.015 C 
ATOM      8  C   UNL     1      36.472 -23.515 -14.371  0.00  0.00    +0.000 C 
ATOM      9  C   UNL     1      32.760 -23.689 -14.625  0.00  0.00    +0.003 C 
ATOM     10  C   UNL     1      37.546 -22.905 -15.019  0.00  0.00    +0.001 C 
ENDROOT
BRANCH   5  13
ATOM     11  N   UNL     1      30.074 -22.998 -15.420  0.00  0.00    -0.343 N 
ATOM     12  N   UNL     1      30.973 -22.078 -17.370  0.00  0.00    -0.285 NA
ATOM     13  C   UNL     1      31.177 -22.635 -16.190  0.00  0.00    +0.117 C 
ATOM     14  H   UNL     1      29.164 -22.835 -15.757  0.00  0.00    +0.144 HD
ATOM     15  H   UNL     1      30.205 -23.418 -14.538  0.00  0.00    +0.144 HD
ATOM     16  H   UNL     1      30.055 -21.923 -17.689  0.00  0.00    +0.188 HD
ENDBRANCH   5  13
BRANCH   2  18
ATOM     17  O   UNL     1      34.731 -22.443 -19.135  0.00  0.00    -0.270 OA
ATOM     18  N   UNL     1      35.853 -21.016 -17.675  0.00  0.00    -0.280 N 
ATOM     19  C   UNL     1      35.229 -21.350 -18.876  0.00  0.00    +0.249 C 
ATOM     20  H   UNL     1      36.211 -20.102 -17.598  0.00  0.00    +0.155 HD
BRANCH  19  21
ATOM     21  C   UNL     1      35.247 -20.272 -19.882  0.00  0.00    +0.053 C 
ATOM     22  C   UNL     1      34.091 -19.921 -20.561  0.00  0.00    +0.016 C 
ATOM     23  C   UNL     1      36.449 -19.624 -20.125  0.00  0.00    +0.004 C 
ATOM     24  C   UNL     1      34.138 -18.898 -21.507  0.00  0.00    +0.130 C 
ATOM     25  C   UNL     1      32.798 -20.623 -20.294  0.00  0.00    +0.034 C 
ATOM     26  C   UNL     1      36.496 -18.601 -21.071  0.00  0.00    +0.003 C 
ATOM     27  C   UNL     1      35.340 -18.237 -21.763  0.00  0.00    +0.036 C 
BRANCH  24  28
ATOM     28  O   UNL     1      33.019 -18.527 -22.193  0.00  0.00    -0.506 OA
ATOM     29  H   UNL     1      33.060 -18.398 -23.120  0.00  0.00    +0.292 HD
ENDBRANCH  24  28
ENDBRANCH  19  21
ENDBRANCH   2  18
TORSDOF 4
ENDMDL
MODEL 8
REMARK VINA RESULT:      -9.8      3.462      5.838
REMARK  Name = 6852140
REMARK  4 active torsions:
REMARK  status: ('A' for Active; 'I' for Inactive)
REMARK    1  A    between atoms: C_2  and  N_18
REMARK    2  A    between atoms: C_5  and  C_13
REMARK    3  A    between atoms: C_19  and  C_21
REMARK    4  A    between atoms: C_24  and  O_28
REMARK                            x       y       z     vdW  Elec       q    Type
REMARK                         _______ _______ _______ _____ _____    ______ ____
ROOT
ATOM      1  C   UNL     1      32.469 -22.863 -16.168  0.00  0.00    +0.014 C 
ATOM      2  C   UNL     1      33.840 -22.890 -16.475  0.00  0.00    +0.050 C 
ATOM      3  C   UNL     1      31.574 -22.221 -17.058  0.00  0.00    +0.001 C 
ATOM      4  C   UNL     1      31.968 -23.456 -14.998  0.00  0.00    +0.004 C 
ATOM      5  C   UNL     1      30.604 -23.418 -14.709  0.00  0.00    +0.031 C 
ATOM      6  C   UNL     1      30.204 -22.193 -16.751  0.00  0.00    +0.000 C 
ATOM      7  C   UNL     1      34.321 -22.295 -17.642  0.00  0.00    +0.015 C 
ATOM      8  C   UNL     1      32.076 -21.628 -18.228  0.00  0.00    +0.000 C 
ATOM      9  C   UNL     1      29.723 -22.789 -15.584  0.00  0.00    +0.003 C 
ATOM     10  C   UNL     1      33.440 -21.665 -18.516  0.00  0.00    +0.001 C 
ENDROOT
BRANCH   5  13
ATOM     11  N   UNL     1      29.209 -25.109 -13.542  0.00  0.00    -0.343 N 
ATOM     12  N   UNL     1      30.481 -23.580 -12.315  0.00  0.00    -0.285 NA
ATOM     13  C   UNL     1      30.099 -24.037 -13.494  0.00  0.00    +0.117 C 
ATOM     14  H   UNL     1      28.880 -25.513 -12.707  0.00  0.00    +0.144 HD
ATOM     15  H   UNL     1      28.910 -25.462 -14.411  0.00  0.00    +0.144 HD
ATOM     16  H   UNL     1      30.141 -23.999 -11.491  0.00  0.00    +0.188 HD
ENDBRANCH   5  13
BRANCH   2  18
ATOM     17  O   UNL     1      35.648 -21.656 -14.525  0.00  0.00    -0.270 OA
ATOM     18  N   UNL     1      34.773 -23.509 -15.633  0.00  0.00    -0.280 N 
ATOM     19  C   UNL     1      35.610 -22.868 -14.720  0.00  0.00    +0.249 C 
ATOM     20  H   UNL     1      34.844 -24.490 -15.690  0.00  0.00    +0.155 HD
BRANCH  19  21
ATOM     21  C   UNL     1      36.525 -23.777 -14.004  0.00  0.00    +0.053 C 
ATOM     22  C   UNL     1      37.849 -23.896 -14.395  0.00  0.00    +0.016 C 
ATOM     23  C   UNL     1      36.021 -24.501 -12.935  0.00  0.00    +0.004 C 
ATOM     24  C   UNL     1      38.691 -24.763 -13.700  0.00  0.00    +0.130 C 
ATOM     25  C   UNL     1      38.385 -23.112 -15.549  0.00  0.00    +0.034 C 
ATOM     26  C   UNL     1      36.864 -25.368 -12.239  0.00  0.00    +0.003 C 
ATOM     27  C   UNL     1      38.199 -25.500 -12.621  0.00  0.00    +0.036 C 
BRANCH  24  28
ATOM     28  O   UNL     1      39.999 -24.905 -14.058  0.00  0.00    -0.506 OA
ATOM     29  H   UNL     1      40.456 -24.189 -14.452  0.00  0.00    +0.292 HD
ENDBRANCH  24  28
ENDBRANCH  19  21
ENDBRANCH   2  18
TORSDOF 4
ENDMDL
MODEL 9
REMARK VINA RESULT:      -9.5      3.122      7.218
REMARK  Name = 6852140
REMARK  4 active torsions:
REMARK  status: ('A' for Active; 'I' for Inactive)
REMARK    1  A    between atoms: C_2  and  N_18
REMARK    2  A    between atoms: C_5  and  C_13
REMARK    3  A    between atoms: C_19  and  C_21
REMARK    4  A    between atoms: C_24  and  O_28
REMARK                            x       y       z     vdW  Elec       q    Type
REMARK                         _______ _______ _______ _____ _____    ______ ____
ROOT
ATOM      1  C   UNL     1      35.188 -23.034 -15.456  0.00  0.00    +0.014 C 
ATOM      2  C   UNL     1      34.074 -22.765 -16.269  0.00  0.00    +0.050 C 
ATOM      3  C   UNL     1      36.452 -22.512 -15.820  0.00  0.00    +0.001 C 
ATOM      4  C   UNL     1      35.075 -23.811 -14.291  0.00  0.00    +0.004 C 
ATOM      5  C   UNL     1      36.192 -24.068 -13.496  0.00  0.00    +0.031 C 
ATOM      6  C   UNL     1      37.566 -22.781 -15.007  0.00  0.00    +0.000 C 
ATOM      7  C   UNL     1      34.205 -21.993 -17.423  0.00  0.00    +0.015 C 
ATOM      8  C   UNL     1      36.565 -21.736 -16.985  0.00  0.00    +0.000 C 
ATOM      9  C   UNL     1      37.435 -23.554 -13.853  0.00  0.00    +0.003 C 
ATOM     10  C   UNL     1      35.448 -21.480 -17.780  0.00  0.00    +0.001 C 
ENDROOT
BRANCH   5  13
ATOM     11  N   UNL     1      35.420 -24.378 -11.156  0.00  0.00    -0.343 N 
ATOM     12  N   UNL     1      36.555 -26.096 -12.261  0.00  0.00    -0.285 NA
ATOM     13  C   UNL     1      36.059 -24.873 -12.292  0.00  0.00    +0.117 C 
ATOM     14  H   UNL     1      35.342 -24.940 -10.352  0.00  0.00    +0.144 HD
ATOM     15  H   UNL     1      35.046 -23.467 -11.159  0.00  0.00    +0.144 HD
ATOM     16  H   UNL     1      36.466 -26.643 -11.446  0.00  0.00    +0.188 HD
ENDBRANCH   5  13
BRANCH   2  18
ATOM     17  O   UNL     1      32.179 -21.797 -14.252  0.00  0.00    -0.270 OA
ATOM     18  N   UNL     1      32.799 -23.256 -15.959  0.00  0.00    -0.280 N 
ATOM     19  C   UNL     1      31.938 -22.753 -14.985  0.00  0.00    +0.249 C 
ATOM     20  H   UNL     1      32.481 -24.029 -16.479  0.00  0.00    +0.155 HD
BRANCH  19  21
ATOM     21  C   UNL     1      30.677 -23.506 -14.851  0.00  0.00    +0.053 C 
ATOM     22  C   UNL     1      29.586 -23.204 -15.651  0.00  0.00    +0.016 C 
ATOM     23  C   UNL     1      30.619 -24.520 -13.907  0.00  0.00    +0.004 C 
ATOM     24  C   UNL     1      28.407 -23.933 -15.502  0.00  0.00    +0.130 C 
ATOM     25  C   UNL     1      29.656 -22.109 -16.667  0.00  0.00    +0.034 C 
ATOM     26  C   UNL     1      29.440 -25.249 -13.759  0.00  0.00    +0.003 C 
ATOM     27  C   UNL     1      28.333 -24.956 -14.556  0.00  0.00    +0.036 C 
BRANCH  24  28
ATOM     28  O   UNL     1      27.315 -23.661 -16.272  0.00  0.00    -0.506 OA
ATOM     29  H   UNL     1      27.257 -22.847 -16.731  0.00  0.00    +0.292 HD
ENDBRANCH  24  28
ENDBRANCH  19  21
ENDBRANCH   2  18
TORSDOF 4
ENDMDL
