MODEL 1
REMARK VINA RESULT:     -14.1      0.000      0.000
REMARK  Name = 448407
REMARK  4 active torsions:
REMARK  status: ('A' for Active; 'I' for Inactive)
REMARK    1  A    between atoms: C_1  and  N_8
REMARK    2  A    between atoms: C_2  and  C_23
REMARK    3  A    between atoms: N_22  and  C_25
REMARK    4  A    between atoms: C_25  and  C_28
REMARK                            x       y       z     vdW  Elec       q    Type
REMARK                         _______ _______ _______ _____ _____    ______ ____
ROOT
ATOM      1  C   UNL     1      34.303 -21.584 -18.256  0.00  0.00    +0.090 C 
ATOM      2  C   UNL     1      34.334 -20.042 -20.140  0.00  0.00    +0.055 C 
ATOM      3  C   UNL     1      35.005 -20.746 -19.140  0.00  0.00    +0.023 C 
ATOM      4  C   UNL     1      32.910 -21.697 -18.403  0.00  0.00    +0.018 C 
ATOM      5  C   UNL     1      32.951 -20.165 -20.272  0.00  0.00    +0.005 C 
ATOM      6  C   UNL     1      32.239 -20.993 -19.403  0.00  0.00    +0.002 C 
ENDROOT
BRANCH   1   8
ATOM      7  O   UNL     1      33.585 -24.520 -14.030  0.00  0.00    -0.207 OA
ATOM      8  N   UNL     1      34.972 -22.286 -17.260  0.00  0.00    -0.137 N 
ATOM      9  N   UNL     1      36.136 -21.889 -16.681  0.00  0.00    -0.215 N 
ATOM     10  N   UNL     1      34.226 -23.092 -16.404  0.00  0.00    -0.143 NA
ATOM     11  N   UNL     1      37.004 -22.406 -14.439  0.00  0.00    -0.309 NA
ATOM     12  N   UNL     1      35.583 -23.815 -13.090  0.00  0.00    -0.251 NA
ATOM     13  N   UNL     1      37.600 -23.052 -12.253  0.00  0.00    -0.283 N 
ATOM     14  C   UNL     1      36.195 -22.415 -15.433  0.00  0.00    +0.243 C 
ATOM     15  C   UNL     1      34.940 -23.175 -15.324  0.00  0.00    +0.241 C 
ATOM     16  C   UNL     1      34.639 -23.902 -14.084  0.00  0.00    +0.239 C 
ATOM     17  C   UNL     1      36.681 -23.110 -13.276  0.00  0.00    +0.208 C 
ATOM     18  H   UNL     1      36.819 -21.315 -17.097  0.00  0.00    +0.175 HD
ATOM     19  H   UNL     1      38.429 -22.532 -12.364  0.00  0.00    +0.156 HD
ATOM     20  H   UNL     1      37.427 -23.528 -11.409  0.00  0.00    +0.156 HD
ENDBRANCH   1   8
BRANCH   2  23
ATOM     21  O   UNL     1      36.275 -18.924 -20.834  0.00  0.00    -0.270 OA
ATOM     22  N   UNL     1      34.387 -18.686 -22.161  0.00  0.00    -0.297 N 
ATOM     23  C   UNL     1      35.076 -19.181 -21.047  0.00  0.00    +0.246 C 
ATOM     24  H   UNL     1      33.439 -18.929 -22.266  0.00  0.00    +0.150 HD
BRANCH  22  25
ATOM     25  C   UNL     1      34.993 -17.839 -23.162  0.00  0.00    +0.117 C 
BRANCH  25  28
ATOM     26 CL   UNL     1      33.813 -13.592 -20.403  0.00  0.00    -0.082 Cl
ATOM     27 CL   UNL     1      32.891 -13.826 -25.715  0.00  0.00    -0.082 Cl
ATOM     28  C   UNL     1      34.438 -16.443 -23.127  0.00  0.00    -0.001 C 
ATOM     29  C   UNL     1      33.978 -15.856 -24.301  0.00  0.00    +0.009 C 
ATOM     30  C   UNL     1      34.390 -15.753 -21.922  0.00  0.00    +0.009 C 
ATOM     31  C   UNL     1      33.876 -14.457 -21.889  0.00  0.00    +0.058 C 
ATOM     32  C   UNL     1      33.463 -14.561 -24.269  0.00  0.00    +0.058 C 
ATOM     33  C   UNL     1      33.412 -13.860 -23.063  0.00  0.00    +0.023 C 
ENDBRANCH  25  28
ENDBRANCH  22  25
ENDBRANCH   2  23
TORSDOF 4
ENDMDL
MODEL 2
REMARK VINA RESULT:     -14.0      0.057      1.678
REMARK  Name = 448407
REMARK  4 active torsions:
REMARK  status: ('A' for Active; 'I' for Inactive)
REMARK    1  A    between atoms: C_1  and  N_8
REMARK    2  A    between atoms: C_2  and  C_23
REMARK    3  A    between atoms: N_22  and  C_25
REMARK    4  A    between atoms: C_25  and  C_28
REMARK                            x       y       z     vdW  Elec       q    Type
REMARK                         _______ _______ _______ _____ _____    ______ ____
ROOT
ATOM      1  C   UNL     1      34.327 -21.566 -18.258  0.00  0.00    +0.090 C 
ATOM      2  C   UNL     1      34.336 -20.041 -20.155  0.00  0.00    +0.055 C 
ATOM      3  C   UNL     1      35.018 -20.727 -19.150  0.00  0.00    +0.023 C 
ATOM      4  C   UNL     1      32.936 -21.699 -18.403  0.00  0.00    +0.018 C 
ATOM      5  C   UNL     1      32.955 -20.184 -20.285  0.00  0.00    +0.005 C 
ATOM      6  C   UNL     1      32.255 -21.013 -19.408  0.00  0.00    +0.002 C 
ENDROOT
BRANCH   1   8
ATOM      7  O   UNL     1      33.654 -24.539 -14.051  0.00  0.00    -0.207 OA
ATOM      8  N   UNL     1      35.007 -22.251 -17.258  0.00  0.00    -0.137 N 
ATOM      9  N   UNL     1      36.151 -21.820 -16.664  0.00  0.00    -0.215 N 
ATOM     10  N   UNL     1      34.277 -23.083 -16.412  0.00  0.00    -0.143 NA
ATOM     11  N   UNL     1      37.009 -22.318 -14.413  0.00  0.00    -0.309 NA
ATOM     12  N   UNL     1      35.618 -23.776 -13.085  0.00  0.00    -0.251 NA
ATOM     13  N   UNL     1      37.600 -22.953 -12.223  0.00  0.00    -0.283 N 
ATOM     14  C   UNL     1      36.212 -22.349 -15.416  0.00  0.00    +0.243 C 
ATOM     15  C   UNL     1      34.980 -23.148 -15.325  0.00  0.00    +0.241 C 
ATOM     16  C   UNL     1      34.688 -23.889 -14.091  0.00  0.00    +0.239 C 
ATOM     17  C   UNL     1      36.696 -23.036 -13.257  0.00  0.00    +0.208 C 
ATOM     18  H   UNL     1      36.821 -21.224 -17.069  0.00  0.00    +0.175 HD
ATOM     19  H   UNL     1      38.414 -22.408 -12.323  0.00  0.00    +0.156 HD
ATOM     20  H   UNL     1      37.433 -23.438 -11.383  0.00  0.00    +0.156 HD
ENDBRANCH   1   8
BRANCH   2  23
ATOM     21  O   UNL     1      36.253 -18.881 -20.846  0.00  0.00    -0.270 OA
ATOM     22  N   UNL     1      34.379 -18.728 -22.205  0.00  0.00    -0.297 N 
ATOM     23  C   UNL     1      35.066 -19.177 -21.070  0.00  0.00    +0.246 C 
ATOM     24  H   UNL     1      33.441 -19.001 -22.319  0.00  0.00    +0.150 HD
BRANCH  22  25
ATOM     25  C   UNL     1      34.974 -17.885 -23.216  0.00  0.00    +0.117 C 
BRANCH  25  28
ATOM     26 CL   UNL     1      32.868 -13.844 -25.722  0.00  0.00    -0.082 Cl
ATOM     27 CL   UNL     1      33.887 -13.633 -20.427  0.00  0.00    -0.082 Cl
ATOM     28  C   UNL     1      34.435 -16.484 -23.168  0.00  0.00    -0.001 C 
ATOM     29  C   UNL     1      34.415 -15.795 -21.960  0.00  0.00    +0.009 C 
ATOM     30  C   UNL     1      33.960 -15.890 -24.331  0.00  0.00    +0.009 C 
ATOM     31  C   UNL     1      33.459 -14.589 -24.287  0.00  0.00    +0.058 C 
ATOM     32  C   UNL     1      33.915 -14.494 -21.916  0.00  0.00    +0.058 C 
ATOM     33  C   UNL     1      33.436 -13.891 -23.079  0.00  0.00    +0.023 C 
ENDBRANCH  25  28
ENDBRANCH  22  25
ENDBRANCH   2  23
TORSDOF 4
ENDMDL
MODEL 3
REMARK VINA RESULT:     -13.7      4.772     10.341
REMARK  Name = 448407
REMARK  4 active torsions:
REMARK  status: ('A' for Active; 'I' for Inactive)
REMARK    1  A    between atoms: C_1  and  N_8
REMARK    2  A    between atoms: C_2  and  C_23
REMARK    3  A    between atoms: N_22  and  C_25
REMARK    4  A    between atoms: C_25  and  C_28
REMARK                            x       y       z     vdW  Elec       q    Type
REMARK                         _______ _______ _______ _____ _____    ______ ____
ROOT
ATOM      1  C   UNL     1      35.097 -18.057 -21.362  0.00  0.00    +0.090 C 
ATOM      2  C   UNL     1      34.096 -19.909 -20.142  0.00  0.00    +0.055 C 
ATOM      3  C   UNL     1      33.963 -18.742 -20.893  0.00  0.00    +0.023 C 
ATOM      4  C   UNL     1      36.368 -18.575 -21.058  0.00  0.00    +0.018 C 
ATOM      5  C   UNL     1      35.364 -20.410 -19.848  0.00  0.00    +0.005 C 
ATOM      6  C   UNL     1      36.500 -19.742 -20.306  0.00  0.00    +0.002 C 
ENDROOT
BRANCH   1   8
ATOM      7  O   UNL     1      33.461 -13.130 -21.157  0.00  0.00    -0.207 OA
ATOM      8  N   UNL     1      34.965 -16.894 -22.113  0.00  0.00    -0.137 N 
ATOM      9  N   UNL     1      34.639 -16.857 -23.432  0.00  0.00    -0.215 N 
ATOM     10  N   UNL     1      34.582 -15.725 -21.460  0.00  0.00    -0.143 NA
ATOM     11  N   UNL     1      33.522 -15.070 -24.700  0.00  0.00    -0.309 NA
ATOM     12  N   UNL     1      32.928 -13.117 -23.412  0.00  0.00    -0.251 NA
ATOM     13  N   UNL     1      32.443 -13.215 -25.672  0.00  0.00    -0.283 N 
ATOM     14  C   UNL     1      34.033 -15.671 -23.690  0.00  0.00    +0.243 C 
ATOM     15  C   UNL     1      34.032 -14.997 -22.383  0.00  0.00    +0.241 C 
ATOM     16  C   UNL     1      33.446 -13.656 -22.259  0.00  0.00    +0.239 C 
ATOM     17  C   UNL     1      32.973 -13.795 -24.542  0.00  0.00    +0.208 C 
ATOM     18  H   UNL     1      34.811 -17.570 -24.088  0.00  0.00    +0.175 HD
ATOM     19  H   UNL     1      32.462 -13.698 -26.530  0.00  0.00    +0.156 HD
ATOM     20  H   UNL     1      32.042 -12.317 -25.622  0.00  0.00    +0.156 HD
ENDBRANCH   1   8
BRANCH   2  23
ATOM     21  O   UNL     1      31.842 -20.535 -20.296  0.00  0.00    -0.270 OA
ATOM     22  N   UNL     1      33.048 -21.365 -18.496  0.00  0.00    -0.297 N 
ATOM     23  C   UNL     1      32.912 -20.607 -19.666  0.00  0.00    +0.246 C 
ATOM     24  H   UNL     1      33.924 -21.376 -18.049  0.00  0.00    +0.150 HD
BRANCH  22  25
ATOM     25  C   UNL     1      31.971 -22.131 -17.913  0.00  0.00    +0.117 C 
BRANCH  25  28
ATOM     26 CL   UNL     1      30.478 -23.575 -13.146  0.00  0.00    -0.082 Cl
ATOM     27 CL   UNL     1      35.635 -23.933 -14.693  0.00  0.00    -0.082 Cl
ATOM     28  C   UNL     1      32.338 -22.679 -16.563  0.00  0.00    -0.001 C 
ATOM     29  C   UNL     1      33.660 -23.011 -16.292  0.00  0.00    +0.009 C 
ATOM     30  C   UNL     1      31.351 -22.849 -15.599  0.00  0.00    +0.009 C 
ATOM     31  C   UNL     1      31.691 -23.359 -14.346  0.00  0.00    +0.058 C 
ATOM     32  C   UNL     1      34.001 -23.520 -15.040  0.00  0.00    +0.058 C 
ATOM     33  C   UNL     1      33.016 -23.695 -14.066  0.00  0.00    +0.023 C 
ENDBRANCH  25  28
ENDBRANCH  22  25
ENDBRANCH   2  23
TORSDOF 4
ENDMDL
MODEL 4
REMARK VINA RESULT:     -13.7      4.769     10.357
REMARK  Name = 448407
REMARK  4 active torsions:
REMARK  status: ('A' for Active; 'I' for Inactive)
REMARK    1  A    between atoms: C_1  and  N_8
REMARK    2  A    between atoms: C_2  and  C_23
REMARK    3  A    between atoms: N_22  and  C_25
REMARK    4  A    between atoms: C_25  and  C_28
REMARK                            x       y       z     vdW  Elec       q    Type
REMARK                         _______ _______ _______ _____ _____    ______ ____
ROOT
ATOM      1  C   UNL     1      35.102 -18.044 -21.381  0.00  0.00    +0.090 C 
ATOM      2  C   UNL     1      34.098 -19.895 -20.160  0.00  0.00    +0.055 C 
ATOM      3  C   UNL     1      33.967 -18.727 -20.911  0.00  0.00    +0.023 C 
ATOM      4  C   UNL     1      36.372 -18.563 -21.077  0.00  0.00    +0.018 C 
ATOM      5  C   UNL     1      35.366 -20.397 -19.867  0.00  0.00    +0.005 C 
ATOM      6  C   UNL     1      36.503 -19.731 -20.325  0.00  0.00    +0.002 C 
ENDROOT
BRANCH   1   8
ATOM      7  O   UNL     1      33.496 -13.107 -21.168  0.00  0.00    -0.207 OA
ATOM      8  N   UNL     1      34.971 -16.881 -22.132  0.00  0.00    -0.137 N 
ATOM      9  N   UNL     1      34.635 -16.843 -23.448  0.00  0.00    -0.215 N 
ATOM     10  N   UNL     1      34.599 -15.709 -21.477  0.00  0.00    -0.143 NA
ATOM     11  N   UNL     1      33.519 -15.051 -24.710  0.00  0.00    -0.309 NA
ATOM     12  N   UNL     1      32.946 -13.093 -23.420  0.00  0.00    -0.251 NA
ATOM     13  N   UNL     1      32.443 -13.190 -25.675  0.00  0.00    -0.283 N 
ATOM     14  C   UNL     1      34.034 -15.654 -23.703  0.00  0.00    +0.243 C 
ATOM     15  C   UNL     1      34.047 -14.979 -22.396  0.00  0.00    +0.241 C 
ATOM     16  C   UNL     1      33.469 -13.635 -22.270  0.00  0.00    +0.239 C 
ATOM     17  C   UNL     1      32.979 -13.773 -24.549  0.00  0.00    +0.208 C 
ATOM     18  H   UNL     1      34.798 -17.558 -24.105  0.00  0.00    +0.175 HD
ATOM     19  H   UNL     1      32.453 -13.674 -26.533  0.00  0.00    +0.156 HD
ATOM     20  H   UNL     1      32.048 -12.290 -25.623  0.00  0.00    +0.156 HD
ENDBRANCH   1   8
BRANCH   2  23
ATOM     21  O   UNL     1      31.844 -20.522 -20.315  0.00  0.00    -0.270 OA
ATOM     22  N   UNL     1      33.048 -21.344 -18.511  0.00  0.00    -0.297 N 
ATOM     23  C   UNL     1      32.914 -20.590 -19.683  0.00  0.00    +0.246 C 
ATOM     24  H   UNL     1      33.923 -21.353 -18.061  0.00  0.00    +0.150 HD
BRANCH  22  25
ATOM     25  C   UNL     1      31.970 -22.108 -17.926  0.00  0.00    +0.117 C 
BRANCH  25  28
ATOM     26 CL   UNL     1      35.638 -23.890 -14.699  0.00  0.00    -0.082 Cl
ATOM     27 CL   UNL     1      30.475 -23.564 -13.163  0.00  0.00    -0.082 Cl
ATOM     28  C   UNL     1      32.336 -22.655 -16.576  0.00  0.00    -0.001 C 
ATOM     29  C   UNL     1      31.349 -22.832 -15.614  0.00  0.00    +0.009 C 
ATOM     30  C   UNL     1      33.660 -22.979 -16.302  0.00  0.00    +0.009 C 
ATOM     31  C   UNL     1      34.002 -23.486 -15.049  0.00  0.00    +0.058 C 
ATOM     32  C   UNL     1      31.689 -23.340 -14.361  0.00  0.00    +0.058 C 
ATOM     33  C   UNL     1      33.016 -23.667 -14.077  0.00  0.00    +0.023 C 
ENDBRANCH  25  28
ENDBRANCH  22  25
ENDBRANCH   2  23
TORSDOF 4
ENDMDL
MODEL 5
REMARK VINA RESULT:     -13.4      2.614      3.808
REMARK  Name = 448407
REMARK  4 active torsions:
REMARK  status: ('A' for Active; 'I' for Inactive)
REMARK    1  A    between atoms: C_1  and  N_8
REMARK    2  A    between atoms: C_2  and  C_23
REMARK    3  A    between atoms: N_22  and  C_25
REMARK    4  A    between atoms: C_25  and  C_28
REMARK                            x       y       z     vdW  Elec       q    Type
REMARK                         _______ _______ _______ _____ _____    ______ ____
ROOT
ATOM      1  C   UNL     1      33.842 -21.656 -18.330  0.00  0.00    +0.090 C 
ATOM      2  C   UNL     1      34.289 -20.270 -20.281  0.00  0.00    +0.055 C 
ATOM      3  C   UNL     1      33.405 -21.018 -19.504  0.00  0.00    +0.023 C 
ATOM      4  C   UNL     1      35.191 -21.521 -17.956  0.00  0.00    +0.018 C 
ATOM      5  C   UNL     1      35.623 -20.146 -19.895  0.00  0.00    +0.005 C 
ATOM      6  C   UNL     1      36.074 -20.772 -18.733  0.00  0.00    +0.002 C 
ENDROOT
BRANCH   1   8
ATOM      7  O   UNL     1      28.880 -21.997 -16.830  0.00  0.00    -0.207 OA
ATOM      8  N   UNL     1      32.961 -22.401 -17.555  0.00  0.00    -0.137 N 
ATOM      9  N   UNL     1      33.272 -22.970 -16.360  0.00  0.00    -0.215 N 
ATOM     10  N   UNL     1      31.599 -22.123 -17.648  0.00  0.00    -0.143 NA
ATOM     11  N   UNL     1      31.789 -23.521 -14.477  0.00  0.00    -0.309 NA
ATOM     12  N   UNL     1      29.463 -22.971 -14.809  0.00  0.00    -0.251 NA
ATOM     13  N   UNL     1      30.159 -23.944 -12.830  0.00  0.00    -0.283 N 
ATOM     14  C   UNL     1      32.134 -23.084 -15.631  0.00  0.00    +0.243 C 
ATOM     15  C   UNL     1      31.103 -22.522 -16.518  0.00  0.00    +0.241 C 
ATOM     16  C   UNL     1      29.707 -22.472 -16.066  0.00  0.00    +0.239 C 
ATOM     17  C   UNL     1      30.451 -23.455 -14.083  0.00  0.00    +0.208 C 
ATOM     18  H   UNL     1      34.170 -23.251 -16.072  0.00  0.00    +0.175 HD
ATOM     19  H   UNL     1      30.877 -24.312 -12.264  0.00  0.00    +0.156 HD
ATOM     20  H   UNL     1      29.232 -23.925 -12.497  0.00  0.00    +0.156 HD
ENDBRANCH   1   8
BRANCH   2  23
ATOM     21  O   UNL     1      32.601 -19.514 -21.722  0.00  0.00    -0.270 OA
ATOM     22  N   UNL     1      34.793 -19.098 -22.353  0.00  0.00    -0.297 N 
ATOM     23  C   UNL     1      33.819 -19.616 -21.492  0.00  0.00    +0.246 C 
ATOM     24  H   UNL     1      35.739 -19.215 -22.110  0.00  0.00    +0.150 HD
BRANCH  22  25
ATOM     25  C   UNL     1      34.484 -18.402 -23.581  0.00  0.00    +0.117 C 
BRANCH  25  28
ATOM     26 CL   UNL     1      33.008 -13.799 -25.497  0.00  0.00    -0.082 Cl
ATOM     27 CL   UNL     1      34.151 -14.415 -20.259  0.00  0.00    -0.082 Cl
ATOM     28  C   UNL     1      34.179 -16.951 -23.343  0.00  0.00    -0.001 C 
ATOM     29  C   UNL     1      34.294 -16.424 -22.062  0.00  0.00    +0.009 C 
ATOM     30  C   UNL     1      33.783 -16.149 -24.407  0.00  0.00    +0.009 C 
ATOM     31  C   UNL     1      33.499 -14.801 -24.187  0.00  0.00    +0.058 C 
ATOM     32  C   UNL     1      34.011 -15.077 -21.841  0.00  0.00    +0.058 C 
ATOM     33  C   UNL     1      33.612 -14.265 -22.904  0.00  0.00    +0.023 C 
ENDBRANCH  25  28
ENDBRANCH  22  25
ENDBRANCH   2  23
TORSDOF 4
ENDMDL
MODEL 6
REMARK VINA RESULT:     -13.1      5.544     10.837
REMARK  Name = 448407
REMARK  4 active torsions:
REMARK  status: ('A' for Active; 'I' for Inactive)
REMARK    1  A    between atoms: C_1  and  N_8
REMARK    2  A    between atoms: C_2  and  C_23
REMARK    3  A    between atoms: N_22  and  C_25
REMARK    4  A    between atoms: C_25  and  C_28
REMARK                            x       y       z     vdW  Elec       q    Type
REMARK                         _______ _______ _______ _____ _____    ______ ____
ROOT
ATOM      1  C   UNL     1      32.734 -13.566 -22.939  0.00  0.00    +0.090 C 
ATOM      2  C   UNL     1      34.159 -15.511 -22.605  0.00  0.00    +0.055 C 
ATOM      3  C   UNL     1      33.465 -14.416 -22.091  0.00  0.00    +0.023 C 
ATOM      4  C   UNL     1      32.718 -13.845 -24.317  0.00  0.00    +0.018 C 
ATOM      5  C   UNL     1      34.132 -15.774 -23.974  0.00  0.00    +0.005 C 
ATOM      6  C   UNL     1      33.412 -14.940 -24.830  0.00  0.00    +0.002 C 
ENDROOT
BRANCH   1   8
ATOM      7  O   UNL     1      32.031  -8.447 -23.488  0.00  0.00    -0.207 OA
ATOM      8  N   UNL     1      32.042 -12.475 -22.427  0.00  0.00    -0.137 N 
ATOM      9  N   UNL     1      31.761 -12.285 -21.111  0.00  0.00    -0.215 N 
ATOM     10  N   UNL     1      32.114 -11.264 -23.112  0.00  0.00    -0.143 NA
ATOM     11  N   UNL     1      31.390 -10.180 -19.895  0.00  0.00    -0.309 NA
ATOM     12  N   UNL     1      31.552  -8.180 -21.236  0.00  0.00    -0.251 NA
ATOM     13  N   UNL     1      31.078  -8.032 -18.977  0.00  0.00    -0.283 N 
ATOM     14  C   UNL     1      31.639 -10.953 -20.886  0.00  0.00    +0.243 C 
ATOM     15  C   UNL     1      31.877 -10.361 -22.211  0.00  0.00    +0.241 C 
ATOM     16  C   UNL     1      31.827  -8.902 -22.372  0.00  0.00    +0.239 C 
ATOM     17  C   UNL     1      31.352  -8.797 -20.088  0.00  0.00    +0.208 C 
ATOM     18  H   UNL     1      31.663 -12.994 -20.435  0.00  0.00    +0.175 HD
ATOM     19  H   UNL     1      30.925  -8.466 -18.106  0.00  0.00    +0.156 HD
ATOM     20  H   UNL     1      31.038  -7.052 -19.052  0.00  0.00    +0.156 HD
ENDBRANCH   1   8
BRANCH   2  23
ATOM     21  O   UNL     1      34.814 -16.253 -20.479  0.00  0.00    -0.270 OA
ATOM     22  N   UNL     1      35.705 -17.367 -22.308  0.00  0.00    -0.297 N 
ATOM     23  C   UNL     1      34.908 -16.382 -21.713  0.00  0.00    +0.246 C 
ATOM     24  H   UNL     1      35.734 -17.412 -23.290  0.00  0.00    +0.150 HD
BRANCH  22  25
ATOM     25  C   UNL     1      36.489 -18.320 -21.556  0.00  0.00    +0.117 C 
BRANCH  25  28
ATOM     26 CL   UNL     1      36.084 -21.757 -17.675  0.00  0.00    -0.082 Cl
ATOM     27 CL   UNL     1      31.786 -20.325 -20.608  0.00  0.00    -0.082 Cl
ATOM     28  C   UNL     1      35.626 -19.239 -20.741  0.00  0.00    -0.001 C 
ATOM     29  C   UNL     1      34.269 -19.339 -21.023  0.00  0.00    +0.009 C 
ATOM     30  C   UNL     1      36.193 -19.981 -19.711  0.00  0.00    +0.009 C 
ATOM     31  C   UNL     1      35.392 -20.835 -18.953  0.00  0.00    +0.058 C 
ATOM     32  C   UNL     1      33.467 -20.193 -20.266  0.00  0.00    +0.058 C 
ATOM     33  C   UNL     1      34.029 -20.941 -19.230  0.00  0.00    +0.023 C 
ENDBRANCH  25  28
ENDBRANCH  22  25
ENDBRANCH   2  23
TORSDOF 4
ENDMDL
MODEL 7
REMARK VINA RESULT:     -13.1      5.472     11.205
REMARK  Name = 448407
REMARK  4 active torsions:
REMARK  status: ('A' for Active; 'I' for Inactive)
REMARK    1  A    between atoms: C_1  and  N_8
REMARK    2  A    between atoms: C_2  and  C_23
REMARK    3  A    between atoms: N_22  and  C_25
REMARK    4  A    between atoms: C_25  and  C_28
REMARK                            x       y       z     vdW  Elec       q    Type
REMARK                         _______ _______ _______ _____ _____    ______ ____
ROOT
ATOM      1  C   UNL     1      33.477 -13.605 -23.128  0.00  0.00    +0.090 C 
ATOM      2  C   UNL     1      34.386 -15.800 -22.599  0.00  0.00    +0.055 C 
ATOM      3  C   UNL     1      34.130 -14.477 -22.239  0.00  0.00    +0.023 C 
ATOM      4  C   UNL     1      33.089 -14.096 -24.386  0.00  0.00    +0.018 C 
ATOM      5  C   UNL     1      33.994 -16.271 -23.852  0.00  0.00    +0.005 C 
ATOM      6  C   UNL     1      33.345 -15.418 -24.745  0.00  0.00    +0.002 C 
ENDROOT
BRANCH   1   8
ATOM      7  O   UNL     1      29.875 -10.473 -21.075  0.00  0.00    -0.207 OA
ATOM      8  N   UNL     1      33.220 -12.286 -22.769  0.00  0.00    -0.137 N 
ATOM      9  N   UNL     1      33.648 -11.198 -23.462  0.00  0.00    -0.215 N 
ATOM     10  N   UNL     1      32.058 -12.010 -22.053  0.00  0.00    -0.143 NA
ATOM     11  N   UNL     1      32.657  -8.950 -23.578  0.00  0.00    -0.309 NA
ATOM     12  N   UNL     1      30.648  -8.647 -22.276  0.00  0.00    -0.251 NA
ATOM     13  N   UNL     1      31.510  -6.893 -23.514  0.00  0.00    -0.283 N 
ATOM     14  C   UNL     1      32.788 -10.176 -23.228  0.00  0.00    +0.243 C 
ATOM     15  C   UNL     1      31.796 -10.767 -22.317  0.00  0.00    +0.241 C 
ATOM     16  C   UNL     1      30.680  -9.946 -21.829  0.00  0.00    +0.239 C 
ATOM     17  C   UNL     1      31.582  -8.202 -23.093  0.00  0.00    +0.208 C 
ATOM     18  H   UNL     1      34.446 -11.159 -24.038  0.00  0.00    +0.175 HD
ATOM     19  H   UNL     1      32.193  -6.533 -24.125  0.00  0.00    +0.156 HD
ATOM     20  H   UNL     1      30.773  -6.317 -23.205  0.00  0.00    +0.156 HD
ENDBRANCH   1   8
BRANCH   2  23
ATOM     21  O   UNL     1      34.908 -16.552 -20.440  0.00  0.00    -0.270 OA
ATOM     22  N   UNL     1      35.856 -17.702 -22.217  0.00  0.00    -0.297 N 
ATOM     23  C   UNL     1      35.061 -16.690 -21.667  0.00  0.00    +0.246 C 
ATOM     24  H   UNL     1      35.933 -17.753 -23.196  0.00  0.00    +0.150 HD
BRANCH  22  25
ATOM     25  C   UNL     1      36.570 -18.676 -21.423  0.00  0.00    +0.117 C 
BRANCH  25  28
ATOM     26 CL   UNL     1      31.748 -20.399 -20.517  0.00  0.00    -0.082 Cl
ATOM     27 CL   UNL     1      35.890 -21.903 -17.403  0.00  0.00    -0.082 Cl
ATOM     28  C   UNL     1      35.641 -19.512 -20.591  0.00  0.00    -0.001 C 
ATOM     29  C   UNL     1      36.142 -20.232 -19.513  0.00  0.00    +0.009 C 
ATOM     30  C   UNL     1      34.288 -19.558 -20.907  0.00  0.00    +0.009 C 
ATOM     31  C   UNL     1      33.424 -20.335 -20.134  0.00  0.00    +0.058 C 
ATOM     32  C   UNL     1      35.280 -21.009 -18.740  0.00  0.00    +0.058 C 
ATOM     33  C   UNL     1      33.920 -21.061 -19.050  0.00  0.00    +0.023 C 
ENDBRANCH  25  28
ENDBRANCH  22  25
ENDBRANCH   2  23
TORSDOF 4
ENDMDL
MODEL 8
REMARK VINA RESULT:     -12.3      3.963      5.767
REMARK  Name = 448407
REMARK  4 active torsions:
REMARK  status: ('A' for Active; 'I' for Inactive)
REMARK    1  A    between atoms: C_1  and  N_8
REMARK    2  A    between atoms: C_2  and  C_23
REMARK    3  A    between atoms: N_22  and  C_25
REMARK    4  A    between atoms: C_25  and  C_28
REMARK                            x       y       z     vdW  Elec       q    Type
REMARK                         _______ _______ _______ _____ _____    ______ ____
ROOT
ATOM      1  C   UNL     1      32.381 -24.186 -13.853  0.00  0.00    +0.090 C 
ATOM      2  C   UNL     1      30.800 -23.156 -15.391  0.00  0.00    +0.055 C 
ATOM      3  C   UNL     1      32.113 -23.440 -15.015  0.00  0.00    +0.023 C 
ATOM      4  C   UNL     1      31.297 -24.639 -13.082  0.00  0.00    +0.018 C 
ATOM      5  C   UNL     1      29.736 -23.613 -14.615  0.00  0.00    +0.005 C 
ATOM      6  C   UNL     1      29.985 -24.355 -13.459  0.00  0.00    +0.002 C 
ENDROOT
BRANCH   1   8
ATOM      7  O   UNL     1      36.460 -22.326 -11.227  0.00  0.00    -0.207 OA
ATOM      8  N   UNL     1      33.689 -24.471 -13.478  0.00  0.00    -0.137 N 
ATOM      9  N   UNL     1      34.595 -25.116 -14.259  0.00  0.00    -0.215 N 
ATOM     10  N   UNL     1      34.314 -23.627 -12.564  0.00  0.00    -0.143 NA
ATOM     11  N   UNL     1      37.049 -24.963 -14.231  0.00  0.00    -0.309 NA
ATOM     12  N   UNL     1      37.963 -23.454 -12.585  0.00  0.00    -0.251 NA
ATOM     13  N   UNL     1      39.370 -24.630 -13.994  0.00  0.00    -0.283 N 
ATOM     14  C   UNL     1      35.838 -24.721 -13.889  0.00  0.00    +0.243 C 
ATOM     15  C   UNL     1      35.582 -23.768 -12.798  0.00  0.00    +0.241 C 
ATOM     16  C   UNL     1      36.713 -23.113 -12.127  0.00  0.00    +0.239 C 
ATOM     17  C   UNL     1      38.098 -24.319 -13.570  0.00  0.00    +0.208 C 
ATOM     18  H   UNL     1      34.385 -25.760 -14.973  0.00  0.00    +0.175 HD
ATOM     19  H   UNL     1      39.501 -25.274 -14.728  0.00  0.00    +0.156 HD
ATOM     20  H   UNL     1      40.149 -24.208 -13.564  0.00  0.00    +0.156 HD
ENDBRANCH   1   8
BRANCH   2  23
ATOM     21  O   UNL     1      29.390 -21.989 -16.857  0.00  0.00    -0.270 OA
ATOM     22  N   UNL     1      31.639 -22.098 -17.417  0.00  0.00    -0.297 N 
ATOM     23  C   UNL     1      30.541 -22.384 -16.597  0.00  0.00    +0.246 C 
ATOM     24  H   UNL     1      32.521 -22.443 -17.151  0.00  0.00    +0.150 HD
BRANCH  22  25
ATOM     25  C   UNL     1      31.545 -21.324 -18.633  0.00  0.00    +0.117 C 
BRANCH  25  28
ATOM     26 CL   UNL     1      36.717 -21.441 -18.107  0.00  0.00    -0.082 Cl
ATOM     27 CL   UNL     1      34.381 -18.895 -22.252  0.00  0.00    -0.082 Cl
ATOM     28  C   UNL     1      32.898 -20.933 -19.156  0.00  0.00    -0.001 C 
ATOM     29  C   UNL     1      32.994 -20.185 -20.324  0.00  0.00    +0.009 C 
ATOM     30  C   UNL     1      34.040 -21.324 -18.467  0.00  0.00    +0.009 C 
ATOM     31  C   UNL     1      35.297 -20.961 -18.952  0.00  0.00    +0.058 C 
ATOM     32  C   UNL     1      34.250 -19.822 -20.809  0.00  0.00    +0.058 C 
ATOM     33  C   UNL     1      35.402 -20.210 -20.123  0.00  0.00    +0.023 C 
ENDBRANCH  25  28
ENDBRANCH  22  25
ENDBRANCH   2  23
TORSDOF 4
ENDMDL
MODEL 9
REMARK VINA RESULT:     -12.2      3.962      5.975
REMARK  Name = 448407
REMARK  4 active torsions:
REMARK  status: ('A' for Active; 'I' for Inactive)
REMARK    1  A    between atoms: C_1  and  N_8
REMARK    2  A    between atoms: C_2  and  C_23
REMARK    3  A    between atoms: N_22  and  C_25
REMARK    4  A    between atoms: C_25  and  C_28
REMARK                            x       y       z     vdW  Elec       q    Type
REMARK                         _______ _______ _______ _____ _____    ______ ____
ROOT
ATOM      1  C   UNL     1      32.366 -24.174 -13.820  0.00  0.00    +0.090 C 
ATOM      2  C   UNL     1      30.770 -23.151 -15.347  0.00  0.00    +0.055 C 
ATOM      3  C   UNL     1      32.085 -23.443 -14.988  0.00  0.00    +0.023 C 
ATOM      4  C   UNL     1      31.291 -24.605 -13.024  0.00  0.00    +0.018 C 
ATOM      5  C   UNL     1      29.715 -23.586 -14.545  0.00  0.00    +0.005 C 
ATOM      6  C   UNL     1      29.976 -24.313 -13.383  0.00  0.00    +0.002 C 
ENDROOT
BRANCH   1   8
ATOM      7  O   UNL     1      36.469 -22.369 -11.194  0.00  0.00    -0.207 OA
ATOM      8  N   UNL     1      33.677 -24.467 -13.463  0.00  0.00    -0.137 N 
ATOM      9  N   UNL     1      34.576 -25.096 -14.266  0.00  0.00    -0.215 N 
ATOM     10  N   UNL     1      34.311 -23.642 -12.537  0.00  0.00    -0.143 NA
ATOM     11  N   UNL     1      37.031 -24.943 -14.257  0.00  0.00    -0.309 NA
ATOM     12  N   UNL     1      37.960 -23.468 -12.588  0.00  0.00    -0.251 NA
ATOM     13  N   UNL     1      39.353 -24.615 -14.034  0.00  0.00    -0.283 N 
ATOM     14  C   UNL     1      35.823 -24.709 -13.898  0.00  0.00    +0.243 C 
ATOM     15  C   UNL     1      35.576 -23.778 -12.786  0.00  0.00    +0.241 C 
ATOM     16  C   UNL     1      36.714 -23.138 -12.112  0.00  0.00    +0.239 C 
ATOM     17  C   UNL     1      38.085 -24.313 -13.592  0.00  0.00    +0.208 C 
ATOM     18  H   UNL     1      34.359 -25.725 -14.991  0.00  0.00    +0.175 HD
ATOM     19  H   UNL     1      39.478 -25.243 -14.783  0.00  0.00    +0.156 HD
ATOM     20  H   UNL     1      40.136 -24.202 -13.604  0.00  0.00    +0.156 HD
ENDBRANCH   1   8
BRANCH   2  23
ATOM     21  O   UNL     1      29.340 -22.020 -16.822  0.00  0.00    -0.270 OA
ATOM     22  N   UNL     1      31.590 -22.098 -17.382  0.00  0.00    -0.297 N 
ATOM     23  C   UNL     1      30.497 -22.394 -16.559  0.00  0.00    +0.246 C 
ATOM     24  H   UNL     1      32.477 -22.426 -17.113  0.00  0.00    +0.150 HD
BRANCH  22  25
ATOM     25  C   UNL     1      31.483 -21.337 -18.606  0.00  0.00    +0.117 C 
BRANCH  25  28
ATOM     26 CL   UNL     1      34.274 -18.851 -22.221  0.00  0.00    -0.082 Cl
ATOM     27 CL   UNL     1      36.661 -21.459 -18.144  0.00  0.00    -0.082 Cl
ATOM     28  C   UNL     1      32.830 -20.938 -19.138  0.00  0.00    -0.001 C 
ATOM     29  C   UNL     1      33.981 -21.338 -18.469  0.00  0.00    +0.009 C 
ATOM     30  C   UNL     1      32.911 -20.172 -20.295  0.00  0.00    +0.009 C 
ATOM     31  C   UNL     1      34.162 -19.800 -20.790  0.00  0.00    +0.058 C 
ATOM     32  C   UNL     1      35.231 -20.968 -18.964  0.00  0.00    +0.058 C 
ATOM     33  C   UNL     1      35.322 -20.198 -20.125  0.00  0.00    +0.023 C 
ENDBRANCH  25  28
ENDBRANCH  22  25
ENDBRANCH   2  23
TORSDOF 4
ENDMDL
