MODEL 1
REMARK VINA RESULT:     -12.8      0.000      0.000
REMARK  Name = 24941248
REMARK  7 active torsions:
REMARK  status: ('A' for Active; 'I' for Inactive)
REMARK    1  A    between atoms: N_2  and  C_24
REMARK    2  A    between atoms: C_6  and  C_14
REMARK    3  A    between atoms: C_13  and  C_19
REMARK    4  A    between atoms: C_19  and  C_20
REMARK    5  A    between atoms: C_20  and  C_21
REMARK    6  A    between atoms: C_21  and  O_22
REMARK    7  A    between atoms: C_24  and  C_26
REMARK                            x       y       z     vdW  Elec       q    Type
REMARK                         _______ _______ _______ _____ _____    ______ ____
ROOT
ATOM      1  O   UNL     1      30.962 -23.562 -14.571  0.00  0.00    -0.352 OA
ATOM      2  N   UNL     1      33.942 -21.589 -18.659  0.00  0.00    -0.316 N 
ATOM      3  N   UNL     1      31.922 -23.987 -13.660  0.00  0.00    -0.077 NA
ATOM      4  N   UNL     1      31.775 -22.030 -17.774  0.00  0.00    -0.226 NA
ATOM      5  C   UNL     1      32.953 -23.105 -15.495  0.00  0.00    +0.062 A 
ATOM      6  C   UNL     1      33.099 -23.706 -14.229  0.00  0.00    +0.123 A 
ATOM      7  C   UNL     1      33.122 -22.093 -17.615  0.00  0.00    +0.129 C 
ATOM      8  C   UNL     1      33.781 -22.616 -16.506  0.00  0.00    +0.039 C 
ATOM      9  C   UNL     1      31.580 -23.038 -15.662  0.00  0.00    +0.196 A 
ATOM     10  C   UNL     1      30.978 -22.506 -16.787  0.00  0.00    +0.140 C 
ATOM     11  H   UNL     1      34.920 -21.629 -18.554  0.00  0.00    +0.148 HD
ENDROOT
BRANCH   6  14
ATOM     12 CL   UNL     1      35.899 -23.515  -9.904  0.00  0.00    -0.082 Cl
ATOM     13  C   UNL     1      36.541 -24.988 -13.567  0.00  0.00    -0.021 C 
ATOM     14  C   UNL     1      34.328 -24.019 -13.549  0.00  0.00    +0.021 C 
ATOM     15  C   UNL     1      35.350 -24.684 -14.226  0.00  0.00    -0.003 C 
ATOM     16  C   UNL     1      36.710 -24.626 -12.231  0.00  0.00    +0.007 C 
ATOM     17  C   UNL     1      34.498 -23.657 -12.212  0.00  0.00    +0.013 C 
ATOM     18  C   UNL     1      35.689 -23.961 -11.553  0.00  0.00    +0.057 C 
BRANCH  13  19
ATOM     19  C   UNL     1      37.633 -25.700 -14.291  0.00  0.00    +0.029 C 
BRANCH  19  20
ATOM     20  C   UNL     1      39.011 -25.438 -13.668  0.00  0.00    +0.036 C 
BRANCH  20  21
ATOM     21  C   UNL     1      39.976 -24.802 -14.658  0.00  0.00    +0.138 C 
BRANCH  21  22
ATOM     22  O   UNL     1      40.048 -25.619 -15.819  0.00  0.00    -0.382 OA
ATOM     23  H   UNL     1      40.542 -25.153 -16.511  0.00  0.00    +0.210 HD
ENDBRANCH  21  22
ENDBRANCH  20  21
ENDBRANCH  19  20
ENDBRANCH  13  19
ENDBRANCH   6  14
BRANCH   2  24
ATOM     24  C   UNL     1      33.405 -21.028 -19.854  0.00  0.00    +0.093 C 
ATOM     25  C   UNL     1      32.037 -20.418 -19.560  0.00  0.00    +0.026 C 
BRANCH  24  26
ATOM     26  C   UNL     1      34.379 -20.034 -20.448  0.00  0.00    -0.005 C 
ATOM     27  C   UNL     1      35.674 -19.938 -19.941  0.00  0.00    -0.003 C 
ATOM     28  C   UNL     1      33.982 -19.214 -21.505  0.00  0.00    -0.003 C 
ATOM     29  C   UNL     1      36.573 -19.022 -20.489  0.00  0.00    -0.000 C 
ATOM     30  C   UNL     1      34.880 -18.298 -22.052  0.00  0.00    -0.000 C 
ATOM     31  C   UNL     1      36.175 -18.202 -21.545  0.00  0.00    -0.000 C 
ENDBRANCH  24  26
ENDBRANCH   2  24
TORSDOF 7
ENDMDL
MODEL 2
REMARK VINA RESULT:     -11.2     10.800     14.529
REMARK  Name = 24941248
REMARK  7 active torsions:
REMARK  status: ('A' for Active; 'I' for Inactive)
REMARK    1  A    between atoms: N_2  and  C_24
REMARK    2  A    between atoms: C_6  and  C_14
REMARK    3  A    between atoms: C_13  and  C_19
REMARK    4  A    between atoms: C_19  and  C_20
REMARK    5  A    between atoms: C_20  and  C_21
REMARK    6  A    between atoms: C_21  and  O_22
REMARK    7  A    between atoms: C_24  and  C_26
REMARK                            x       y       z     vdW  Elec       q    Type
REMARK                         _______ _______ _______ _____ _____    ______ ____
ROOT
ATOM      1  O   UNL     1      31.025 -10.580 -19.895  0.00  0.00    -0.352 OA
ATOM      2  N   UNL     1      32.788  -7.477 -23.986  0.00  0.00    -0.316 N 
ATOM      3  N   UNL     1      31.456 -11.850 -20.256  0.00  0.00    -0.077 NA
ATOM      4  N   UNL     1      31.634  -7.605 -21.907  0.00  0.00    -0.226 NA
ATOM      5  C   UNL     1      32.092 -10.348 -21.852  0.00  0.00    +0.062 A 
ATOM      6  C   UNL     1      32.088 -11.690 -21.423  0.00  0.00    +0.123 A 
ATOM      7  C   UNL     1      32.308  -8.248 -22.896  0.00  0.00    +0.129 C 
ATOM      8  C   UNL     1      32.575  -9.613 -22.936  0.00  0.00    +0.039 C 
ATOM      9  C   UNL     1      31.405  -9.688 -20.848  0.00  0.00    +0.196 A 
ATOM     10  C   UNL     1      31.169  -8.326 -20.859  0.00  0.00    +0.140 C 
ATOM     11  H   UNL     1      33.280  -7.932 -24.708  0.00  0.00    +0.148 HD
ENDROOT
BRANCH   6  14
ATOM     12 CL   UNL     1      33.058 -14.150 -25.849  0.00  0.00    -0.082 Cl
ATOM     13  C   UNL     1      33.882 -14.910 -22.009  0.00  0.00    -0.021 C 
ATOM     14  C   UNL     1      32.671 -12.822 -22.095  0.00  0.00    +0.021 C 
ATOM     15  C   UNL     1      33.316 -13.814 -21.358  0.00  0.00    -0.003 C 
ATOM     16  C   UNL     1      33.802 -15.014 -23.398  0.00  0.00    +0.007 C 
ATOM     17  C   UNL     1      32.591 -12.926 -23.484  0.00  0.00    +0.013 C 
ATOM     18  C   UNL     1      33.157 -14.022 -24.135  0.00  0.00    +0.057 C 
BRANCH  13  19
ATOM     19  C   UNL     1      34.573 -15.971 -21.221  0.00  0.00    +0.029 C 
BRANCH  19  20
ATOM     20  C   UNL     1      35.089 -17.112 -22.108  0.00  0.00    +0.036 C 
BRANCH  20  21
ATOM     21  C   UNL     1      35.929 -18.111 -21.327  0.00  0.00    +0.138 C 
BRANCH  21  22
ATOM     22  O   UNL     1      37.302 -17.886 -21.620  0.00  0.00    -0.382 OA
ATOM     23  H   UNL     1      37.536 -18.346 -22.441  0.00  0.00    +0.210 HD
ENDBRANCH  21  22
ENDBRANCH  20  21
ENDBRANCH  19  20
ENDBRANCH  13  19
ENDBRANCH   6  14
BRANCH   2  24
ATOM     24  C   UNL     1      32.587  -6.068 -24.080  0.00  0.00    +0.093 C 
ATOM     25  C   UNL     1      33.115  -5.394 -22.816  0.00  0.00    +0.026 C 
BRANCH  24  26
ATOM     26  C   UNL     1      33.220  -5.532 -25.345  0.00  0.00    -0.005 C 
ATOM     27  C   UNL     1      34.374  -4.753 -25.271  0.00  0.00    -0.003 C 
ATOM     28  C   UNL     1      32.650  -5.817 -26.586  0.00  0.00    -0.003 C 
ATOM     29  C   UNL     1      34.958  -4.257 -26.438  0.00  0.00    -0.000 C 
ATOM     30  C   UNL     1      33.233  -5.322 -27.752  0.00  0.00    -0.000 C 
ATOM     31  C   UNL     1      34.388  -4.543 -27.678  0.00  0.00    -0.000 C 
ENDBRANCH  24  26
ENDBRANCH   2  24
TORSDOF 7
ENDMDL
MODEL 3
REMARK VINA RESULT:     -10.9     10.682     14.479
REMARK  Name = 24941248
REMARK  7 active torsions:
REMARK  status: ('A' for Active; 'I' for Inactive)
REMARK    1  A    between atoms: N_2  and  C_24
REMARK    2  A    between atoms: C_6  and  C_14
REMARK    3  A    between atoms: C_13  and  C_19
REMARK    4  A    between atoms: C_19  and  C_20
REMARK    5  A    between atoms: C_20  and  C_21
REMARK    6  A    between atoms: C_21  and  O_22
REMARK    7  A    between atoms: C_24  and  C_26
REMARK                            x       y       z     vdW  Elec       q    Type
REMARK                         _______ _______ _______ _____ _____    ______ ____
ROOT
ATOM      1  O   UNL     1      31.505 -11.897 -19.734  0.00  0.00    -0.352 OA
ATOM      2  N   UNL     1      31.611  -7.744 -23.229  0.00  0.00    -0.316 N 
ATOM      3  N   UNL     1      31.990 -12.957 -20.491  0.00  0.00    -0.077 NA
ATOM      4  N   UNL     1      31.112  -8.517 -21.033  0.00  0.00    -0.226 NA
ATOM      5  C   UNL     1      31.941 -11.067 -21.770  0.00  0.00    +0.062 A 
ATOM      6  C   UNL     1      32.243 -12.442 -21.699  0.00  0.00    +0.123 A 
ATOM      7  C   UNL     1      31.566  -8.799 -22.281  0.00  0.00    +0.129 C 
ATOM      8  C   UNL     1      31.997 -10.047 -22.721  0.00  0.00    +0.039 C 
ATOM      9  C   UNL     1      31.478 -10.774 -20.499  0.00  0.00    +0.196 A 
ATOM     10  C   UNL     1      31.063  -9.513 -20.115  0.00  0.00    +0.140 C 
ATOM     11  H   UNL     1      31.940  -7.937 -24.138  0.00  0.00    +0.148 HD
ENDROOT
BRANCH   6  14
ATOM     12 CL   UNL     1      32.965 -13.214 -26.745  0.00  0.00    -0.082 Cl
ATOM     13  C   UNL     1      33.916 -15.279 -23.454  0.00  0.00    -0.021 C 
ATOM     14  C   UNL     1      32.765 -13.276 -22.750  0.00  0.00    +0.021 C 
ATOM     15  C   UNL     1      33.409 -14.472 -22.436  0.00  0.00    -0.003 C 
ATOM     16  C   UNL     1      33.778 -14.890 -24.787  0.00  0.00    +0.007 C 
ATOM     17  C   UNL     1      32.627 -12.886 -24.083  0.00  0.00    +0.013 C 
ATOM     18  C   UNL     1      33.134 -13.693 -25.101  0.00  0.00    +0.057 C 
BRANCH  13  19
ATOM     19  C   UNL     1      34.605 -16.558 -23.119  0.00  0.00    +0.029 C 
BRANCH  19  20
ATOM     20  C   UNL     1      34.857 -16.705 -21.613  0.00  0.00    +0.036 C 
BRANCH  20  21
ATOM     21  C   UNL     1      35.273 -18.120 -21.236  0.00  0.00    +0.138 C 
BRANCH  21  22
ATOM     22  O   UNL     1      36.526 -18.068 -20.567  0.00  0.00    -0.382 OA
ATOM     23  H   UNL     1      37.200 -17.721 -21.171  0.00  0.00    +0.210 HD
ENDBRANCH  21  22
ENDBRANCH  20  21
ENDBRANCH  19  20
ENDBRANCH  13  19
ENDBRANCH   6  14
BRANCH   2  24
ATOM     24  C   UNL     1      31.200  -6.414 -22.919  0.00  0.00    +0.093 C 
ATOM     25  C   UNL     1      31.904  -5.947 -21.648  0.00  0.00    +0.026 C 
BRANCH  24  26
ATOM     26  C   UNL     1      31.447  -5.502 -24.101  0.00  0.00    -0.005 C 
ATOM     27  C   UNL     1      31.915  -6.029 -25.303  0.00  0.00    -0.003 C 
ATOM     28  C   UNL     1      31.205  -4.132 -23.987  0.00  0.00    -0.003 C 
ATOM     29  C   UNL     1      32.144  -5.187 -26.393  0.00  0.00    -0.000 C 
ATOM     30  C   UNL     1      31.434  -3.291 -25.075  0.00  0.00    -0.000 C 
ATOM     31  C   UNL     1      31.902  -3.818 -26.279  0.00  0.00    -0.000 C 
ENDBRANCH  24  26
ENDBRANCH   2  24
TORSDOF 7
ENDMDL
MODEL 4
REMARK VINA RESULT:     -10.6      3.154      6.543
REMARK  Name = 24941248
REMARK  7 active torsions:
REMARK  status: ('A' for Active; 'I' for Inactive)
REMARK    1  A    between atoms: N_2  and  C_24
REMARK    2  A    between atoms: C_6  and  C_14
REMARK    3  A    between atoms: C_13  and  C_19
REMARK    4  A    between atoms: C_19  and  C_20
REMARK    5  A    between atoms: C_20  and  C_21
REMARK    6  A    between atoms: C_21  and  O_22
REMARK    7  A    between atoms: C_24  and  C_26
REMARK                            x       y       z     vdW  Elec       q    Type
REMARK                         _______ _______ _______ _____ _____    ______ ____
ROOT
ATOM      1  O   UNL     1      34.267 -23.599 -13.923  0.00  0.00    -0.352 OA
ATOM      2  N   UNL     1      34.390 -21.257 -18.821  0.00  0.00    -0.316 N 
ATOM      3  N   UNL     1      32.918 -23.878 -13.742  0.00  0.00    -0.077 NA
ATOM      4  N   UNL     1      35.603 -21.992 -16.907  0.00  0.00    -0.226 NA
ATOM      5  C   UNL     1      33.223 -22.873 -15.769  0.00  0.00    +0.062 A 
ATOM      6  C   UNL     1      32.314 -23.437 -14.851  0.00  0.00    +0.123 A 
ATOM      7  C   UNL     1      34.406 -21.864 -17.537  0.00  0.00    +0.129 C 
ATOM      8  C   UNL     1      33.178 -22.280 -17.032  0.00  0.00    +0.039 C 
ATOM      9  C   UNL     1      34.444 -23.000 -15.131  0.00  0.00    +0.196 A 
ATOM     10  C   UNL     1      35.636 -22.569 -15.682  0.00  0.00    +0.140 C 
ATOM     11  H   UNL     1      33.528 -21.160 -19.287  0.00  0.00    +0.148 HD
ENDROOT
BRANCH   6  14
ATOM     12 CL   UNL     1      28.013 -26.090 -13.832  0.00  0.00    -0.082 Cl
ATOM     13  C   UNL     1      28.796 -22.751 -15.890  0.00  0.00    -0.021 C 
ATOM     14  C   UNL     1      30.889 -23.569 -15.004  0.00  0.00    +0.021 C 
ATOM     15  C   UNL     1      30.177 -22.624 -15.743  0.00  0.00    -0.003 C 
ATOM     16  C   UNL     1      28.127 -23.823 -15.299  0.00  0.00    +0.007 C 
ATOM     17  C   UNL     1      30.220 -24.641 -14.413  0.00  0.00    +0.013 C 
ATOM     18  C   UNL     1      28.839 -24.768 -14.561  0.00  0.00    +0.057 C 
BRANCH  13  19
ATOM     19  C   UNL     1      28.034 -21.740 -16.679  0.00  0.00    +0.029 C 
BRANCH  19  20
ATOM     20  C   UNL     1      26.543 -21.726 -16.319  0.00  0.00    +0.036 C 
BRANCH  20  21
ATOM     21  C   UNL     1      25.678 -21.248 -17.477  0.00  0.00    +0.138 C 
BRANCH  21  22
ATOM     22  O   UNL     1      25.618 -19.828 -17.450  0.00  0.00    -0.382 OA
ATOM     23  H   UNL     1      26.067 -19.501 -16.655  0.00  0.00    +0.210 HD
ENDBRANCH  21  22
ENDBRANCH  20  21
ENDBRANCH  19  20
ENDBRANCH  13  19
ENDBRANCH   6  14
BRANCH   2  24
ATOM     24  C   UNL     1      35.571 -20.782 -19.461  0.00  0.00    +0.093 C 
ATOM     25  C   UNL     1      36.342 -21.962 -20.048  0.00  0.00    +0.026 C 
BRANCH  24  26
ATOM     26  C   UNL     1      35.220 -19.733 -20.494  0.00  0.00    -0.005 C 
ATOM     27  C   UNL     1      33.982 -19.771 -21.133  0.00  0.00    -0.003 C 
ATOM     28  C   UNL     1      36.136 -18.728 -20.807  0.00  0.00    -0.003 C 
ATOM     29  C   UNL     1      33.658 -18.804 -22.086  0.00  0.00    -0.000 C 
ATOM     30  C   UNL     1      35.813 -17.763 -21.760  0.00  0.00    -0.000 C 
ATOM     31  C   UNL     1      34.574 -17.800 -22.398  0.00  0.00    -0.000 C 
ENDBRANCH  24  26
ENDBRANCH   2  24
TORSDOF 7
ENDMDL
MODEL 5
REMARK VINA RESULT:     -10.6      3.461      6.194
REMARK  Name = 24941248
REMARK  7 active torsions:
REMARK  status: ('A' for Active; 'I' for Inactive)
REMARK    1  A    between atoms: N_2  and  C_24
REMARK    2  A    between atoms: C_6  and  C_14
REMARK    3  A    between atoms: C_13  and  C_19
REMARK    4  A    between atoms: C_19  and  C_20
REMARK    5  A    between atoms: C_20  and  C_21
REMARK    6  A    between atoms: C_21  and  O_22
REMARK    7  A    between atoms: C_24  and  C_26
REMARK                            x       y       z     vdW  Elec       q    Type
REMARK                         _______ _______ _______ _____ _____    ______ ____
ROOT
ATOM      1  O   UNL     1      36.534 -21.944 -17.330  0.00  0.00    -0.352 OA
ATOM      2  N   UNL     1      33.642 -19.571 -21.265  0.00  0.00    -0.316 N 
ATOM      3  N   UNL     1      35.556 -22.465 -16.492  0.00  0.00    -0.077 NA
ATOM      4  N   UNL     1      35.790 -20.092 -20.377  0.00  0.00    -0.226 NA
ATOM      5  C   UNL     1      34.564 -21.402 -18.251  0.00  0.00    +0.062 A 
ATOM      6  C   UNL     1      34.392 -22.131 -17.057  0.00  0.00    +0.123 A 
ATOM      7  C   UNL     1      34.439 -20.178 -20.259  0.00  0.00    +0.129 C 
ATOM      8  C   UNL     1      33.757 -20.814 -19.226  0.00  0.00    +0.039 C 
ATOM      9  C   UNL     1      35.940 -21.311 -18.376  0.00  0.00    +0.196 A 
ATOM     10  C   UNL     1      36.566 -20.666 -19.426  0.00  0.00    +0.140 C 
ATOM     11  H   UNL     1      32.662 -19.628 -21.190  0.00  0.00    +0.148 HD
ENDROOT
BRANCH   6  14
ATOM     12 CL   UNL     1      31.955 -24.597 -13.242  0.00  0.00    -0.082 Cl
ATOM     13  C   UNL     1      30.733 -22.501 -16.422  0.00  0.00    -0.021 C 
ATOM     14  C   UNL     1      33.148 -22.517 -16.444  0.00  0.00    +0.021 C 
ATOM     15  C   UNL     1      31.938 -22.128 -17.017  0.00  0.00    -0.003 C 
ATOM     16  C   UNL     1      30.738 -23.265 -15.255  0.00  0.00    +0.007 C 
ATOM     17  C   UNL     1      33.154 -23.281 -15.276  0.00  0.00    +0.013 C 
ATOM     18  C   UNL     1      31.949 -23.655 -14.682  0.00  0.00    +0.057 C 
BRANCH  13  19
ATOM     19  C   UNL     1      29.438 -22.084 -17.034  0.00  0.00    +0.029 C 
BRANCH  19  20
ATOM     20  C   UNL     1      28.285 -22.102 -16.022  0.00  0.00    +0.036 C 
BRANCH  20  21
ATOM     21  C   UNL     1      26.924 -22.078 -16.703  0.00  0.00    +0.138 C 
BRANCH  21  22
ATOM     22  O   UNL     1      26.857 -23.150 -17.634  0.00  0.00    -0.382 OA
ATOM     23  H   UNL     1      27.755 -23.433 -17.865  0.00  0.00    +0.210 HD
ENDBRANCH  21  22
ENDBRANCH  20  21
ENDBRANCH  19  20
ENDBRANCH  13  19
ENDBRANCH   6  14
BRANCH   2  24
ATOM     24  C   UNL     1      34.204 -18.883 -22.380  0.00  0.00    +0.093 C 
ATOM     25  C   UNL     1      33.465 -19.288 -23.653  0.00  0.00    +0.026 C 
BRANCH  24  26
ATOM     26  C   UNL     1      34.186 -17.390 -22.136  0.00  0.00    -0.005 C 
ATOM     27  C   UNL     1      34.185 -16.896 -20.832  0.00  0.00    -0.003 C 
ATOM     28  C   UNL     1      34.170 -16.507 -23.216  0.00  0.00    -0.003 C 
ATOM     29  C   UNL     1      34.168 -15.518 -20.607  0.00  0.00    -0.000 C 
ATOM     30  C   UNL     1      34.152 -15.131 -22.992  0.00  0.00    -0.000 C 
ATOM     31  C   UNL     1      34.152 -14.636 -21.687  0.00  0.00    -0.000 C 
ENDBRANCH  24  26
ENDBRANCH   2  24
TORSDOF 7
ENDMDL
MODEL 6
REMARK VINA RESULT:     -10.4      1.892      2.599
REMARK  Name = 24941248
REMARK  7 active torsions:
REMARK  status: ('A' for Active; 'I' for Inactive)
REMARK    1  A    between atoms: N_2  and  C_24
REMARK    2  A    between atoms: C_6  and  C_14
REMARK    3  A    between atoms: C_13  and  C_19
REMARK    4  A    between atoms: C_19  and  C_20
REMARK    5  A    between atoms: C_20  and  C_21
REMARK    6  A    between atoms: C_21  and  O_22
REMARK    7  A    between atoms: C_24  and  C_26
REMARK                            x       y       z     vdW  Elec       q    Type
REMARK                         _______ _______ _______ _____ _____    ______ ____
ROOT
ATOM      1  O   UNL     1      30.720 -23.356 -14.819  0.00  0.00    -0.352 OA
ATOM      2  N   UNL     1      33.761 -21.549 -18.938  0.00  0.00    -0.316 N 
ATOM      3  N   UNL     1      31.653 -23.945 -13.975  0.00  0.00    -0.077 NA
ATOM      4  N   UNL     1      31.593 -21.764 -17.978  0.00  0.00    -0.226 NA
ATOM      5  C   UNL     1      32.714 -23.099 -15.810  0.00  0.00    +0.062 A 
ATOM      6  C   UNL     1      32.833 -23.782 -14.583  0.00  0.00    +0.123 A 
ATOM      7  C   UNL     1      32.926 -22.003 -17.884  0.00  0.00    +0.129 C 
ATOM      8  C   UNL     1      33.557 -22.662 -16.833  0.00  0.00    +0.039 C 
ATOM      9  C   UNL     1      31.356 -22.853 -15.911  0.00  0.00    +0.196 A 
ATOM     10  C   UNL     1      30.781 -22.191 -16.980  0.00  0.00    +0.140 C 
ATOM     11  H   UNL     1      34.730 -21.716 -18.881  0.00  0.00    +0.148 HD
ENDROOT
BRANCH   6  14
ATOM     12 CL   UNL     1      37.277 -26.342 -15.102  0.00  0.00    -0.082 Cl
ATOM     13  C   UNL     1      35.450 -24.541 -12.034  0.00  0.00    -0.021 C 
ATOM     14  C   UNL     1      34.039 -24.281 -13.976  0.00  0.00    +0.021 C 
ATOM     15  C   UNL     1      34.281 -24.058 -12.621  0.00  0.00    -0.003 C 
ATOM     16  C   UNL     1      36.377 -25.247 -12.801  0.00  0.00    +0.007 C 
ATOM     17  C   UNL     1      34.965 -24.987 -14.744  0.00  0.00    +0.013 C 
ATOM     18  C   UNL     1      36.134 -25.470 -14.156  0.00  0.00    +0.057 C 
BRANCH  13  19
ATOM     19  C   UNL     1      35.711 -24.302 -10.585  0.00  0.00    +0.029 C 
BRANCH  19  20
ATOM     20  C   UNL     1      36.295 -22.908 -10.321  0.00  0.00    +0.036 C 
BRANCH  20  21
ATOM     21  C   UNL     1      36.727 -22.215 -11.606  0.00  0.00    +0.138 C 
BRANCH  21  22
ATOM     22  O   UNL     1      38.110 -21.901 -11.516  0.00  0.00    -0.382 OA
ATOM     23  H   UNL     1      38.341 -21.260 -12.206  0.00  0.00    +0.210 HD
ENDBRANCH  21  22
ENDBRANCH  20  21
ENDBRANCH  19  20
ENDBRANCH  13  19
ENDBRANCH   6  14
BRANCH   2  24
ATOM     24  C   UNL     1      33.253 -20.861 -20.079  0.00  0.00    +0.093 C 
ATOM     25  C   UNL     1      31.950 -20.155 -19.709  0.00  0.00    +0.026 C 
BRANCH  24  26
ATOM     26  C   UNL     1      34.300 -19.918 -20.630  0.00  0.00    -0.005 C 
ATOM     27  C   UNL     1      33.998 -19.098 -21.717  0.00  0.00    -0.003 C 
ATOM     28  C   UNL     1      35.568 -19.868 -20.051  0.00  0.00    -0.003 C 
ATOM     29  C   UNL     1      34.964 -18.229 -22.226  0.00  0.00    -0.000 C 
ATOM     30  C   UNL     1      36.533 -18.999 -20.559  0.00  0.00    -0.000 C 
ATOM     31  C   UNL     1      36.231 -18.179 -21.646  0.00  0.00    -0.000 C 
ENDBRANCH  24  26
ENDBRANCH   2  24
TORSDOF 7
ENDMDL
MODEL 7
REMARK VINA RESULT:     -10.0      3.610      8.503
REMARK  Name = 24941248
REMARK  7 active torsions:
REMARK  status: ('A' for Active; 'I' for Inactive)
REMARK    1  A    between atoms: N_2  and  C_24
REMARK    2  A    between atoms: C_6  and  C_14
REMARK    3  A    between atoms: C_13  and  C_19
REMARK    4  A    between atoms: C_19  and  C_20
REMARK    5  A    between atoms: C_20  and  C_21
REMARK    6  A    between atoms: C_21  and  O_22
REMARK    7  A    between atoms: C_24  and  C_26
REMARK                            x       y       z     vdW  Elec       q    Type
REMARK                         _______ _______ _______ _____ _____    ______ ____
ROOT
ATOM      1  O   UNL     1      33.125 -21.947 -18.266  0.00  0.00    -0.352 OA
ATOM      2  N   UNL     1      35.436 -22.914 -13.449  0.00  0.00    -0.316 N 
ATOM      3  N   UNL     1      31.778 -22.185 -18.021  0.00  0.00    -0.077 NA
ATOM      4  N   UNL     1      35.716 -22.279 -15.727  0.00  0.00    -0.226 NA
ATOM      5  C   UNL     1      32.972 -22.534 -16.108  0.00  0.00    +0.062 A 
ATOM      6  C   UNL     1      31.709 -22.533 -16.732  0.00  0.00    +0.123 A 
ATOM      7  C   UNL     1      34.876 -22.651 -14.726  0.00  0.00    +0.129 C 
ATOM      8  C   UNL     1      33.497 -22.798 -14.842  0.00  0.00    +0.039 C 
ATOM      9  C   UNL     1      33.833 -22.156 -17.124  0.00  0.00    +0.196 A 
ATOM     10  C   UNL     1      35.198 -22.024 -16.952  0.00  0.00    +0.140 C 
ATOM     11  H   UNL     1      34.836 -23.183 -12.715  0.00  0.00    +0.148 HD
ENDROOT
BRANCH   6  14
ATOM     12 CL   UNL     1      29.003 -25.502 -13.500  0.00  0.00    -0.082 Cl
ATOM     13  C   UNL     1      28.075 -22.431 -15.889  0.00  0.00    -0.021 C 
ATOM     14  C   UNL     1      30.440 -22.855 -16.133  0.00  0.00    +0.021 C 
ATOM     15  C   UNL     1      29.304 -22.120 -16.470  0.00  0.00    -0.003 C 
ATOM     16  C   UNL     1      27.982 -23.477 -14.970  0.00  0.00    +0.007 C 
ATOM     17  C   UNL     1      30.348 -23.901 -15.214  0.00  0.00    +0.013 C 
ATOM     18  C   UNL     1      29.118 -24.212 -14.633  0.00  0.00    +0.057 C 
BRANCH  13  19
ATOM     19  C   UNL     1      26.859 -21.645 -16.248  0.00  0.00    +0.029 C 
BRANCH  19  20
ATOM     20  C   UNL     1      26.193 -22.159 -17.531  0.00  0.00    +0.036 C 
BRANCH  20  21
ATOM     21  C   UNL     1      25.570 -21.034 -18.344  0.00  0.00    +0.138 C 
BRANCH  21  22
ATOM     22  O   UNL     1      25.569 -19.847 -17.562  0.00  0.00    -0.382 OA
ATOM     23  H   UNL     1      26.471 -19.494 -17.511  0.00  0.00    +0.210 HD
ENDBRANCH  21  22
ENDBRANCH  20  21
ENDBRANCH  19  20
ENDBRANCH  13  19
ENDBRANCH   6  14
BRANCH   2  24
ATOM     24  C   UNL     1      36.832 -22.806 -13.184  0.00  0.00    +0.093 C 
ATOM     25  C   UNL     1      37.045 -22.422 -11.721  0.00  0.00    +0.026 C 
BRANCH  24  26
ATOM     26  C   UNL     1      37.539 -24.087 -13.568  0.00  0.00    -0.005 C 
ATOM     27  C   UNL     1      36.798 -25.201 -13.961  0.00  0.00    -0.003 C 
ATOM     28  C   UNL     1      38.932 -24.155 -13.529  0.00  0.00    -0.003 C 
ATOM     29  C   UNL     1      37.450 -26.384 -14.314  0.00  0.00    -0.000 C 
ATOM     30  C   UNL     1      39.583 -25.336 -13.881  0.00  0.00    -0.000 C 
ATOM     31  C   UNL     1      38.842 -26.450 -14.275  0.00  0.00    -0.000 C 
ENDBRANCH  24  26
ENDBRANCH   2  24
TORSDOF 7
ENDMDL
MODEL 8
REMARK VINA RESULT:      -9.9      5.351     10.531
REMARK  Name = 24941248
REMARK  7 active torsions:
REMARK  status: ('A' for Active; 'I' for Inactive)
REMARK    1  A    between atoms: N_2  and  C_24
REMARK    2  A    between atoms: C_6  and  C_14
REMARK    3  A    between atoms: C_13  and  C_19
REMARK    4  A    between atoms: C_19  and  C_20
REMARK    5  A    between atoms: C_20  and  C_21
REMARK    6  A    between atoms: C_21  and  O_22
REMARK    7  A    between atoms: C_24  and  C_26
REMARK                            x       y       z     vdW  Elec       q    Type
REMARK                         _______ _______ _______ _____ _____    ______ ____
ROOT
ATOM      1  O   UNL     1      37.203 -19.027 -20.969  0.00  0.00    -0.352 OA
ATOM      2  N   UNL     1      32.510 -21.308 -19.470  0.00  0.00    -0.316 N 
ATOM      3  N   UNL     1      36.807 -17.791 -21.465  0.00  0.00    -0.077 NA
ATOM      4  N   UNL     1      34.877 -21.497 -19.642  0.00  0.00    -0.226 NA
ATOM      5  C   UNL     1      34.973 -18.952 -20.761  0.00  0.00    +0.062 A 
ATOM      6  C   UNL     1      35.477 -17.767 -21.332  0.00  0.00    +0.123 A 
ATOM      7  C   UNL     1      33.760 -20.752 -19.846  0.00  0.00    +0.129 C 
ATOM      8  C   UNL     1      33.730 -19.475 -20.399  0.00  0.00    +0.039 C 
ATOM      9  C   UNL     1      36.108 -19.715 -20.551  0.00  0.00    +0.196 A 
ATOM     10  C   UNL     1      36.080 -20.981 -19.996  0.00  0.00    +0.140 C 
ATOM     11  H   UNL     1      31.693 -20.777 -19.612  0.00  0.00    +0.148 HD
ENDROOT
BRANCH   6  14
ATOM     12 CL   UNL     1      33.263 -15.127 -25.168  0.00  0.00    -0.082 Cl
ATOM     13  C   UNL     1      33.594 -14.546 -21.224  0.00  0.00    -0.021 C 
ATOM     14  C   UNL     1      34.725 -16.614 -21.754  0.00  0.00    +0.021 C 
ATOM     15  C   UNL     1      34.324 -15.662 -20.816  0.00  0.00    -0.003 C 
ATOM     16  C   UNL     1      33.267 -14.380 -22.570  0.00  0.00    +0.007 C 
ATOM     17  C   UNL     1      34.397 -16.448 -23.100  0.00  0.00    +0.013 C 
ATOM     18  C   UNL     1      33.668 -15.332 -23.508  0.00  0.00    +0.057 C 
BRANCH  13  19
ATOM     19  C   UNL     1      33.164 -13.529 -20.222  0.00  0.00    +0.029 C 
BRANCH  19  20
ATOM     20  C   UNL     1      31.704 -13.101 -20.418  0.00  0.00    +0.036 C 
BRANCH  20  21
ATOM     21  C   UNL     1      31.576 -11.610 -20.698  0.00  0.00    +0.138 C 
BRANCH  21  22
ATOM     22  O   UNL     1      30.698 -11.424 -21.800  0.00  0.00    -0.382 OA
ATOM     23  H   UNL     1      31.140 -11.706 -22.616  0.00  0.00    +0.210 HD
ENDBRANCH  21  22
ENDBRANCH  20  21
ENDBRANCH  19  20
ENDBRANCH  13  19
ENDBRANCH   6  14
BRANCH   2  24
ATOM     24  C   UNL     1      32.388 -22.607 -18.893  0.00  0.00    +0.093 C 
ATOM     25  C   UNL     1      33.471 -23.520 -19.464  0.00  0.00    +0.026 C 
BRANCH  24  26
ATOM     26  C   UNL     1      32.427 -22.514 -17.384  0.00  0.00    -0.005 C 
ATOM     27  C   UNL     1      33.646 -22.591 -16.712  0.00  0.00    -0.003 C 
ATOM     28  C   UNL     1      31.243 -22.353 -16.664  0.00  0.00    -0.003 C 
ATOM     29  C   UNL     1      33.683 -22.506 -15.319  0.00  0.00    -0.000 C 
ATOM     30  C   UNL     1      31.279 -22.268 -15.272  0.00  0.00    -0.000 C 
ATOM     31  C   UNL     1      32.499 -22.344 -14.600  0.00  0.00    -0.000 C 
ENDBRANCH  24  26
ENDBRANCH   2  24
TORSDOF 7
ENDMDL
MODEL 9
REMARK VINA RESULT:      -9.9      3.810      7.615
REMARK  Name = 24941248
REMARK  7 active torsions:
REMARK  status: ('A' for Active; 'I' for Inactive)
REMARK    1  A    between atoms: N_2  and  C_24
REMARK    2  A    between atoms: C_6  and  C_14
REMARK    3  A    between atoms: C_13  and  C_19
REMARK    4  A    between atoms: C_19  and  C_20
REMARK    5  A    between atoms: C_20  and  C_21
REMARK    6  A    between atoms: C_21  and  O_22
REMARK    7  A    between atoms: C_24  and  C_26
REMARK                            x       y       z     vdW  Elec       q    Type
REMARK                         _______ _______ _______ _____ _____    ______ ____
ROOT
ATOM      1  O   UNL     1      33.315 -21.806 -18.494  0.00  0.00    -0.352 OA
ATOM      2  N   UNL     1      35.493 -22.807 -13.623  0.00  0.00    -0.316 N 
ATOM      3  N   UNL     1      31.964 -22.056 -18.291  0.00  0.00    -0.077 NA
ATOM      4  N   UNL     1      35.834 -22.147 -15.885  0.00  0.00    -0.226 NA
ATOM      5  C   UNL     1      33.105 -22.416 -16.348  0.00  0.00    +0.062 A 
ATOM      6  C   UNL     1      31.860 -22.418 -17.009  0.00  0.00    +0.123 A 
ATOM      7  C   UNL     1      34.968 -22.534 -14.913  0.00  0.00    +0.129 C 
ATOM      8  C   UNL     1      33.594 -22.690 -15.070  0.00  0.00    +0.039 C 
ATOM      9  C   UNL     1      33.991 -22.022 -17.335  0.00  0.00    +0.196 A 
ATOM     10  C   UNL     1      35.350 -21.882 -17.123  0.00  0.00    +0.140 C 
ATOM     11  H   UNL     1      34.874 -23.088 -12.909  0.00  0.00    +0.148 HD
ENDROOT
BRANCH   6  14
ATOM     12 CL   UNL     1      26.752 -21.722 -17.003  0.00  0.00    -0.082 Cl
ATOM     13  C   UNL     1      29.246 -24.015 -14.877  0.00  0.00    -0.021 C 
ATOM     14  C   UNL     1      30.577 -22.754 -16.450  0.00  0.00    +0.021 C 
ATOM     15  C   UNL     1      30.489 -23.689 -15.418  0.00  0.00    -0.003 C 
ATOM     16  C   UNL     1      28.090 -23.407 -15.367  0.00  0.00    +0.007 C 
ATOM     17  C   UNL     1      29.421 -22.146 -16.940  0.00  0.00    +0.013 C 
ATOM     18  C   UNL     1      28.178 -22.473 -16.399  0.00  0.00    +0.057 C 
BRANCH  13  19
ATOM     19  C   UNL     1      29.152 -25.016 -13.775  0.00  0.00    +0.029 C 
BRANCH  19  20
ATOM     20  C   UNL     1      30.177 -24.755 -12.664  0.00  0.00    +0.036 C 
BRANCH  20  21
ATOM     21  C   UNL     1      30.172 -23.303 -12.208  0.00  0.00    +0.138 C 
BRANCH  21  22
ATOM     22  O   UNL     1      31.487 -22.778 -12.331  0.00  0.00    -0.382 OA
ATOM     23  H   UNL     1      31.483 -22.043 -12.964  0.00  0.00    +0.210 HD
ENDBRANCH  21  22
ENDBRANCH  20  21
ENDBRANCH  19  20
ENDBRANCH  13  19
ENDBRANCH   6  14
BRANCH   2  24
ATOM     24  C   UNL     1      36.880 -22.692 -13.317  0.00  0.00    +0.093 C 
ATOM     25  C   UNL     1      37.051 -22.412 -11.825  0.00  0.00    +0.026 C 
BRANCH  24  26
ATOM     26  C   UNL     1      37.622 -23.929 -13.774  0.00  0.00    -0.005 C 
ATOM     27  C   UNL     1      37.076 -25.192 -13.551  0.00  0.00    -0.003 C 
ATOM     28  C   UNL     1      38.852 -23.805 -14.422  0.00  0.00    -0.003 C 
ATOM     29  C   UNL     1      37.761 -26.333 -13.972  0.00  0.00    -0.000 C 
ATOM     30  C   UNL     1      39.536 -24.945 -14.843  0.00  0.00    -0.000 C 
ATOM     31  C   UNL     1      38.990 -26.209 -14.619  0.00  0.00    -0.000 C 
ENDBRANCH  24  26
ENDBRANCH   2  24
TORSDOF 7
ENDMDL
