MODEL 1
REMARK VINA RESULT:     -12.7      0.000      0.000
REMARK  Name = 16058752
REMARK  4 active torsions:
REMARK  status: ('A' for Active; 'I' for Inactive)
REMARK    1  A    between atoms: N_1  and  C_20
REMARK    2  A    between atoms: C_2  and  N_8
REMARK    3  A    between atoms: C_14  and  C_19
REMARK    4  A    between atoms: C_20  and  C_23
REMARK                            x       y       z     vdW  Elec       q    Type
REMARK                         _______ _______ _______ _____ _____    ______ ____
ROOT
ATOM      1  N   UNL     1      34.602 -20.614 -20.294  0.00  0.00    +0.390 N 
ATOM      2  C   UNL     1      35.502 -18.112 -21.550  0.00  0.00    +0.066 C 
ATOM      3  C   UNL     1      36.388 -18.926 -20.605  0.00  0.00    -0.003 C 
ATOM      4  C   UNL     1      34.420 -19.003 -22.164  0.00  0.00    -0.003 C 
ATOM      5  C   UNL     1      35.569 -19.749 -19.605  0.00  0.00    -0.075 C 
ATOM      6  C   UNL     1      33.671 -19.822 -21.109  0.00  0.00    -0.075 C 
ATOM      7  H   UNL     1      35.121 -21.231 -20.918  0.00  0.00    -0.079 HD
ENDROOT
BRANCH   2   8
ATOM      8  N   UNL     1      34.894 -17.005 -20.837  0.00  0.00    -0.318 N 
ATOM      9  N   UNL     1      34.545 -15.711 -22.809  0.00  0.00    -0.133 NA
ATOM     10  N   UNL     1      34.096 -14.580 -23.416  0.00  0.00    -0.143 NA
ATOM     11  C   UNL     1      34.437 -15.856 -21.455  0.00  0.00    +0.150 C 
ATOM     12  C   UNL     1      33.864 -14.850 -20.676  0.00  0.00    +0.037 C 
ATOM     13  C   UNL     1      33.407 -13.699 -21.295  0.00  0.00    +0.028 C 
ATOM     14  C   UNL     1      33.542 -13.605 -22.664  0.00  0.00    +0.174 C 
ATOM     15  H   UNL     1      34.801 -17.076 -19.859  0.00  0.00    +0.148 HD
BRANCH  14  19
ATOM     16  F   UNL     1      31.899 -11.880 -22.880  0.00  0.00    -0.164 F 
ATOM     17  F   UNL     1      33.951 -11.347 -23.338  0.00  0.00    -0.164 F 
ATOM     18  F   UNL     1      32.829 -12.612 -24.704  0.00  0.00    -0.164 F 
ATOM     19  C   UNL     1      33.066 -12.387 -23.379  0.00  0.00    +0.437 C 
ENDBRANCH  14  19
ENDBRANCH   2   8
BRANCH   1  20
ATOM     20  C   UNL     1      33.868 -21.432 -19.329  0.00  0.00    -0.050 C 
BRANCH  20  23
ATOM     21  F   UNL     1      34.337 -23.016 -14.749  0.00  0.00    -0.202 F 
ATOM     22  F   UNL     1      36.984 -22.333 -14.739  0.00  0.00    -0.202 F 
ATOM     23  C   UNL     1      34.702 -21.674 -18.101  0.00  0.00    -0.041 C 
ATOM     24  C   UNL     1      34.118 -22.244 -16.977  0.00  0.00    +0.026 C 
ATOM     25  C   UNL     1      36.046 -21.324 -18.106  0.00  0.00    -0.004 C 
ATOM     26  C   UNL     1      34.891 -22.467 -15.839  0.00  0.00    +0.167 C 
ATOM     27  C   UNL     1      36.819 -21.548 -16.967  0.00  0.00    +0.032 C 
ATOM     28  C   UNL     1      36.242 -22.119 -15.833  0.00  0.00    +0.167 C 
ENDBRANCH  20  23
ENDBRANCH   1  20
TORSDOF 4
ENDMDL
MODEL 2
REMARK VINA RESULT:     -12.6      5.273      8.157
REMARK  Name = 16058752
REMARK  4 active torsions:
REMARK  status: ('A' for Active; 'I' for Inactive)
REMARK    1  A    between atoms: N_1  and  C_20
REMARK    2  A    between atoms: C_2  and  N_8
REMARK    3  A    between atoms: C_14  and  C_19
REMARK    4  A    between atoms: C_20  and  C_23
REMARK                            x       y       z     vdW  Elec       q    Type
REMARK                         _______ _______ _______ _____ _____    ______ ____
ROOT
ATOM      1  N   UNL     1      32.994 -13.182 -21.734  0.00  0.00    +0.390 N 
ATOM      2  C   UNL     1      31.490 -10.755 -22.436  0.00  0.00    +0.066 C 
ATOM      3  C   UNL     1      32.597 -11.327 -23.325  0.00  0.00    -0.003 C 
ATOM      4  C   UNL     1      30.920 -11.847 -21.529  0.00  0.00    -0.003 C 
ATOM      5  C   UNL     1      33.633 -12.122 -22.525  0.00  0.00    -0.075 C 
ATOM      6  C   UNL     1      32.015 -12.623 -20.791  0.00  0.00    -0.075 C 
ATOM      7  H   UNL     1      32.496 -13.797 -22.377  0.00  0.00    -0.079 HD
ENDROOT
BRANCH   2   8
ATOM      8  N   UNL     1      32.005  -9.659 -21.638  0.00  0.00    -0.318 N 
ATOM      9  N   UNL     1      30.809  -7.994 -22.855  0.00  0.00    -0.133 NA
ATOM     10  N   UNL     1      30.479  -6.691 -23.064  0.00  0.00    -0.143 NA
ATOM     11  C   UNL     1      31.669  -8.335 -21.851  0.00  0.00    +0.150 C 
ATOM     12  C   UNL     1      32.219  -7.355 -21.023  0.00  0.00    +0.037 C 
ATOM     13  C   UNL     1      31.883  -6.029 -21.236  0.00  0.00    +0.028 C 
ATOM     14  C   UNL     1      31.011  -5.741 -22.265  0.00  0.00    +0.174 C 
ATOM     15  H   UNL     1      32.629  -9.869 -20.906  0.00  0.00    +0.148 HD
BRANCH  14  19
ATOM     16  F   UNL     1      29.665  -3.853 -21.678  0.00  0.00    -0.164 F 
ATOM     17  F   UNL     1      31.653  -3.444 -22.445  0.00  0.00    -0.164 F 
ATOM     18  F   UNL     1      30.098  -4.158 -23.787  0.00  0.00    -0.164 F 
ATOM     19  C   UNL     1      30.616  -4.330 -22.536  0.00  0.00    +0.437 C 
ENDBRANCH  14  19
ENDBRANCH   2   8
BRANCH   1  20
ATOM     20  C   UNL     1      34.001 -13.967 -21.020  0.00  0.00    -0.050 C 
BRANCH  20  23
ATOM     21  F   UNL     1      34.931 -18.739 -20.764  0.00  0.00    -0.202 F 
ATOM     22  F   UNL     1      34.704 -18.971 -23.479  0.00  0.00    -0.202 F 
ATOM     23  C   UNL     1      34.189 -15.306 -21.678  0.00  0.00    -0.041 C 
ATOM     24  C   UNL     1      34.477 -16.419 -20.898  0.00  0.00    +0.026 C 
ATOM     25  C   UNL     1      34.071 -15.414 -23.058  0.00  0.00    -0.004 C 
ATOM     26  C   UNL     1      34.652 -17.660 -21.508  0.00  0.00    +0.167 C 
ATOM     27  C   UNL     1      34.245 -16.656 -23.668  0.00  0.00    +0.032 C 
ATOM     28  C   UNL     1      34.536 -17.779 -22.894  0.00  0.00    +0.167 C 
ENDBRANCH  20  23
ENDBRANCH   1  20
TORSDOF 4
ENDMDL
MODEL 3
REMARK VINA RESULT:     -12.5      1.040      2.034
REMARK  Name = 16058752
REMARK  4 active torsions:
REMARK  status: ('A' for Active; 'I' for Inactive)
REMARK    1  A    between atoms: N_1  and  C_20
REMARK    2  A    between atoms: C_2  and  N_8
REMARK    3  A    between atoms: C_14  and  C_19
REMARK    4  A    between atoms: C_20  and  C_23
REMARK                            x       y       z     vdW  Elec       q    Type
REMARK                         _______ _______ _______ _____ _____    ______ ____
ROOT
ATOM      1  N   UNL     1      35.760 -19.968 -20.358  0.00  0.00    +0.390 N 
ATOM      2  C   UNL     1      34.755 -17.864 -22.149  0.00  0.00    +0.066 C 
ATOM      3  C   UNL     1      36.228 -18.279 -22.106  0.00  0.00    -0.003 C 
ATOM      4  C   UNL     1      33.869 -18.995 -21.624  0.00  0.00    -0.003 C 
ATOM      5  C   UNL     1      36.632 -18.851 -20.744  0.00  0.00    -0.075 C 
ATOM      6  C   UNL     1      34.356 -19.541 -20.279  0.00  0.00    -0.075 C 
ATOM      7  H   UNL     1      35.831 -20.687 -21.078  0.00  0.00    -0.079 HD
ENDROOT
BRANCH   2   8
ATOM      8  N   UNL     1      34.551 -16.662 -21.362  0.00  0.00    -0.318 N 
ATOM      9  N   UNL     1      33.965 -15.329 -23.250  0.00  0.00    -0.133 NA
ATOM     10  N   UNL     1      33.591 -14.135 -23.783  0.00  0.00    -0.143 NA
ATOM     11  C   UNL     1      34.171 -15.449 -21.906  0.00  0.00    +0.150 C 
ATOM     12  C   UNL     1      33.998 -14.353 -21.059  0.00  0.00    +0.037 C 
ATOM     13  C   UNL     1      33.618 -13.138 -21.602  0.00  0.00    +0.028 C 
ATOM     14  C   UNL     1      33.425 -13.073 -22.967  0.00  0.00    +0.174 C 
ATOM     15  H   UNL     1      34.692 -16.713 -20.389  0.00  0.00    +0.148 HD
BRANCH  14  19
ATOM     16  F   UNL     1      34.016 -10.861 -23.660  0.00  0.00    -0.164 F 
ATOM     17  F   UNL     1      32.584 -11.928 -24.891  0.00  0.00    -0.164 F 
ATOM     18  F   UNL     1      31.989 -11.177 -22.939  0.00  0.00    -0.164 F 
ATOM     19  C   UNL     1      33.014 -11.788 -23.602  0.00  0.00    +0.437 C 
ENDBRANCH  14  19
ENDBRANCH   2   8
BRANCH   1  20
ATOM     20  C   UNL     1      36.193 -20.539 -19.082  0.00  0.00    -0.050 C 
BRANCH  20  23
ATOM     21  F   UNL     1      34.197 -22.792 -15.256  0.00  0.00    -0.202 F 
ATOM     22  F   UNL     1      32.053 -23.556 -16.771  0.00  0.00    -0.202 F 
ATOM     23  C   UNL     1      35.085 -21.346 -18.463  0.00  0.00    -0.041 C 
ATOM     24  C   UNL     1      35.161 -21.698 -17.122  0.00  0.00    +0.026 C 
ATOM     25  C   UNL     1      34.000 -21.729 -19.241  0.00  0.00    -0.004 C 
ATOM     26  C   UNL     1      34.133 -22.446 -16.549  0.00  0.00    +0.167 C 
ATOM     27  C   UNL     1      32.973 -22.477 -18.667  0.00  0.00    +0.032 C 
ATOM     28  C   UNL     1      33.039 -22.836 -17.321  0.00  0.00    +0.167 C 
ENDBRANCH  20  23
ENDBRANCH   1  20
TORSDOF 4
ENDMDL
MODEL 4
REMARK VINA RESULT:     -12.1      3.194      9.973
REMARK  Name = 16058752
REMARK  4 active torsions:
REMARK  status: ('A' for Active; 'I' for Inactive)
REMARK    1  A    between atoms: N_1  and  C_20
REMARK    2  A    between atoms: C_2  and  N_8
REMARK    3  A    between atoms: C_14  and  C_19
REMARK    4  A    between atoms: C_20  and  C_23
REMARK                            x       y       z     vdW  Elec       q    Type
REMARK                         _______ _______ _______ _____ _____    ______ ____
ROOT
ATOM      1  N   UNL     1      34.454 -20.169 -20.557  0.00  0.00    +0.390 N 
ATOM      2  C   UNL     1      33.099 -22.277 -19.018  0.00  0.00    +0.066 C 
ATOM      3  C   UNL     1      32.385 -21.006 -19.486  0.00  0.00    -0.003 C 
ATOM      4  C   UNL     1      34.324 -22.550 -19.893  0.00  0.00    -0.003 C 
ATOM      5  C   UNL     1      33.348 -19.827 -19.654  0.00  0.00    -0.075 C 
ATOM      6  C   UNL     1      35.218 -21.316 -20.046  0.00  0.00    -0.075 C 
ATOM      7  H   UNL     1      34.056 -20.432 -21.458  0.00  0.00    -0.079 HD
ENDROOT
BRANCH   2   8
ATOM      8  N   UNL     1      33.495 -22.146 -17.629  0.00  0.00    -0.318 N 
ATOM      9  N   UNL     1      31.537 -23.226 -16.799  0.00  0.00    -0.133 NA
ATOM     10  N   UNL     1      30.789 -23.679 -15.758  0.00  0.00    -0.143 NA
ATOM     11  C   UNL     1      32.734 -22.608 -16.571  0.00  0.00    +0.150 C 
ATOM     12  C   UNL     1      33.207 -22.434 -15.270  0.00  0.00    +0.037 C 
ATOM     13  C   UNL     1      32.446 -22.895 -14.210  0.00  0.00    +0.028 C 
ATOM     14  C   UNL     1      31.245 -23.511 -14.498  0.00  0.00    +0.174 C 
ATOM     15  H   UNL     1      34.351 -21.704 -17.429  0.00  0.00    +0.148 HD
BRANCH  14  19
ATOM     16  F   UNL     1      30.932 -25.088 -12.726  0.00  0.00    -0.164 F 
ATOM     17  F   UNL     1      30.123 -23.098 -12.427  0.00  0.00    -0.164 F 
ATOM     18  F   UNL     1      29.168 -24.457 -13.830  0.00  0.00    -0.164 F 
ATOM     19  C   UNL     1      30.387 -24.027 -13.393  0.00  0.00    +0.437 C 
ENDBRANCH  14  19
ENDBRANCH   2   8
BRANCH   1  20
ATOM     20  C   UNL     1      35.333 -19.016 -20.751  0.00  0.00    -0.050 C 
BRANCH  20  23
ATOM     21  F   UNL     1      34.548 -14.650 -22.757  0.00  0.00    -0.202 F 
ATOM     22  F   UNL     1      33.474 -15.819 -24.983  0.00  0.00    -0.202 F 
ATOM     23  C   UNL     1      34.836 -18.160 -21.884  0.00  0.00    -0.041 C 
ATOM     24  C   UNL     1      34.927 -16.777 -21.789  0.00  0.00    +0.026 C 
ATOM     25  C   UNL     1      34.292 -18.764 -23.010  0.00  0.00    -0.004 C 
ATOM     26  C   UNL     1      34.466 -15.985 -22.839  0.00  0.00    +0.167 C 
ATOM     27  C   UNL     1      33.831 -17.970 -24.060  0.00  0.00    +0.032 C 
ATOM     28  C   UNL     1      33.918 -16.581 -23.975  0.00  0.00    +0.167 C 
ENDBRANCH  20  23
ENDBRANCH   1  20
TORSDOF 4
ENDMDL
MODEL 5
REMARK VINA RESULT:     -12.1      4.995     10.678
REMARK  Name = 16058752
REMARK  4 active torsions:
REMARK  status: ('A' for Active; 'I' for Inactive)
REMARK    1  A    between atoms: N_1  and  C_20
REMARK    2  A    between atoms: C_2  and  N_8
REMARK    3  A    between atoms: C_14  and  C_19
REMARK    4  A    between atoms: C_20  and  C_23
REMARK                            x       y       z     vdW  Elec       q    Type
REMARK                         _______ _______ _______ _____ _____    ______ ____
ROOT
ATOM      1  N   UNL     1      33.192 -22.444 -16.880  0.00  0.00    +0.390 N 
ATOM      2  C   UNL     1      33.987 -22.966 -14.098  0.00  0.00    +0.066 C 
ATOM      3  C   UNL     1      34.810 -22.085 -15.041  0.00  0.00    -0.003 C 
ATOM      4  C   UNL     1      32.533 -23.035 -14.569  0.00  0.00    -0.003 C 
ATOM      5  C   UNL     1      34.613 -22.465 -16.512  0.00  0.00    -0.075 C 
ATOM      6  C   UNL     1      32.417 -23.382 -16.056  0.00  0.00    -0.075 C 
ATOM      7  H   UNL     1      32.835 -21.504 -16.707  0.00  0.00    -0.079 HD
ENDROOT
BRANCH   2   8
ATOM      8  N   UNL     1      34.556 -24.299 -14.035  0.00  0.00    -0.318 N 
ATOM      9  N   UNL     1      36.800 -23.530 -14.281  0.00  0.00    -0.133 NA
ATOM     10  N   UNL     1      38.133 -23.783 -14.370  0.00  0.00    -0.143 NA
ATOM     11  C   UNL     1      35.912 -24.556 -14.124  0.00  0.00    +0.150 C 
ATOM     12  C   UNL     1      36.358 -25.876 -14.048  0.00  0.00    +0.037 C 
ATOM     13  C   UNL     1      37.715 -26.133 -14.138  0.00  0.00    +0.028 C 
ATOM     14  C   UNL     1      38.566 -25.060 -14.298  0.00  0.00    +0.174 C 
ATOM     15  H   UNL     1      33.944 -25.062 -13.922  0.00  0.00    +0.148 HD
BRANCH  14  19
ATOM     16  F   UNL     1      40.528 -26.134 -13.450  0.00  0.00    -0.164 F 
ATOM     17  F   UNL     1      40.428 -25.818 -15.594  0.00  0.00    -0.164 F 
ATOM     18  F   UNL     1      40.755 -24.130 -14.263  0.00  0.00    -0.164 F 
ATOM     19  C   UNL     1      40.037 -25.282 -14.399  0.00  0.00    +0.437 C 
ENDBRANCH  14  19
ENDBRANCH   2   8
BRANCH   1  20
ATOM     20  C   UNL     1      33.026 -22.754 -18.300  0.00  0.00    -0.050 C 
BRANCH  20  23
ATOM     21  F   UNL     1      36.381 -19.841 -20.289  0.00  0.00    -0.202 F 
ATOM     22  F   UNL     1      34.431 -18.323 -21.459  0.00  0.00    -0.202 F 
ATOM     23  C   UNL     1      33.402 -21.569 -19.146  0.00  0.00    -0.041 C 
ATOM     24  C   UNL     1      34.743 -21.253 -19.326  0.00  0.00    +0.026 C 
ATOM     25  C   UNL     1      32.404 -20.804 -19.736  0.00  0.00    -0.004 C 
ATOM     26  C   UNL     1      35.091 -20.154 -20.109  0.00  0.00    +0.167 C 
ATOM     27  C   UNL     1      32.753 -19.705 -20.520  0.00  0.00    +0.032 C 
ATOM     28  C   UNL     1      34.096 -19.379 -20.707  0.00  0.00    +0.167 C 
ENDBRANCH  20  23
ENDBRANCH   1  20
TORSDOF 4
ENDMDL
MODEL 6
REMARK VINA RESULT:     -12.1      4.759      7.593
REMARK  Name = 16058752
REMARK  4 active torsions:
REMARK  status: ('A' for Active; 'I' for Inactive)
REMARK    1  A    between atoms: N_1  and  C_20
REMARK    2  A    between atoms: C_2  and  N_8
REMARK    3  A    between atoms: C_14  and  C_19
REMARK    4  A    between atoms: C_20  and  C_23
REMARK                            x       y       z     vdW  Elec       q    Type
REMARK                         _______ _______ _______ _____ _____    ______ ____
ROOT
ATOM      1  N   UNL     1      33.361 -14.008 -22.760  0.00  0.00    +0.390 N 
ATOM      2  C   UNL     1      31.736 -11.618 -22.214  0.00  0.00    +0.066 C 
ATOM      3  C   UNL     1      31.418 -12.592 -23.351  0.00  0.00    -0.003 C 
ATOM      4  C   UNL     1      32.571 -12.314 -21.137  0.00  0.00    -0.003 C 
ATOM      5  C   UNL     1      32.665 -13.324 -23.857  0.00  0.00    -0.075 C 
ATOM      6  C   UNL     1      33.777 -13.055 -21.722  0.00  0.00    -0.075 C 
ATOM      7  H   UNL     1      32.710 -14.670 -22.338  0.00  0.00    -0.079 HD
ENDROOT
BRANCH   2   8
ATOM      8  N   UNL     1      32.447 -10.463 -22.730  0.00  0.00    -0.318 N 
ATOM      9  N   UNL     1      31.356  -8.933 -21.262  0.00  0.00    -0.133 NA
ATOM     10  N   UNL     1      31.167  -7.667 -20.803  0.00  0.00    -0.143 NA
ATOM     11  C   UNL     1      32.254  -9.176 -22.261  0.00  0.00    +0.150 C 
ATOM     12  C   UNL     1      32.992  -8.134 -22.824  0.00  0.00    +0.037 C 
ATOM     13  C   UNL     1      32.799  -6.846 -22.356  0.00  0.00    +0.028 C 
ATOM     14  C   UNL     1      31.879  -6.656 -21.346  0.00  0.00    +0.174 C 
ATOM     15  H   UNL     1      33.101 -10.604 -23.451  0.00  0.00    +0.148 HD
BRANCH  14  19
ATOM     16  F   UNL     1      30.310  -4.975 -20.690  0.00  0.00    -0.164 F 
ATOM     17  F   UNL     1      32.157  -5.091 -19.559  0.00  0.00    -0.164 F 
ATOM     18  F   UNL     1      32.175  -4.309 -21.589  0.00  0.00    -0.164 F 
ATOM     19  C   UNL     1      31.635  -5.289 -20.806  0.00  0.00    +0.437 C 
ENDBRANCH  14  19
ENDBRANCH   2   8
BRANCH   1  20
ATOM     20  C   UNL     1      34.516 -14.747 -23.268  0.00  0.00    -0.050 C 
BRANCH  20  23
ATOM     21  F   UNL     1      33.896 -19.515 -24.032  0.00  0.00    -0.202 F 
ATOM     22  F   UNL     1      34.434 -20.049 -21.404  0.00  0.00    -0.202 F 
ATOM     23  C   UNL     1      34.495 -16.166 -22.770  0.00  0.00    -0.041 C 
ATOM     24  C   UNL     1      34.200 -17.198 -23.652  0.00  0.00    +0.026 C 
ATOM     25  C   UNL     1      34.770 -16.427 -21.433  0.00  0.00    -0.004 C 
ATOM     26  C   UNL     1      34.180 -18.513 -23.189  0.00  0.00    +0.167 C 
ATOM     27  C   UNL     1      34.750 -17.742 -20.971  0.00  0.00    +0.032 C 
ATOM     28  C   UNL     1      34.454 -18.786 -21.848  0.00  0.00    +0.167 C 
ENDBRANCH  20  23
ENDBRANCH   1  20
TORSDOF 4
ENDMDL
MODEL 7
REMARK VINA RESULT:     -12.1      1.936      9.048
REMARK  Name = 16058752
REMARK  4 active torsions:
REMARK  status: ('A' for Active; 'I' for Inactive)
REMARK    1  A    between atoms: N_1  and  C_20
REMARK    2  A    between atoms: C_2  and  N_8
REMARK    3  A    between atoms: C_14  and  C_19
REMARK    4  A    between atoms: C_20  and  C_23
REMARK                            x       y       z     vdW  Elec       q    Type
REMARK                         _______ _______ _______ _____ _____    ______ ____
ROOT
ATOM      1  N   UNL     1      34.626 -16.391 -23.528  0.00  0.00    +0.390 N 
ATOM      2  C   UNL     1      34.956 -18.853 -21.955  0.00  0.00    +0.066 C 
ATOM      3  C   UNL     1      34.805 -18.860 -23.478  0.00  0.00    -0.003 C 
ATOM      4  C   UNL     1      35.468 -17.493 -21.478  0.00  0.00    -0.003 C 
ATOM      5  C   UNL     1      34.022 -17.647 -23.991  0.00  0.00    -0.075 C 
ATOM      6  C   UNL     1      34.661 -16.329 -22.060  0.00  0.00    -0.075 C 
ATOM      7  H   UNL     1      35.587 -16.360 -23.868  0.00  0.00    -0.079 HD
ENDROOT
BRANCH   2   8
ATOM      8  N   UNL     1      33.685 -19.159 -21.326  0.00  0.00    -0.318 N 
ATOM      9  N   UNL     1      34.635 -20.720 -19.793  0.00  0.00    -0.133 NA
ATOM     10  N   UNL     1      34.496 -21.606 -18.771  0.00  0.00    -0.143 NA
ATOM     11  C   UNL     1      33.546 -20.060 -20.285  0.00  0.00    +0.150 C 
ATOM     12  C   UNL     1      32.277 -20.280 -19.747  0.00  0.00    +0.037 C 
ATOM     13  C   UNL     1      32.136 -21.182 -18.707  0.00  0.00    +0.028 C 
ATOM     14  C   UNL     1      33.269 -21.822 -18.249  0.00  0.00    +0.174 C 
ATOM     15  H   UNL     1      32.879 -18.701 -21.657  0.00  0.00    +0.148 HD
BRANCH  14  19
ATOM     16  F   UNL     1      34.328 -22.928 -16.412  0.00  0.00    -0.164 F 
ATOM     17  F   UNL     1      32.214 -22.486 -16.208  0.00  0.00    -0.164 F 
ATOM     18  F   UNL     1      32.868 -24.061 -17.557  0.00  0.00    -0.164 F 
ATOM     19  C   UNL     1      33.173 -22.801 -17.130  0.00  0.00    +0.437 C 
ENDBRANCH  14  19
ENDBRANCH   2   8
BRANCH   1  20
ATOM     20  C   UNL     1      33.900 -15.243 -24.071  0.00  0.00    -0.050 C 
BRANCH  20  23
ATOM     21  F   UNL     1      31.408 -11.364 -22.505  0.00  0.00    -0.202 F 
ATOM     22  F   UNL     1      32.120 -11.899 -19.920  0.00  0.00    -0.202 F 
ATOM     23  C   UNL     1      33.423 -14.348 -22.960  0.00  0.00    -0.041 C 
ATOM     24  C   UNL     1      32.622 -13.253 -23.258  0.00  0.00    +0.026 C 
ATOM     25  C   UNL     1      33.790 -14.628 -21.650  0.00  0.00    -0.004 C 
ATOM     26  C   UNL     1      32.181 -12.424 -22.228  0.00  0.00    +0.167 C 
ATOM     27  C   UNL     1      33.348 -13.798 -20.620  0.00  0.00    +0.032 C 
ATOM     28  C   UNL     1      32.543 -12.696 -20.908  0.00  0.00    +0.167 C 
ENDBRANCH  20  23
ENDBRANCH   1  20
TORSDOF 4
ENDMDL
MODEL 8
REMARK VINA RESULT:     -12.0      4.602      7.158
REMARK  Name = 16058752
REMARK  4 active torsions:
REMARK  status: ('A' for Active; 'I' for Inactive)
REMARK    1  A    between atoms: N_1  and  C_20
REMARK    2  A    between atoms: C_2  and  N_8
REMARK    3  A    between atoms: C_14  and  C_19
REMARK    4  A    between atoms: C_20  and  C_23
REMARK                            x       y       z     vdW  Elec       q    Type
REMARK                         _______ _______ _______ _____ _____    ______ ____
ROOT
ATOM      1  N   UNL     1      33.410 -14.652 -23.730  0.00  0.00    +0.390 N 
ATOM      2  C   UNL     1      32.544 -11.954 -22.947  0.00  0.00    +0.066 C 
ATOM      3  C   UNL     1      31.969 -12.686 -24.162  0.00  0.00    -0.003 C 
ATOM      4  C   UNL     1      33.127 -12.956 -21.949  0.00  0.00    -0.003 C 
ATOM      5  C   UNL     1      32.955 -13.700 -24.751  0.00  0.00    -0.075 C 
ATOM      6  C   UNL     1      34.072 -13.959 -22.616  0.00  0.00    -0.075 C 
ATOM      7  H   UNL     1      32.590 -15.132 -23.359  0.00  0.00    -0.079 HD
ENDROOT
BRANCH   2   8
ATOM      8  N   UNL     1      33.565 -11.013 -23.367  0.00  0.00    -0.318 N 
ATOM      9  N   UNL     1      32.242  -9.096 -22.856  0.00  0.00    -0.133 NA
ATOM     10  N   UNL     1      32.087  -7.746 -22.809  0.00  0.00    -0.143 NA
ATOM     11  C   UNL     1      33.407  -9.640 -23.317  0.00  0.00    +0.150 C 
ATOM     12  C   UNL     1      34.454  -8.822 -23.743  0.00  0.00    +0.037 C 
ATOM     13  C   UNL     1      34.296  -7.448 -23.694  0.00  0.00    +0.028 C 
ATOM     14  C   UNL     1      33.099  -6.952 -23.221  0.00  0.00    +0.174 C 
ATOM     15  H   UNL     1      34.417 -11.372 -23.706  0.00  0.00    +0.148 HD
BRANCH  14  19
ATOM     16  F   UNL     1      33.877  -4.747 -23.723  0.00  0.00    -0.164 F 
ATOM     17  F   UNL     1      31.731  -5.067 -23.767  0.00  0.00    -0.164 F 
ATOM     18  F   UNL     1      32.783  -5.025 -21.864  0.00  0.00    -0.164 F 
ATOM     19  C   UNL     1      32.877  -5.480 -23.147  0.00  0.00    +0.437 C 
ENDBRANCH  14  19
ENDBRANCH   2   8
BRANCH   1  20
ATOM     20  C   UNL     1      34.307 -15.646 -24.319  0.00  0.00    -0.050 C 
BRANCH  20  23
ATOM     21  F   UNL     1      36.247 -18.012 -20.532  0.00  0.00    -0.202 F 
ATOM     22  F   UNL     1      34.659 -20.184 -21.022  0.00  0.00    -0.202 F 
ATOM     23  C   UNL     1      34.401 -16.860 -23.436  0.00  0.00    -0.041 C 
ATOM     24  C   UNL     1      35.298 -16.868 -22.376  0.00  0.00    +0.026 C 
ATOM     25  C   UNL     1      33.589 -17.958 -23.693  0.00  0.00    -0.004 C 
ATOM     26  C   UNL     1      35.384 -17.994 -21.558  0.00  0.00    +0.167 C 
ATOM     27  C   UNL     1      33.677 -19.084 -22.874  0.00  0.00    +0.032 C 
ATOM     28  C   UNL     1      34.574 -19.103 -21.807  0.00  0.00    +0.167 C 
ENDBRANCH  20  23
ENDBRANCH   1  20
TORSDOF 4
ENDMDL
MODEL 9
REMARK VINA RESULT:     -11.9      6.229     12.593
REMARK  Name = 16058752
REMARK  4 active torsions:
REMARK  status: ('A' for Active; 'I' for Inactive)
REMARK    1  A    between atoms: N_1  and  C_20
REMARK    2  A    between atoms: C_2  and  N_8
REMARK    3  A    between atoms: C_14  and  C_19
REMARK    4  A    between atoms: C_20  and  C_23
REMARK                            x       y       z     vdW  Elec       q    Type
REMARK                         _______ _______ _______ _____ _____    ______ ____
ROOT
ATOM      1  N   UNL     1      31.861  -7.954 -21.572  0.00  0.00    +0.390 N 
ATOM      2  C   UNL     1      30.956 -10.747 -21.728  0.00  0.00    +0.066 C 
ATOM      3  C   UNL     1      30.412  -9.759 -20.693  0.00  0.00    -0.003 C 
ATOM      4  C   UNL     1      31.528  -9.996 -22.931  0.00  0.00    -0.003 C 
ATOM      5  C   UNL     1      31.419  -8.653 -20.359  0.00  0.00    -0.075 C 
ATOM      6  C   UNL     1      32.495  -8.883 -22.518  0.00  0.00    -0.075 C 
ATOM      7  H   UNL     1      31.038  -7.557 -22.025  0.00  0.00    -0.079 HD
ENDROOT
BRANCH   2   8
ATOM      8  N   UNL     1      31.977 -11.586 -21.129  0.00  0.00    -0.318 N 
ATOM      9  N   UNL     1      32.144 -13.020 -23.027  0.00  0.00    -0.133 NA
ATOM     10  N   UNL     1      32.698 -14.092 -23.652  0.00  0.00    -0.143 NA
ATOM     11  C   UNL     1      32.541 -12.676 -21.766  0.00  0.00    +0.150 C 
ATOM     12  C   UNL     1      33.519 -13.416 -21.103  0.00  0.00    +0.037 C 
ATOM     13  C   UNL     1      34.083 -14.508 -21.740  0.00  0.00    +0.028 C 
ATOM     14  C   UNL     1      33.645 -14.811 -23.012  0.00  0.00    +0.174 C 
ATOM     15  H   UNL     1      32.286 -11.366 -20.220  0.00  0.00    +0.148 HD
BRANCH  14  19
ATOM     16  F   UNL     1      35.196 -16.631 -23.045  0.00  0.00    -0.164 F 
ATOM     17  F   UNL     1      33.299 -16.937 -24.051  0.00  0.00    -0.164 F 
ATOM     18  F   UNL     1      34.793 -15.623 -24.929  0.00  0.00    -0.164 F 
ATOM     19  C   UNL     1      34.220 -15.976 -23.742  0.00  0.00    +0.437 C 
ENDBRANCH  14  19
ENDBRANCH   2   8
BRANCH   1  20
ATOM     20  C   UNL     1      32.778  -6.866 -21.230  0.00  0.00    -0.050 C 
BRANCH  20  23
ATOM     21  F   UNL     1      34.799  -4.618 -25.047  0.00  0.00    -0.202 F 
ATOM     22  F   UNL     1      32.685  -2.891 -25.203  0.00  0.00    -0.202 F 
ATOM     23  C   UNL     1      32.753  -5.803 -22.294  0.00  0.00    -0.041 C 
ATOM     24  C   UNL     1      33.809  -5.706 -23.191  0.00  0.00    +0.026 C 
ATOM     25  C   UNL     1      31.674  -4.931 -22.365  0.00  0.00    -0.004 C 
ATOM     26  C   UNL     1      33.785  -4.720 -24.176  0.00  0.00    +0.167 C 
ATOM     27  C   UNL     1      31.651  -3.945 -23.351  0.00  0.00    +0.032 C 
ATOM     28  C   UNL     1      32.706  -3.839 -24.257  0.00  0.00    +0.167 C 
ENDBRANCH  20  23
ENDBRANCH   1  20
TORSDOF 4
ENDMDL
