MODEL 1
REMARK VINA RESULT:     -12.0      0.000      0.000
REMARK  Name = 24988948
REMARK  5 active torsions:
REMARK  status: ('A' for Active; 'I' for Inactive)
REMARK    1  A    between atoms: N_2  and  C_21
REMARK    2  A    between atoms: C_6  and  O_11
REMARK    3  A    between atoms: O_11  and  C_13
REMARK    4  A    between atoms: C_16  and  C_20
REMARK    5  A    between atoms: C_21  and  C_25
REMARK                            x       y       z     vdW  Elec       q    Type
REMARK                         _______ _______ _______ _____ _____    ______ ____
ROOT
ATOM      1 CL   UNL     1      33.196 -15.320 -25.575  0.00  0.00    -0.079 Cl
ATOM      2  N   UNL     1      34.748 -19.101 -21.426  0.00  0.00    -0.205 N 
ATOM      3  N   UNL     1      35.408 -18.351 -20.528  0.00  0.00    -0.176 NA
ATOM      4  C   UNL     1      34.284 -18.402 -22.509  0.00  0.00    +0.074 C 
ATOM      5  C   UNL     1      34.679 -17.087 -22.292  0.00  0.00    +0.071 C 
ATOM      6  C   UNL     1      34.349 -16.104 -23.240  0.00  0.00    +0.158 C 
ATOM      7  C   UNL     1      35.363 -17.126 -21.058  0.00  0.00    +0.122 C 
ATOM      8  C   UNL     1      33.567 -18.806 -23.637  0.00  0.00    +0.017 C 
ATOM      9  C   UNL     1      33.630 -16.488 -24.379  0.00  0.00    +0.092 C 
ATOM     10  C   UNL     1      33.246 -17.817 -24.572  0.00  0.00    +0.016 C 
ENDROOT
BRANCH   6  11
ATOM     11  O   UNL     1      34.725 -14.802 -23.051  0.00  0.00    -0.453 OA
BRANCH  11  13
ATOM     12 CL   UNL     1      31.583 -14.022 -19.104  0.00  0.00    -0.082 Cl
ATOM     13  C   UNL     1      33.829 -13.967 -22.413  0.00  0.00    +0.147 C 
ATOM     14  C   UNL     1      33.522 -12.723 -22.964  0.00  0.00    +0.048 C 
ATOM     15  C   UNL     1      33.228 -14.369 -21.221  0.00  0.00    +0.049 C 
ATOM     16  C   UNL     1      32.616 -11.880 -22.320  0.00  0.00    +0.072 C 
ATOM     17  C   UNL     1      32.322 -13.526 -20.576  0.00  0.00    +0.061 C 
ATOM     18  C   UNL     1      32.016 -12.281 -21.126  0.00  0.00    +0.022 C 
BRANCH  16  20
ATOM     19  N   UNL     1      32.050  -9.569 -23.342  0.00  0.00    -0.191 NA
ATOM     20  C   UNL     1      32.304 -10.604 -22.884  0.00  0.00    +0.101 C 
ENDBRANCH  16  20
ENDBRANCH  11  13
ENDBRANCH   6  11
BRANCH   2  21
ATOM     21  C   UNL     1      34.593 -20.516 -21.181  0.00  0.00    +0.159 C 
BRANCH  21  25
ATOM     22  N   UNL     1      36.182 -20.665 -19.237  0.00  0.00    -0.230 N 
ATOM     23  N   UNL     1      36.342 -21.090 -17.966  0.00  0.00    -0.128 NA
ATOM     24  N   UNL     1      34.783 -22.232 -16.500  0.00  0.00    -0.192 NA
ATOM     25  C   UNL     1      34.950 -20.921 -19.773  0.00  0.00    +0.071 C 
ATOM     26  C   UNL     1      34.263 -21.558 -18.777  0.00  0.00    +0.058 C 
ATOM     27  C   UNL     1      35.161 -21.644 -17.670  0.00  0.00    +0.049 C 
ATOM     28  C   UNL     1      32.956 -22.017 -18.853  0.00  0.00    +0.065 C 
ATOM     29  C   UNL     1      32.589 -22.617 -17.643  0.00  0.00    +0.001 C 
ATOM     30  C   UNL     1      33.492 -22.693 -16.556  0.00  0.00    +0.105 C 
ATOM     31  H   UNL     1      36.896 -20.207 -19.738  0.00  0.00    +0.175 HD
ENDBRANCH  21  25
ENDBRANCH   2  21
TORSDOF 5
ENDMDL
MODEL 2
REMARK VINA RESULT:     -11.6      4.369      9.109
REMARK  Name = 24988948
REMARK  5 active torsions:
REMARK  status: ('A' for Active; 'I' for Inactive)
REMARK    1  A    between atoms: N_2  and  C_21
REMARK    2  A    between atoms: C_6  and  O_11
REMARK    3  A    between atoms: O_11  and  C_13
REMARK    4  A    between atoms: C_16  and  C_20
REMARK    5  A    between atoms: C_21  and  C_25
REMARK                            x       y       z     vdW  Elec       q    Type
REMARK                         _______ _______ _______ _____ _____    ______ ____
ROOT
ATOM      1 CL   UNL     1      35.389 -23.490 -15.731  0.00  0.00    -0.079 Cl
ATOM      2  N   UNL     1      34.491 -19.853 -20.190  0.00  0.00    -0.205 N 
ATOM      3  N   UNL     1      33.270 -20.184 -20.643  0.00  0.00    -0.176 NA
ATOM      4  C   UNL     1      34.914 -20.598 -19.122  0.00  0.00    +0.074 C 
ATOM      5  C   UNL     1      33.876 -21.485 -18.862  0.00  0.00    +0.071 C 
ATOM      6  C   UNL     1      34.004 -22.402 -17.804  0.00  0.00    +0.158 C 
ATOM      7  C   UNL     1      32.899 -21.177 -19.832  0.00  0.00    +0.122 C 
ATOM      8  C   UNL     1      36.095 -20.567 -18.378  0.00  0.00    +0.017 C 
ATOM      9  C   UNL     1      35.181 -22.387 -17.045  0.00  0.00    +0.092 C 
ATOM     10  C   UNL     1      36.207 -21.485 -17.328  0.00  0.00    +0.016 C 
ENDROOT
BRANCH   6  11
ATOM     11  O   UNL     1      32.998 -23.287 -17.526  0.00  0.00    -0.453 OA
BRANCH  11  13
ATOM     12 CL   UNL     1      32.125 -22.530 -12.553  0.00  0.00    -0.082 Cl
ATOM     13  C   UNL     1      32.103 -22.942 -16.532  0.00  0.00    +0.147 C 
ATOM     14  C   UNL     1      30.786 -22.622 -16.860  0.00  0.00    +0.048 C 
ATOM     15  C   UNL     1      32.517 -22.914 -15.200  0.00  0.00    +0.049 C 
ATOM     16  C   UNL     1      29.882 -22.274 -15.856  0.00  0.00    +0.072 C 
ATOM     17  C   UNL     1      31.614 -22.565 -14.196  0.00  0.00    +0.061 C 
ATOM     18  C   UNL     1      30.296 -22.246 -14.524  0.00  0.00    +0.022 C 
BRANCH  16  20
ATOM     19  N   UNL     1      27.437 -21.679 -16.466  0.00  0.00    -0.191 NA
ATOM     20  C   UNL     1      28.532 -21.946 -16.193  0.00  0.00    +0.101 C 
ENDBRANCH  16  20
ENDBRANCH  11  13
ENDBRANCH   6  11
BRANCH   2  21
ATOM     21  C   UNL     1      35.219 -18.789 -20.843  0.00  0.00    +0.159 C 
BRANCH  21  25
ATOM     22  N   UNL     1      34.240 -19.325 -23.097  0.00  0.00    -0.230 N 
ATOM     23  N   UNL     1      33.735 -18.809 -24.238  0.00  0.00    -0.128 NA
ATOM     24  N   UNL     1      33.421 -16.494 -24.892  0.00  0.00    -0.192 NA
ATOM     25  C   UNL     1      34.632 -18.394 -22.176  0.00  0.00    +0.071 C 
ATOM     26  C   UNL     1      34.362 -17.188 -22.761  0.00  0.00    +0.058 C 
ATOM     27  C   UNL     1      33.805 -17.487 -24.041  0.00  0.00    +0.049 C 
ATOM     28  C   UNL     1      34.591 -15.940 -22.200  0.00  0.00    +0.065 C 
ATOM     29  C   UNL     1      34.191 -14.937 -23.089  0.00  0.00    +0.001 C 
ATOM     30  C   UNL     1      33.641 -15.251 -24.355  0.00  0.00    +0.105 C 
ATOM     31  H   UNL     1      34.320 -20.294 -22.943  0.00  0.00    +0.175 HD
ENDBRANCH  21  25
ENDBRANCH   2  21
TORSDOF 5
ENDMDL
MODEL 3
REMARK VINA RESULT:     -11.5      3.103      5.655
REMARK  Name = 24988948
REMARK  5 active torsions:
REMARK  status: ('A' for Active; 'I' for Inactive)
REMARK    1  A    between atoms: N_2  and  C_21
REMARK    2  A    between atoms: C_6  and  O_11
REMARK    3  A    between atoms: O_11  and  C_13
REMARK    4  A    between atoms: C_16  and  C_20
REMARK    5  A    between atoms: C_21  and  C_25
REMARK                            x       y       z     vdW  Elec       q    Type
REMARK                         _______ _______ _______ _____ _____    ______ ____
ROOT
ATOM      1 CL   UNL     1      31.925 -11.623 -19.752  0.00  0.00    -0.079 Cl
ATOM      2  N   UNL     1      33.690 -14.705 -24.368  0.00  0.00    -0.205 N 
ATOM      3  N   UNL     1      33.062 -14.129 -25.407  0.00  0.00    -0.176 NA
ATOM      4  C   UNL     1      33.414 -14.130 -23.157  0.00  0.00    +0.074 C 
ATOM      5  C   UNL     1      32.532 -13.092 -23.437  0.00  0.00    +0.071 C 
ATOM      6  C   UNL     1      32.052 -12.294 -22.385  0.00  0.00    +0.158 C 
ATOM      7  C   UNL     1      32.359 -13.147 -24.837  0.00  0.00    +0.122 C 
ATOM      8  C   UNL     1      33.855 -14.427 -21.866  0.00  0.00    +0.017 C 
ATOM      9  C   UNL     1      32.482 -12.575 -21.082  0.00  0.00    +0.092 C 
ATOM     10  C   UNL     1      33.368 -13.624 -20.829  0.00  0.00    +0.016 C 
ENDROOT
BRANCH   6  11
ATOM     11  O   UNL     1      31.183 -11.266 -22.633  0.00  0.00    -0.453 OA
BRANCH  11  13
ATOM     12 CL   UNL     1      35.153  -8.376 -24.032  0.00  0.00    -0.082 Cl
ATOM     13  C   UNL     1      31.719 -10.002 -22.779  0.00  0.00    +0.147 C 
ATOM     14  C   UNL     1      30.966  -8.880 -22.430  0.00  0.00    +0.048 C 
ATOM     15  C   UNL     1      33.014  -9.845 -23.274  0.00  0.00    +0.049 C 
ATOM     16  C   UNL     1      31.507  -7.604 -22.577  0.00  0.00    +0.072 C 
ATOM     17  C   UNL     1      33.556  -8.568 -23.421  0.00  0.00    +0.061 C 
ATOM     18  C   UNL     1      32.802  -7.447 -23.072  0.00  0.00    +0.022 C 
BRANCH  16  20
ATOM     19  N   UNL     1      30.107  -5.524 -21.932  0.00  0.00    -0.191 NA
ATOM     20  C   UNL     1      30.735  -6.455 -22.221  0.00  0.00    +0.101 C 
ENDBRANCH  16  20
ENDBRANCH  11  13
ENDBRANCH   6  11
BRANCH   2  21
ATOM     21  C   UNL     1      34.561 -15.832 -24.610  0.00  0.00    +0.159 C 
BRANCH  21  25
ATOM     22  N   UNL     1      33.055 -17.823 -24.296  0.00  0.00    -0.230 N 
ATOM     23  N   UNL     1      32.805 -18.915 -23.543  0.00  0.00    -0.128 NA
ATOM     24  N   UNL     1      33.970 -19.760 -21.591  0.00  0.00    -0.192 NA
ATOM     25  C   UNL     1      34.132 -17.085 -23.888  0.00  0.00    +0.071 C 
ATOM     26  C   UNL     1      34.614 -17.747 -22.793  0.00  0.00    +0.058 C 
ATOM     27  C   UNL     1      33.763 -18.880 -22.610  0.00  0.00    +0.049 C 
ATOM     28  C   UNL     1      35.712 -17.373 -22.031  0.00  0.00    +0.065 C 
ATOM     29  C   UNL     1      35.906 -18.289 -20.992  0.00  0.00    +0.001 C 
ATOM     30  C   UNL     1      35.052 -19.406 -20.825  0.00  0.00    +0.105 C 
ATOM     31  H   UNL     1      32.506 -17.577 -25.075  0.00  0.00    +0.175 HD
ENDBRANCH  21  25
ENDBRANCH   2  21
TORSDOF 5
ENDMDL
MODEL 4
REMARK VINA RESULT:     -11.4      4.800     10.560
REMARK  Name = 24988948
REMARK  5 active torsions:
REMARK  status: ('A' for Active; 'I' for Inactive)
REMARK    1  A    between atoms: N_2  and  C_21
REMARK    2  A    between atoms: C_6  and  O_11
REMARK    3  A    between atoms: O_11  and  C_13
REMARK    4  A    between atoms: C_16  and  C_20
REMARK    5  A    between atoms: C_21  and  C_25
REMARK                            x       y       z     vdW  Elec       q    Type
REMARK                         _______ _______ _______ _____ _____    ______ ____
ROOT
ATOM      1 CL   UNL     1      33.062 -23.472 -14.500  0.00  0.00    -0.079 Cl
ATOM      2  N   UNL     1      35.173 -20.893 -19.276  0.00  0.00    -0.205 N 
ATOM      3  N   UNL     1      36.339 -20.359 -18.874  0.00  0.00    -0.176 NA
ATOM      4  C   UNL     1      34.493 -21.561 -18.293  0.00  0.00    +0.074 C 
ATOM      5  C   UNL     1      35.286 -21.449 -17.158  0.00  0.00    +0.071 C 
ATOM      6  C   UNL     1      34.857 -22.040 -15.958  0.00  0.00    +0.158 C 
ATOM      7  C   UNL     1      36.404 -20.700 -17.584  0.00  0.00    +0.122 C 
ATOM      8  C   UNL     1      33.272 -22.239 -18.306  0.00  0.00    +0.017 C 
ATOM      9  C   UNL     1      33.636 -22.725 -15.949  0.00  0.00    +0.092 C 
ATOM     10  C   UNL     1      32.858 -22.821 -17.104  0.00  0.00    +0.016 C 
ENDROOT
BRANCH   6  11
ATOM     11  O   UNL     1      35.619 -21.944 -14.825  0.00  0.00    -0.453 OA
BRANCH  11  13
ATOM     12 CL   UNL     1      37.263 -26.778 -14.792  0.00  0.00    -0.082 Cl
ATOM     13  C   UNL     1      35.838 -23.104 -14.106  0.00  0.00    +0.147 C 
ATOM     14  C   UNL     1      35.519 -23.154 -12.749  0.00  0.00    +0.048 C 
ATOM     15  C   UNL     1      36.377 -24.224 -14.738  0.00  0.00    +0.049 C 
ATOM     16  C   UNL     1      35.740 -24.324 -12.024  0.00  0.00    +0.072 C 
ATOM     17  C   UNL     1      36.598 -25.395 -14.013  0.00  0.00    +0.061 C 
ATOM     18  C   UNL     1      36.279 -25.445 -12.656  0.00  0.00    +0.022 C 
BRANCH  16  20
ATOM     19  N   UNL     1      35.149 -24.416  -9.505  0.00  0.00    -0.191 NA
ATOM     20  C   UNL     1      35.413 -24.375 -10.633  0.00  0.00    +0.101 C 
ENDBRANCH  16  20
ENDBRANCH  11  13
ENDBRANCH   6  11
BRANCH   2  21
ATOM     21  C   UNL     1      34.760 -20.722 -20.650  0.00  0.00    +0.159 C 
BRANCH  21  25
ATOM     22  N   UNL     1      35.379 -18.302 -20.354  0.00  0.00    -0.230 N 
ATOM     23  N   UNL     1      35.357 -17.076 -20.918  0.00  0.00    -0.128 NA
ATOM     24  N   UNL     1      34.487 -16.367 -23.068  0.00  0.00    -0.192 NA
ATOM     25  C   UNL     1      34.823 -19.290 -21.119  0.00  0.00    +0.071 C 
ATOM     26  C   UNL     1      34.411 -18.658 -22.260  0.00  0.00    +0.058 C 
ATOM     27  C   UNL     1      34.761 -17.283 -22.098  0.00  0.00    +0.049 C 
ATOM     28  C   UNL     1      33.784 -19.257 -23.343  0.00  0.00    +0.065 C 
ATOM     29  C   UNL     1      33.511 -18.300 -24.326  0.00  0.00    +0.001 C 
ATOM     30  C   UNL     1      33.865 -16.941 -24.148  0.00  0.00    +0.105 C 
ATOM     31  H   UNL     1      35.763 -18.471 -19.464  0.00  0.00    +0.175 HD
ENDBRANCH  21  25
ENDBRANCH   2  21
TORSDOF 5
ENDMDL
MODEL 5
REMARK VINA RESULT:     -11.3      4.870     10.566
REMARK  Name = 24988948
REMARK  5 active torsions:
REMARK  status: ('A' for Active; 'I' for Inactive)
REMARK    1  A    between atoms: N_2  and  C_21
REMARK    2  A    between atoms: C_6  and  O_11
REMARK    3  A    between atoms: O_11  and  C_13
REMARK    4  A    between atoms: C_16  and  C_20
REMARK    5  A    between atoms: C_21  and  C_25
REMARK                            x       y       z     vdW  Elec       q    Type
REMARK                         _______ _______ _______ _____ _____    ______ ____
ROOT
ATOM      1 CL   UNL     1      31.790 -23.368 -14.267  0.00  0.00    -0.079 Cl
ATOM      2  N   UNL     1      34.924 -21.504 -18.808  0.00  0.00    -0.205 N 
ATOM      3  N   UNL     1      36.147 -21.286 -18.296  0.00  0.00    -0.176 NA
ATOM      4  C   UNL     1      34.007 -21.955 -17.897  0.00  0.00    +0.074 C 
ATOM      5  C   UNL     1      34.696 -22.036 -16.693  0.00  0.00    +0.071 C 
ATOM      6  C   UNL     1      34.021 -22.476 -15.542  0.00  0.00    +0.158 C 
ATOM      7  C   UNL     1      36.005 -21.612 -17.009  0.00  0.00    +0.122 C 
ATOM      8  C   UNL     1      32.657 -22.291 -18.027  0.00  0.00    +0.017 C 
ATOM      9  C   UNL     1      32.667 -22.819 -15.650  0.00  0.00    +0.092 C 
ATOM     10  C   UNL     1      31.999 -22.727 -16.872  0.00  0.00    +0.016 C 
ENDROOT
BRANCH   6  11
ATOM     11  O   UNL     1      34.676 -22.565 -14.344  0.00  0.00    -0.453 OA
BRANCH  11  13
ATOM     12 CL   UNL     1      37.924 -25.061 -11.297  0.00  0.00    -0.082 Cl
ATOM     13  C   UNL     1      35.456 -23.685 -14.127  0.00  0.00    +0.147 C 
ATOM     14  C   UNL     1      35.491 -24.704 -15.078  0.00  0.00    +0.048 C 
ATOM     15  C   UNL     1      36.209 -23.795 -12.958  0.00  0.00    +0.049 C 
ATOM     16  C   UNL     1      36.279 -25.834 -14.860  0.00  0.00    +0.072 C 
ATOM     17  C   UNL     1      36.996 -24.925 -12.739  0.00  0.00    +0.061 C 
ATOM     18  C   UNL     1      37.032 -25.945 -13.690  0.00  0.00    +0.022 C 
BRANCH  16  20
ATOM     19  N   UNL     1      36.342 -27.728 -16.625  0.00  0.00    -0.191 NA
ATOM     20  C   UNL     1      36.314 -26.879 -15.834  0.00  0.00    +0.101 C 
ENDBRANCH  16  20
ENDBRANCH  11  13
ENDBRANCH   6  11
BRANCH   2  21
ATOM     21  C   UNL     1      34.695 -21.253 -20.212  0.00  0.00    +0.159 C 
BRANCH  21  25
ATOM     22  N   UNL     1      36.105 -19.180 -20.001  0.00  0.00    -0.230 N 
ATOM     23  N   UNL     1      36.367 -17.961 -20.517  0.00  0.00    -0.128 NA
ATOM     24  N   UNL     1      35.362 -16.822 -22.408  0.00  0.00    -0.192 NA
ATOM     25  C   UNL     1      35.120 -19.873 -20.649  0.00  0.00    +0.071 C 
ATOM     26  C   UNL     1      34.716 -19.043 -21.658  0.00  0.00    +0.058 C 
ATOM     27  C   UNL     1      35.514 -17.864 -21.543  0.00  0.00    +0.049 C 
ATOM     28  C   UNL     1      33.727 -19.315 -22.592  0.00  0.00    +0.065 C 
ATOM     29  C   UNL     1      33.587 -18.234 -23.469  0.00  0.00    +0.001 C 
ATOM     30  C   UNL     1      34.387 -17.074 -23.340  0.00  0.00    +0.105 C 
ATOM     31  H   UNL     1      36.584 -19.541 -19.220  0.00  0.00    +0.175 HD
ENDBRANCH  21  25
ENDBRANCH   2  21
TORSDOF 5
ENDMDL
MODEL 6
REMARK VINA RESULT:     -11.3      4.167      9.466
REMARK  Name = 24988948
REMARK  5 active torsions:
REMARK  status: ('A' for Active; 'I' for Inactive)
REMARK    1  A    between atoms: N_2  and  C_21
REMARK    2  A    between atoms: C_6  and  O_11
REMARK    3  A    between atoms: O_11  and  C_13
REMARK    4  A    between atoms: C_16  and  C_20
REMARK    5  A    between atoms: C_21  and  C_25
REMARK                            x       y       z     vdW  Elec       q    Type
REMARK                         _______ _______ _______ _____ _____    ______ ____
ROOT
ATOM      1 CL   UNL     1      35.136 -23.456 -16.126  0.00  0.00    -0.079 Cl
ATOM      2  N   UNL     1      34.321 -19.642 -20.451  0.00  0.00    -0.205 N 
ATOM      3  N   UNL     1      33.052 -19.853 -20.840  0.00  0.00    -0.176 NA
ATOM      4  C   UNL     1      34.734 -20.448 -19.423  0.00  0.00    +0.074 C 
ATOM      5  C   UNL     1      33.638 -21.248 -19.123  0.00  0.00    +0.071 C 
ATOM      6  C   UNL     1      33.741 -22.199 -18.094  0.00  0.00    +0.158 C 
ATOM      7  C   UNL     1      32.640 -20.831 -20.030  0.00  0.00    +0.122 C 
ATOM      8  C   UNL     1      35.952 -20.539 -18.747  0.00  0.00    +0.017 C 
ATOM      9  C   UNL     1      34.955 -22.306 -17.402  0.00  0.00    +0.092 C 
ATOM     10  C   UNL     1      36.040 -21.490 -17.725  0.00  0.00    +0.016 C 
ENDROOT
BRANCH   6  11
ATOM     11  O   UNL     1      32.678 -23.000 -17.778  0.00  0.00    -0.453 OA
BRANCH  11  13
ATOM     12 CL   UNL     1      28.655 -21.790 -14.876  0.00  0.00    -0.082 Cl
ATOM     13  C   UNL     1      32.141 -22.874 -16.511  0.00  0.00    +0.147 C 
ATOM     14  C   UNL     1      32.918 -23.174 -15.392  0.00  0.00    +0.048 C 
ATOM     15  C   UNL     1      30.824 -22.445 -16.351  0.00  0.00    +0.049 C 
ATOM     16  C   UNL     1      32.376 -23.046 -14.113  0.00  0.00    +0.072 C 
ATOM     17  C   UNL     1      30.281 -22.318 -15.073  0.00  0.00    +0.061 C 
ATOM     18  C   UNL     1      31.058 -22.617 -13.953  0.00  0.00    +0.022 C 
BRANCH  16  20
ATOM     19  N   UNL     1      33.817 -23.604 -12.036  0.00  0.00    -0.191 NA
ATOM     20  C   UNL     1      33.171 -23.354 -12.966  0.00  0.00    +0.101 C 
ENDBRANCH  16  20
ENDBRANCH  11  13
ENDBRANCH   6  11
BRANCH   2  21
ATOM     21  C   UNL     1      35.102 -18.629 -21.121  0.00  0.00    +0.159 C 
BRANCH  21  25
ATOM     22  N   UNL     1      34.085 -19.063 -23.380  0.00  0.00    -0.230 N 
ATOM     23  N   UNL     1      33.565 -18.495 -24.490  0.00  0.00    -0.128 NA
ATOM     24  N   UNL     1      33.255 -16.153 -25.040  0.00  0.00    -0.192 NA
ATOM     25  C   UNL     1      34.497 -18.174 -22.426  0.00  0.00    +0.071 C 
ATOM     26  C   UNL     1      34.225 -16.943 -22.955  0.00  0.00    +0.058 C 
ATOM     27  C   UNL     1      33.646 -17.183 -24.238  0.00  0.00    +0.049 C 
ATOM     28  C   UNL     1      34.471 -15.721 -22.346  0.00  0.00    +0.065 C 
ATOM     29  C   UNL     1      34.064 -14.678 -23.185  0.00  0.00    +0.001 C 
ATOM     30  C   UNL     1      33.492 -14.935 -24.453  0.00  0.00    +0.105 C 
ATOM     31  H   UNL     1      34.161 -20.038 -23.269  0.00  0.00    +0.175 HD
ENDBRANCH  21  25
ENDBRANCH   2  21
TORSDOF 5
ENDMDL
MODEL 7
REMARK VINA RESULT:     -11.3      4.691     10.311
REMARK  Name = 24988948
REMARK  5 active torsions:
REMARK  status: ('A' for Active; 'I' for Inactive)
REMARK    1  A    between atoms: N_2  and  C_21
REMARK    2  A    between atoms: C_6  and  O_11
REMARK    3  A    between atoms: O_11  and  C_13
REMARK    4  A    between atoms: C_16  and  C_20
REMARK    5  A    between atoms: C_21  and  C_25
REMARK                            x       y       z     vdW  Elec       q    Type
REMARK                         _______ _______ _______ _____ _____    ______ ____
ROOT
ATOM      1 CL   UNL     1      32.270 -23.374 -14.673  0.00  0.00    -0.079 Cl
ATOM      2  N   UNL     1      34.939 -21.162 -19.353  0.00  0.00    -0.205 N 
ATOM      3  N   UNL     1      36.184 -20.892 -18.924  0.00  0.00    -0.176 NA
ATOM      4  C   UNL     1      34.121 -21.700 -18.396  0.00  0.00    +0.074 C 
ATOM      5  C   UNL     1      34.903 -21.785 -17.251  0.00  0.00    +0.071 C 
ATOM      6  C   UNL     1      34.344 -22.306 -16.072  0.00  0.00    +0.158 C 
ATOM      7  C   UNL     1      36.158 -21.273 -17.644  0.00  0.00    +0.122 C 
ATOM      8  C   UNL     1      32.786 -22.110 -18.440  0.00  0.00    +0.017 C 
ATOM      9  C   UNL     1      33.007 -22.723 -16.094  0.00  0.00    +0.092 C 
ATOM     10  C   UNL     1      32.243 -22.626 -17.258  0.00  0.00    +0.016 C 
ENDROOT
BRANCH   6  11
ATOM     11  O   UNL     1      35.092 -22.401 -14.930  0.00  0.00    -0.453 OA
BRANCH  11  13
ATOM     12 CL   UNL     1      35.687 -27.471 -14.866  0.00  0.00    -0.082 Cl
ATOM     13  C   UNL     1      35.947 -23.480 -14.818  0.00  0.00    +0.147 C 
ATOM     14  C   UNL     1      37.314 -23.270 -14.631  0.00  0.00    +0.048 C 
ATOM     15  C   UNL     1      35.445 -24.779 -14.889  0.00  0.00    +0.049 C 
ATOM     16  C   UNL     1      38.177 -24.359 -14.517  0.00  0.00    +0.072 C 
ATOM     17  C   UNL     1      36.308 -25.868 -14.776  0.00  0.00    +0.061 C 
ATOM     18  C   UNL     1      37.674 -25.659 -14.589  0.00  0.00    +0.022 C 
BRANCH  16  20
ATOM     19  N   UNL     1      40.713 -23.970 -14.173  0.00  0.00    -0.191 NA
ATOM     20  C   UNL     1      39.577 -24.144 -14.327  0.00  0.00    +0.101 C 
ENDBRANCH  16  20
ENDBRANCH  11  13
ENDBRANCH   6  11
BRANCH   2  21
ATOM     21  C   UNL     1      34.590 -20.873 -20.725  0.00  0.00    +0.159 C 
BRANCH  21  25
ATOM     22  N   UNL     1      35.364 -18.527 -20.249  0.00  0.00    -0.230 N 
ATOM     23  N   UNL     1      35.433 -17.265 -20.724  0.00  0.00    -0.128 NA
ATOM     24  N   UNL     1      34.648 -16.349 -22.829  0.00  0.00    -0.192 NA
ATOM     25  C   UNL     1      34.756 -19.419 -21.089  0.00  0.00    +0.071 C 
ATOM     26  C   UNL     1      34.407 -18.682 -22.187  0.00  0.00    +0.058 C 
ATOM     27  C   UNL     1      34.845 -17.348 -21.923  0.00  0.00    +0.049 C 
ATOM     28  C   UNL     1      33.759 -19.159 -23.317  0.00  0.00    +0.065 C 
ATOM     29  C   UNL     1      33.567 -18.118 -24.233  0.00  0.00    +0.001 C 
ATOM     30  C   UNL     1      34.008 -16.802 -23.954  0.00  0.00    +0.105 C 
ATOM     31  H   UNL     1      35.721 -18.784 -19.369  0.00  0.00    +0.175 HD
ENDBRANCH  21  25
ENDBRANCH   2  21
TORSDOF 5
ENDMDL
MODEL 8
REMARK VINA RESULT:     -11.0      2.959      4.534
REMARK  Name = 24988948
REMARK  5 active torsions:
REMARK  status: ('A' for Active; 'I' for Inactive)
REMARK    1  A    between atoms: N_2  and  C_21
REMARK    2  A    between atoms: C_6  and  O_11
REMARK    3  A    between atoms: O_11  and  C_13
REMARK    4  A    between atoms: C_16  and  C_20
REMARK    5  A    between atoms: C_21  and  C_25
REMARK                            x       y       z     vdW  Elec       q    Type
REMARK                         _______ _______ _______ _____ _____    ______ ____
ROOT
ATOM      1 CL   UNL     1      37.054 -18.248 -22.061  0.00  0.00    -0.079 Cl
ATOM      2  N   UNL     1      33.394 -21.400 -18.806  0.00  0.00    -0.205 N 
ATOM      3  N   UNL     1      32.228 -21.341 -19.472  0.00  0.00    -0.176 NA
ATOM      4  C   UNL     1      34.417 -20.713 -19.404  0.00  0.00    +0.074 C 
ATOM      5  C   UNL     1      33.865 -20.163 -20.555  0.00  0.00    +0.071 C 
ATOM      6  C   UNL     1      34.673 -19.386 -21.402  0.00  0.00    +0.158 C 
ATOM      7  C   UNL     1      32.519 -20.587 -20.536  0.00  0.00    +0.122 C 
ATOM      8  C   UNL     1      35.752 -20.532 -19.038  0.00  0.00    +0.017 C 
ATOM      9  C   UNL     1      36.015 -19.192 -21.053  0.00  0.00    +0.092 C 
ATOM     10  C   UNL     1      36.544 -19.756 -19.891  0.00  0.00    +0.016 C 
ENDROOT
BRANCH   6  11
ATOM     11  O   UNL     1      34.155 -18.832 -22.541  0.00  0.00    -0.453 OA
BRANCH  11  13
ATOM     12 CL   UNL     1      34.166 -14.404 -20.000  0.00  0.00    -0.082 Cl
ATOM     13  C   UNL     1      34.035 -17.457 -22.581  0.00  0.00    +0.147 C 
ATOM     14  C   UNL     1      33.799 -16.813 -23.796  0.00  0.00    +0.048 C 
ATOM     15  C   UNL     1      34.147 -16.711 -21.408  0.00  0.00    +0.049 C 
ATOM     16  C   UNL     1      33.677 -15.424 -23.837  0.00  0.00    +0.072 C 
ATOM     17  C   UNL     1      34.026 -15.323 -21.448  0.00  0.00    +0.061 C 
ATOM     18  C   UNL     1      33.790 -14.679 -22.663  0.00  0.00    +0.022 C 
BRANCH  16  20
ATOM     19  N   UNL     1      33.242 -14.230 -26.093  0.00  0.00    -0.191 NA
ATOM     20  C   UNL     1      33.437 -14.765 -25.083  0.00  0.00    +0.101 C 
ENDBRANCH  16  20
ENDBRANCH  11  13
ENDBRANCH   6  11
BRANCH   2  21
ATOM     21  C   UNL     1      33.462 -22.150 -17.573  0.00  0.00    +0.159 C 
BRANCH  21  25
ATOM     22  N   UNL     1      30.957 -21.925 -17.500  0.00  0.00    -0.230 N 
ATOM     23  N   UNL     1      29.847 -22.136 -16.763  0.00  0.00    -0.128 NA
ATOM     24  N   UNL     1      29.609 -23.090 -14.545  0.00  0.00    -0.192 NA
ATOM     25  C   UNL     1      32.123 -22.309 -16.897  0.00  0.00    +0.071 C 
ATOM     26  C   UNL     1      31.739 -22.806 -15.682  0.00  0.00    +0.058 C 
ATOM     27  C   UNL     1      30.317 -22.682 -15.636  0.00  0.00    +0.049 C 
ATOM     28  C   UNL     1      32.583 -23.322 -14.709  0.00  0.00    +0.065 C 
ATOM     29  C   UNL     1      31.836 -23.734 -13.600  0.00  0.00    +0.001 C 
ATOM     30  C   UNL     1      30.427 -23.603 -13.571  0.00  0.00    +0.105 C 
ATOM     31  H   UNL     1      30.930 -21.524 -18.399  0.00  0.00    +0.175 HD
ENDBRANCH  21  25
ENDBRANCH   2  21
TORSDOF 5
ENDMDL
MODEL 9
REMARK VINA RESULT:     -11.0      4.470      7.320
REMARK  Name = 24988948
REMARK  5 active torsions:
REMARK  status: ('A' for Active; 'I' for Inactive)
REMARK    1  A    between atoms: N_2  and  C_21
REMARK    2  A    between atoms: C_6  and  O_11
REMARK    3  A    between atoms: O_11  and  C_13
REMARK    4  A    between atoms: C_16  and  C_20
REMARK    5  A    between atoms: C_21  and  C_25
REMARK                            x       y       z     vdW  Elec       q    Type
REMARK                         _______ _______ _______ _____ _____    ______ ____
ROOT
ATOM      1 CL   UNL     1      30.078  -9.334 -19.734  0.00  0.00    -0.079 Cl
ATOM      2  N   UNL     1      33.409 -12.932 -22.876  0.00  0.00    -0.205 N 
ATOM      3  N   UNL     1      33.332 -12.444 -24.126  0.00  0.00    -0.176 NA
ATOM      4  C   UNL     1      32.685 -12.226 -21.953  0.00  0.00    +0.074 C 
ATOM      5  C   UNL     1      32.090 -11.193 -22.667  0.00  0.00    +0.071 C 
ATOM      6  C   UNL     1      31.268 -10.274 -21.992  0.00  0.00    +0.158 C 
ATOM      7  C   UNL     1      32.529 -11.385 -23.994  0.00  0.00    +0.122 C 
ATOM      8  C   UNL     1      32.507 -12.405 -20.579  0.00  0.00    +0.017 C 
ATOM      9  C   UNL     1      31.077 -10.436 -20.614  0.00  0.00    +0.092 C 
ATOM     10  C   UNL     1      31.686 -11.483 -19.921  0.00  0.00    +0.016 C 
ENDROOT
BRANCH   6  11
ATOM     11  O   UNL     1      30.670  -9.248 -22.670  0.00  0.00    -0.453 OA
BRANCH  11  13
ATOM     12 CL   UNL     1      34.958  -6.483 -22.864  0.00  0.00    -0.082 Cl
ATOM     13  C   UNL     1      31.268  -8.005 -22.599  0.00  0.00    +0.147 C 
ATOM     14  C   UNL     1      30.490  -6.868 -22.375  0.00  0.00    +0.048 C 
ATOM     15  C   UNL     1      32.649  -7.885 -22.749  0.00  0.00    +0.049 C 
ATOM     16  C   UNL     1      31.094  -5.613 -22.303  0.00  0.00    +0.072 C 
ATOM     17  C   UNL     1      33.253  -6.630 -22.677  0.00  0.00    +0.061 C 
ATOM     18  C   UNL     1      32.476  -5.494 -22.453  0.00  0.00    +0.022 C 
BRANCH  16  20
ATOM     19  N   UNL     1      29.649  -3.505 -21.889  0.00  0.00    -0.191 NA
ATOM     20  C   UNL     1      30.296  -4.449 -22.075  0.00  0.00    +0.101 C 
ENDBRANCH  16  20
ENDBRANCH  11  13
ENDBRANCH   6  11
BRANCH   2  21
ATOM     21  C   UNL     1      34.212 -14.108 -22.630  0.00  0.00    +0.159 C 
BRANCH  21  25
ATOM     22  N   UNL     1      33.058 -15.149 -24.607  0.00  0.00    -0.230 N 
ATOM     23  N   UNL     1      32.791 -16.305 -25.253  0.00  0.00    -0.128 NA
ATOM     24  N   UNL     1      33.451 -18.576 -24.715  0.00  0.00    -0.192 NA
ATOM     25  C   UNL     1      33.816 -15.291 -23.478  0.00  0.00    +0.071 C 
ATOM     26  C   UNL     1      34.058 -16.633 -23.385  0.00  0.00    +0.058 C 
ATOM     27  C   UNL     1      33.405 -17.230 -24.507  0.00  0.00    +0.049 C 
ATOM     28  C   UNL     1      34.793 -17.263 -22.392  0.00  0.00    +0.065 C 
ATOM     29  C   UNL     1      34.827 -18.642 -22.625  0.00  0.00    +0.001 C 
ATOM     30  C   UNL     1      34.175 -19.217 -23.741  0.00  0.00    +0.105 C 
ATOM     31  H   UNL     1      32.732 -14.276 -24.924  0.00  0.00    +0.175 HD
ENDBRANCH  21  25
ENDBRANCH   2  21
TORSDOF 5
ENDMDL
