MODEL 1
REMARK VINA RESULT:     -13.5      0.000      0.000
REMARK  Name = 25058128
REMARK  13 active torsions:
REMARK  status: ('A' for Active; 'I' for Inactive)
REMARK    1  A    between atoms: C_1  and  S_11
REMARK    2  A    between atoms: C_9  and  O_27
REMARK    3  A    between atoms: S_11  and  N_14
REMARK    4  A    between atoms: N_14  and  C_16
REMARK    5  A    between atoms: C_16  and  C_18
REMARK    6  A    between atoms: C_16  and  C_21
REMARK    7  A    between atoms: C_18  and  O_19
REMARK    8  A    between atoms: C_21  and  C_22
REMARK    9  A    between atoms: C_22  and  C_24
REMARK   10  A    between atoms: C_24  and  O_25
REMARK   11  A    between atoms: O_27  and  C_28
REMARK   12  A    between atoms: C_28  and  C_30
REMARK   13  A    between atoms: C_35  and  C_37
REMARK                            x       y       z     vdW  Elec       q    Type
REMARK                         _______ _______ _______ _____ _____    ______ ____
ROOT
ATOM      1  C   UNL     1      33.858 -22.606 -16.481  0.00  0.00    +0.122 C 
ATOM      2  C   UNL     1      34.630 -21.350 -18.416  0.00  0.00    +0.002 C 
ATOM      3  C   UNL     1      34.896 -22.047 -17.226  0.00  0.00    +0.020 C 
ATOM      4  C   UNL     1      33.290 -21.218 -18.855  0.00  0.00    +0.003 C 
ATOM      5  C   UNL     1      32.542 -22.477 -16.913  0.00  0.00    +0.020 C 
ATOM      6  C   UNL     1      32.258 -21.788 -18.093  0.00  0.00    +0.001 C 
ATOM      7  C   UNL     1      33.023 -20.521 -20.045  0.00  0.00    +0.037 C 
ATOM      8  C   UNL     1      35.662 -20.779 -19.179  0.00  0.00    +0.003 C 
ATOM      9  C   UNL     1      34.062 -19.962 -20.790  0.00  0.00    +0.139 C 
ATOM     10  C   UNL     1      35.378 -20.090 -20.358  0.00  0.00    +0.037 C 
ENDROOT
BRANCH   1  11
ATOM     11  S   UNL     1      34.216 -23.480 -14.986  0.00  0.00    +0.061 S 
ATOM     12  O   UNL     1      34.667 -22.517 -14.002  0.00  0.00    -0.153 OA
ATOM     13  O   UNL     1      33.071 -24.327 -14.708  0.00  0.00    -0.153 OA
BRANCH  11  14
ATOM     14  N   UNL     1      35.521 -24.460 -15.458  0.00  0.00    -0.170 NA
ATOM     15  H   UNL     1      36.211 -23.844 -15.890  0.00  0.00    +0.149 HD
BRANCH  14  16
ATOM     16  C   UNL     1      36.242 -25.268 -14.450  0.00  0.00    +0.174 C 
BRANCH  16  18
ATOM     17  O   UNL     1      36.136 -27.045 -16.106  0.00  0.00    -0.249 OA
ATOM     18  C   UNL     1      36.638 -26.575 -15.093  0.00  0.00    +0.330 C 
BRANCH  18  19
ATOM     19  O   UNL     1      37.652 -27.187 -14.428  0.00  0.00    -0.479 OA
ATOM     20  H   UNL     1      37.488 -27.606 -13.606  0.00  0.00    +0.295 HD
ENDBRANCH  18  19
ENDBRANCH  16  18
BRANCH  16  21
ATOM     21  C   UNL     1      37.409 -24.469 -13.857  0.00  0.00    +0.040 C 
BRANCH  21  22
ATOM     22  C   UNL     1      38.418 -23.893 -14.855  0.00  0.00    +0.111 C 
BRANCH  22  24
ATOM     23  O   UNL     1      40.652 -24.280 -14.022  0.00  0.00    -0.250 OA
ATOM     24  C   UNL     1      39.766 -24.567 -14.818  0.00  0.00    +0.314 C 
BRANCH  24  25
ATOM     25  O   UNL     1      39.906 -25.519 -15.774  0.00  0.00    -0.480 OA
ATOM     26  H   UNL     1      39.504 -25.401 -16.613  0.00  0.00    +0.295 HD
ENDBRANCH  24  25
ENDBRANCH  22  24
ENDBRANCH  21  22
ENDBRANCH  16  21
ENDBRANCH  14  16
ENDBRANCH  11  14
ENDBRANCH   1  11
BRANCH   9  27
ATOM     27  O   UNL     1      33.787 -19.290 -21.942  0.00  0.00    -0.471 OA
BRANCH  27  28
ATOM     28  C   UNL     1      34.871 -18.610 -22.572  0.00  0.00    +0.234 C 
BRANCH  28  30
ATOM     29  F   UNL     1      34.919 -16.741 -20.447  0.00  0.00    -0.204 F 
ATOM     30  C   UNL     1      34.509 -17.165 -22.747  0.00  0.00    +0.049 C 
ATOM     31  C   UNL     1      34.552 -16.295 -21.657  0.00  0.00    +0.140 C 
ATOM     32  C   UNL     1      34.127 -16.692 -24.002  0.00  0.00    +0.002 C 
ATOM     33  C   UNL     1      34.214 -14.952 -21.823  0.00  0.00    +0.040 C 
ATOM     34  C   UNL     1      33.788 -15.348 -24.168  0.00  0.00    +0.010 C 
ATOM     35  C   UNL     1      33.831 -14.478 -23.078  0.00  0.00    +0.071 C 
BRANCH  35  37
ATOM     36  N   UNL     1      33.207 -11.985 -23.388  0.00  0.00    -0.191 NA
ATOM     37  C   UNL     1      33.487 -13.102 -23.248  0.00  0.00    +0.100 C 
ENDBRANCH  35  37
ENDBRANCH  28  30
ENDBRANCH  27  28
ENDBRANCH   9  27
TORSDOF 13
ENDMDL
MODEL 2
REMARK VINA RESULT:     -13.5      1.430      2.763
REMARK  Name = 25058128
REMARK  13 active torsions:
REMARK  status: ('A' for Active; 'I' for Inactive)
REMARK    1  A    between atoms: C_1  and  S_11
REMARK    2  A    between atoms: C_9  and  O_27
REMARK    3  A    between atoms: S_11  and  N_14
REMARK    4  A    between atoms: N_14  and  C_16
REMARK    5  A    between atoms: C_16  and  C_18
REMARK    6  A    between atoms: C_16  and  C_21
REMARK    7  A    between atoms: C_18  and  O_19
REMARK    8  A    between atoms: C_21  and  C_22
REMARK    9  A    between atoms: C_22  and  C_24
REMARK   10  A    between atoms: C_24  and  O_25
REMARK   11  A    between atoms: O_27  and  C_28
REMARK   12  A    between atoms: C_28  and  C_30
REMARK   13  A    between atoms: C_35  and  C_37
REMARK                            x       y       z     vdW  Elec       q    Type
REMARK                         _______ _______ _______ _____ _____    ______ ____
ROOT
ATOM      1  C   UNL     1      35.602 -22.397 -16.418  0.00  0.00    +0.122 C 
ATOM      2  C   UNL     1      34.122 -21.623 -18.186  0.00  0.00    +0.002 C 
ATOM      3  C   UNL     1      34.341 -22.364 -17.013  0.00  0.00    +0.020 C 
ATOM      4  C   UNL     1      35.198 -20.906 -18.762  0.00  0.00    +0.003 C 
ATOM      5  C   UNL     1      36.659 -21.691 -16.984  0.00  0.00    +0.020 C 
ATOM      6  C   UNL     1      36.460 -20.949 -18.149  0.00  0.00    +0.001 C 
ATOM      7  C   UNL     1      34.979 -20.164 -19.935  0.00  0.00    +0.037 C 
ATOM      8  C   UNL     1      32.860 -21.579 -18.801  0.00  0.00    +0.003 C 
ATOM      9  C   UNL     1      33.718 -20.131 -20.531  0.00  0.00    +0.139 C 
ATOM     10  C   UNL     1      32.660 -20.837 -19.966  0.00  0.00    +0.037 C 
ENDROOT
BRANCH   1  11
ATOM     11  S   UNL     1      35.857 -23.336 -14.941  0.00  0.00    +0.061 S 
ATOM     12  O   UNL     1      35.372 -22.552 -13.823  0.00  0.00    -0.153 OA
ATOM     13  O   UNL     1      35.325 -24.663 -15.188  0.00  0.00    -0.153 OA
BRANCH  11  14
ATOM     14  N   UNL     1      37.552 -23.428 -14.875  0.00  0.00    -0.170 NA
ATOM     15  H   UNL     1      37.876 -22.582 -14.404  0.00  0.00    +0.149 HD
BRANCH  14  16
ATOM     16  C   UNL     1      38.205 -24.570 -14.196  0.00  0.00    +0.174 C 
BRANCH  16  18
ATOM     17  O   UNL     1      40.589 -24.097 -14.132  0.00  0.00    -0.249 OA
ATOM     18  C   UNL     1      39.635 -24.642 -14.673  0.00  0.00    +0.330 C 
BRANCH  18  19
ATOM     19  O   UNL     1      39.767 -25.411 -15.784  0.00  0.00    -0.479 OA
ATOM     20  H   UNL     1      39.103 -25.399 -16.445  0.00  0.00    +0.295 HD
ENDBRANCH  18  19
ENDBRANCH  16  18
BRANCH  16  21
ATOM     21  C   UNL     1      38.043 -24.454 -12.676  0.00  0.00    +0.040 C 
BRANCH  21  22
ATOM     22  C   UNL     1      36.930 -25.292 -12.043  0.00  0.00    +0.111 C 
BRANCH  22  24
ATOM     23  O   UNL     1      36.353 -23.881 -10.169  0.00  0.00    -0.250 OA
ATOM     24  C   UNL     1      35.995 -24.502 -11.163  0.00  0.00    +0.314 C 
BRANCH  24  25
ATOM     25  O   UNL     1      34.705 -24.563 -11.576  0.00  0.00    -0.480 OA
ATOM     26  H   UNL     1      34.459 -25.162 -12.255  0.00  0.00    +0.295 HD
ENDBRANCH  24  25
ENDBRANCH  22  24
ENDBRANCH  21  22
ENDBRANCH  16  21
ENDBRANCH  14  16
ENDBRANCH  11  14
ENDBRANCH   1  11
BRANCH   9  27
ATOM     27  O   UNL     1      33.521 -19.407 -21.667  0.00  0.00    -0.471 OA
BRANCH  27  28
ATOM     28  C   UNL     1      34.675 -18.839 -22.283  0.00  0.00    +0.234 C 
BRANCH  28  30
ATOM     29  F   UNL     1      34.851 -16.809 -20.318  0.00  0.00    -0.204 F 
ATOM     30  C   UNL     1      34.412 -17.391 -22.577  0.00  0.00    +0.049 C 
ATOM     31  C   UNL     1      34.515 -16.440 -21.561  0.00  0.00    +0.140 C 
ATOM     32  C   UNL     1      34.063 -16.997 -23.869  0.00  0.00    +0.002 C 
ATOM     33  C   UNL     1      34.268 -15.095 -21.838  0.00  0.00    +0.040 C 
ATOM     34  C   UNL     1      33.816 -15.652 -24.145  0.00  0.00    +0.010 C 
ATOM     35  C   UNL     1      33.919 -14.701 -23.130  0.00  0.00    +0.071 C 
BRANCH  35  37
ATOM     36  N   UNL     1      33.464 -12.204 -23.644  0.00  0.00    -0.191 NA
ATOM     37  C   UNL     1      33.668 -13.323 -23.413  0.00  0.00    +0.100 C 
ENDBRANCH  35  37
ENDBRANCH  28  30
ENDBRANCH  27  28
ENDBRANCH   9  27
TORSDOF 13
ENDMDL
MODEL 3
REMARK VINA RESULT:     -12.8      1.747      2.793
REMARK  Name = 25058128
REMARK  13 active torsions:
REMARK  status: ('A' for Active; 'I' for Inactive)
REMARK    1  A    between atoms: C_1  and  S_11
REMARK    2  A    between atoms: C_9  and  O_27
REMARK    3  A    between atoms: S_11  and  N_14
REMARK    4  A    between atoms: N_14  and  C_16
REMARK    5  A    between atoms: C_16  and  C_18
REMARK    6  A    between atoms: C_16  and  C_21
REMARK    7  A    between atoms: C_18  and  O_19
REMARK    8  A    between atoms: C_21  and  C_22
REMARK    9  A    between atoms: C_22  and  C_24
REMARK   10  A    between atoms: C_24  and  O_25
REMARK   11  A    between atoms: O_27  and  C_28
REMARK   12  A    between atoms: C_28  and  C_30
REMARK   13  A    between atoms: C_35  and  C_37
REMARK                            x       y       z     vdW  Elec       q    Type
REMARK                         _______ _______ _______ _____ _____    ______ ____
ROOT
ATOM      1  C   UNL     1      33.886 -22.859 -16.431  0.00  0.00    +0.122 C 
ATOM      2  C   UNL     1      34.653 -21.500 -18.296  0.00  0.00    +0.002 C 
ATOM      3  C   UNL     1      34.922 -22.264 -17.148  0.00  0.00    +0.020 C 
ATOM      4  C   UNL     1      33.312 -21.340 -18.721  0.00  0.00    +0.003 C 
ATOM      5  C   UNL     1      32.568 -22.703 -16.849  0.00  0.00    +0.020 C 
ATOM      6  C   UNL     1      32.282 -21.948 -17.987  0.00  0.00    +0.001 C 
ATOM      7  C   UNL     1      33.043 -20.577 -19.870  0.00  0.00    +0.037 C 
ATOM      8  C   UNL     1      35.684 -20.892 -19.031  0.00  0.00    +0.003 C 
ATOM      9  C   UNL     1      34.080 -19.980 -20.588  0.00  0.00    +0.139 C 
ATOM     10  C   UNL     1      35.397 -20.137 -20.169  0.00  0.00    +0.037 C 
ENDROOT
BRANCH   1  11
ATOM     11  S   UNL     1      34.247 -23.817 -14.988  0.00  0.00    +0.061 S 
ATOM     12  O   UNL     1      33.107 -23.729 -14.097  0.00  0.00    -0.153 OA
ATOM     13  O   UNL     1      34.717 -25.110 -15.447  0.00  0.00    -0.153 OA
BRANCH  11  14
ATOM     14  N   UNL     1      35.554 -22.962 -14.320  0.00  0.00    -0.170 NA
ATOM     15  H   UNL     1      35.166 -22.321 -13.628  0.00  0.00    +0.149 HD
BRANCH  14  16
ATOM     16  C   UNL     1      36.654 -23.694 -13.654  0.00  0.00    +0.174 C 
BRANCH  16  18
ATOM     17  O   UNL     1      38.503 -23.033 -15.088  0.00  0.00    -0.249 OA
ATOM     18  C   UNL     1      37.755 -23.905 -14.664  0.00  0.00    +0.330 C 
BRANCH  18  19
ATOM     19  O   UNL     1      37.851 -25.203 -15.055  0.00  0.00    -0.479 OA
ATOM     20  H   UNL     1      38.677 -25.551 -15.327  0.00  0.00    +0.295 HD
ENDBRANCH  18  19
ENDBRANCH  16  18
BRANCH  16  21
ATOM     21  C   UNL     1      37.089 -22.964 -12.378  0.00  0.00    +0.040 C 
BRANCH  21  22
ATOM     22  C   UNL     1      36.836 -23.693 -11.056  0.00  0.00    +0.111 C 
BRANCH  22  24
ATOM     23  O   UNL     1      34.479 -23.219 -11.290  0.00  0.00    -0.250 OA
ATOM     24  C   UNL     1      35.392 -23.685 -10.620  0.00  0.00    +0.314 C 
BRANCH  24  25
ATOM     25  O   UNL     1      35.209 -24.236  -9.394  0.00  0.00    -0.480 OA
ATOM     26  H   UNL     1      34.366 -24.196  -8.986  0.00  0.00    +0.295 HD
ENDBRANCH  24  25
ENDBRANCH  22  24
ENDBRANCH  21  22
ENDBRANCH  16  21
ENDBRANCH  14  16
ENDBRANCH  11  14
ENDBRANCH   1  11
BRANCH   9  27
ATOM     27  O   UNL     1      33.802 -19.245 -21.699  0.00  0.00    -0.471 OA
BRANCH  27  28
ATOM     28  C   UNL     1      34.893 -18.562 -22.315  0.00  0.00    +0.234 C 
BRANCH  28  30
ATOM     29  F   UNL     1      34.150 -17.437 -24.804  0.00  0.00    -0.204 F 
ATOM     30  C   UNL     1      34.532 -17.115 -22.483  0.00  0.00    +0.049 C 
ATOM     31  C   UNL     1      34.176 -16.623 -23.739  0.00  0.00    +0.140 C 
ATOM     32  C   UNL     1      34.555 -16.261 -21.380  0.00  0.00    +0.002 C 
ATOM     33  C   UNL     1      33.842 -15.277 -23.891  0.00  0.00    +0.040 C 
ATOM     34  C   UNL     1      34.221 -14.915 -21.534  0.00  0.00    +0.010 C 
ATOM     35  C   UNL     1      33.865 -14.423 -22.789  0.00  0.00    +0.071 C 
BRANCH  35  37
ATOM     36  N   UNL     1      33.241 -11.926 -23.072  0.00  0.00    -0.191 NA
ATOM     37  C   UNL     1      33.521 -13.045 -22.946  0.00  0.00    +0.100 C 
ENDBRANCH  35  37
ENDBRANCH  28  30
ENDBRANCH  27  28
ENDBRANCH   9  27
TORSDOF 13
ENDMDL
MODEL 4
REMARK VINA RESULT:     -12.4      2.235      4.025
REMARK  Name = 25058128
REMARK  13 active torsions:
REMARK  status: ('A' for Active; 'I' for Inactive)
REMARK    1  A    between atoms: C_1  and  S_11
REMARK    2  A    between atoms: C_9  and  O_27
REMARK    3  A    between atoms: S_11  and  N_14
REMARK    4  A    between atoms: N_14  and  C_16
REMARK    5  A    between atoms: C_16  and  C_18
REMARK    6  A    between atoms: C_16  and  C_21
REMARK    7  A    between atoms: C_18  and  O_19
REMARK    8  A    between atoms: C_21  and  C_22
REMARK    9  A    between atoms: C_22  and  C_24
REMARK   10  A    between atoms: C_24  and  O_25
REMARK   11  A    between atoms: O_27  and  C_28
REMARK   12  A    between atoms: C_28  and  C_30
REMARK   13  A    between atoms: C_35  and  C_37
REMARK                            x       y       z     vdW  Elec       q    Type
REMARK                         _______ _______ _______ _____ _____    ______ ____
ROOT
ATOM      1  C   UNL     1      35.199 -22.253 -16.693  0.00  0.00    +0.122 C 
ATOM      2  C   UNL     1      35.488 -20.884 -18.682  0.00  0.00    +0.002 C 
ATOM      3  C   UNL     1      36.010 -21.481 -17.523  0.00  0.00    +0.020 C 
ATOM      4  C   UNL     1      34.122 -21.074 -19.002  0.00  0.00    +0.003 C 
ATOM      5  C   UNL     1      33.857 -22.441 -17.008  0.00  0.00    +0.020 C 
ATOM      6  C   UNL     1      33.320 -21.856 -18.155  0.00  0.00    +0.001 C 
ATOM      7  C   UNL     1      33.599 -20.478 -20.162  0.00  0.00    +0.037 C 
ATOM      8  C   UNL     1      36.289 -20.102 -19.530  0.00  0.00    +0.003 C 
ATOM      9  C   UNL     1      34.410 -19.705 -20.992  0.00  0.00    +0.139 C 
ATOM     10  C   UNL     1      35.753 -19.517 -20.677  0.00  0.00    +0.037 C 
ENDROOT
BRANCH   1  11
ATOM     11  S   UNL     1      35.877 -22.996 -15.238  0.00  0.00    +0.061 S 
ATOM     12  O   UNL     1      35.956 -24.426 -15.462  0.00  0.00    -0.153 OA
ATOM     13  O   UNL     1      37.068 -22.243 -14.896  0.00  0.00    -0.153 OA
BRANCH  11  14
ATOM     14  N   UNL     1      34.671 -22.671 -14.086  0.00  0.00    -0.170 NA
ATOM     15  H   UNL     1      33.941 -22.141 -14.563  0.00  0.00    +0.149 HD
BRANCH  14  16
ATOM     16  C   UNL     1      33.999 -23.786 -13.383  0.00  0.00    +0.174 C 
BRANCH  16  18
ATOM     17  O   UNL     1      34.572 -23.288 -11.073  0.00  0.00    -0.249 OA
ATOM     18  C   UNL     1      34.700 -23.998 -12.063  0.00  0.00    +0.330 C 
BRANCH  18  19
ATOM     19  O   UNL     1      35.495 -25.099 -12.076  0.00  0.00    -0.479 OA
ATOM     20  H   UNL     1      36.372 -25.040 -12.401  0.00  0.00    +0.295 HD
ENDBRANCH  18  19
ENDBRANCH  16  18
BRANCH  16  21
ATOM     21  C   UNL     1      32.493 -23.520 -13.272  0.00  0.00    +0.040 C 
BRANCH  21  22
ATOM     22  C   UNL     1      31.569 -24.712 -13.535  0.00  0.00    +0.111 C 
BRANCH  22  24
ATOM     23  O   UNL     1      29.334 -24.088 -14.207  0.00  0.00    -0.250 OA
ATOM     24  C   UNL     1      30.108 -24.413 -13.314  0.00  0.00    +0.314 C 
BRANCH  24  25
ATOM     25  O   UNL     1      29.738 -24.524 -12.014  0.00  0.00    -0.480 OA
ATOM     26  H   UNL     1      29.505 -25.362 -11.664  0.00  0.00    +0.295 HD
ENDBRANCH  24  25
ENDBRANCH  22  24
ENDBRANCH  21  22
ENDBRANCH  16  21
ENDBRANCH  14  16
ENDBRANCH  11  14
ENDBRANCH   1  11
BRANCH   9  27
ATOM     27  O   UNL     1      33.889 -19.134 -22.113  0.00  0.00    -0.471 OA
BRANCH  27  28
ATOM     28  C   UNL     1      34.801 -18.481 -22.994  0.00  0.00    +0.234 C 
BRANCH  28  30
ATOM     29  F   UNL     1      35.014 -16.546 -20.939  0.00  0.00    -0.204 F 
ATOM     30  C   UNL     1      34.377 -17.053 -23.169  0.00  0.00    +0.049 C 
ATOM     31  C   UNL     1      34.507 -16.149 -22.115  0.00  0.00    +0.140 C 
ATOM     32  C   UNL     1      33.850 -16.630 -24.389  0.00  0.00    +0.002 C 
ATOM     33  C   UNL     1      34.111 -14.822 -22.281  0.00  0.00    +0.040 C 
ATOM     34  C   UNL     1      33.453 -15.303 -24.555  0.00  0.00    +0.010 C 
ATOM     35  C   UNL     1      33.583 -14.399 -23.501  0.00  0.00    +0.071 C 
BRANCH  35  37
ATOM     36  N   UNL     1      32.851 -11.934 -23.809  0.00  0.00    -0.191 NA
ATOM     37  C   UNL     1      33.179 -13.039 -23.672  0.00  0.00    +0.100 C 
ENDBRANCH  35  37
ENDBRANCH  28  30
ENDBRANCH  27  28
ENDBRANCH   9  27
TORSDOF 13
ENDMDL
MODEL 5
REMARK VINA RESULT:     -12.4      3.542      5.531
REMARK  Name = 25058128
REMARK  13 active torsions:
REMARK  status: ('A' for Active; 'I' for Inactive)
REMARK    1  A    between atoms: C_1  and  S_11
REMARK    2  A    between atoms: C_9  and  O_27
REMARK    3  A    between atoms: S_11  and  N_14
REMARK    4  A    between atoms: N_14  and  C_16
REMARK    5  A    between atoms: C_16  and  C_18
REMARK    6  A    between atoms: C_16  and  C_21
REMARK    7  A    between atoms: C_18  and  O_19
REMARK    8  A    between atoms: C_21  and  C_22
REMARK    9  A    between atoms: C_22  and  C_24
REMARK   10  A    between atoms: C_24  and  O_25
REMARK   11  A    between atoms: O_27  and  C_28
REMARK   12  A    between atoms: C_28  and  C_30
REMARK   13  A    between atoms: C_35  and  C_37
REMARK                            x       y       z     vdW  Elec       q    Type
REMARK                         _______ _______ _______ _____ _____    ______ ____
ROOT
ATOM      1  C   UNL     1      33.395 -21.806 -18.408  0.00  0.00    +0.122 C 
ATOM      2  C   UNL     1      34.885 -20.340 -19.651  0.00  0.00    +0.002 C 
ATOM      3  C   UNL     1      34.683 -21.375 -18.723  0.00  0.00    +0.020 C 
ATOM      4  C   UNL     1      33.763 -19.735 -20.268  0.00  0.00    +0.003 C 
ATOM      5  C   UNL     1      32.293 -21.212 -19.014  0.00  0.00    +0.020 C 
ATOM      6  C   UNL     1      32.474 -20.182 -19.939  0.00  0.00    +0.001 C 
ATOM      7  C   UNL     1      33.965 -18.700 -21.196  0.00  0.00    +0.037 C 
ATOM      8  C   UNL     1      36.175 -19.892 -19.981  0.00  0.00    +0.003 C 
ATOM      9  C   UNL     1      35.254 -18.268 -21.512  0.00  0.00    +0.139 C 
ATOM     10  C   UNL     1      36.356 -18.862 -20.906  0.00  0.00    +0.037 C 
ENDROOT
BRANCH   1  11
ATOM     11  S   UNL     1      33.163 -23.110 -17.236  0.00  0.00    +0.061 S 
ATOM     12  O   UNL     1      32.876 -24.325 -17.972  0.00  0.00    -0.153 OA
ATOM     13  O   UNL     1      34.285 -23.059 -16.320  0.00  0.00    -0.153 OA
BRANCH  11  14
ATOM     14  N   UNL     1      31.763 -22.600 -16.419  0.00  0.00    -0.170 NA
ATOM     15  H   UNL     1      31.056 -22.413 -17.132  0.00  0.00    +0.149 HD
BRANCH  14  16
ATOM     16  C   UNL     1      31.131 -23.482 -15.414  0.00  0.00    +0.174 C 
BRANCH  16  18
ATOM     17  O   UNL     1      30.932 -23.294 -12.997  0.00  0.00    -0.249 OA
ATOM     18  C   UNL     1      31.464 -22.944 -14.043  0.00  0.00    +0.330 C 
BRANCH  18  19
ATOM     19  O   UNL     1      32.456 -22.017 -14.085  0.00  0.00    -0.479 OA
ATOM     20  H   UNL     1      33.163 -22.113 -14.692  0.00  0.00    +0.295 HD
ENDBRANCH  18  19
ENDBRANCH  16  18
BRANCH  16  21
ATOM     21  C   UNL     1      29.630 -23.628 -15.695  0.00  0.00    +0.040 C 
BRANCH  21  22
ATOM     22  C   UNL     1      28.791 -22.351 -15.597  0.00  0.00    +0.111 C 
BRANCH  22  24
ATOM     23  O   UNL     1      26.932 -21.327 -16.750  0.00  0.00    -0.250 OA
ATOM     24  C   UNL     1      27.608 -22.325 -16.530  0.00  0.00    +0.314 C 
BRANCH  24  25
ATOM     25  O   UNL     1      27.354 -23.533 -17.093  0.00  0.00    -0.480 OA
ATOM     26  H   UNL     1      26.940 -24.206 -16.589  0.00  0.00    +0.295 HD
ENDBRANCH  24  25
ENDBRANCH  22  24
ENDBRANCH  21  22
ENDBRANCH  16  21
ENDBRANCH  14  16
ENDBRANCH  11  14
ENDBRANCH   1  11
BRANCH   9  27
ATOM     27  O   UNL     1      35.433 -17.266 -22.415  0.00  0.00    -0.471 OA
BRANCH  27  28
ATOM     28  C   UNL     1      34.386 -17.046 -23.358  0.00  0.00    +0.234 C 
BRANCH  28  30
ATOM     29  F   UNL     1      33.149 -15.705 -25.523  0.00  0.00    -0.204 F 
ATOM     30  C   UNL     1      33.962 -15.608 -23.295  0.00  0.00    +0.049 C 
ATOM     31  C   UNL     1      33.358 -15.006 -24.398  0.00  0.00    +0.140 C 
ATOM     32  C   UNL     1      34.174 -14.873 -22.128  0.00  0.00    +0.002 C 
ATOM     33  C   UNL     1      32.967 -13.668 -24.335  0.00  0.00    +0.040 C 
ATOM     34  C   UNL     1      33.783 -13.535 -22.066  0.00  0.00    +0.010 C 
ATOM     35  C   UNL     1      33.179 -12.933 -23.170  0.00  0.00    +0.071 C 
BRANCH  35  37
ATOM     36  N   UNL     1      32.448 -10.452 -23.053  0.00  0.00    -0.191 NA
ATOM     37  C   UNL     1      32.776 -11.564 -23.105  0.00  0.00    +0.100 C 
ENDBRANCH  35  37
ENDBRANCH  28  30
ENDBRANCH  27  28
ENDBRANCH   9  27
TORSDOF 13
ENDMDL
MODEL 6
REMARK VINA RESULT:     -12.1      2.616      4.867
REMARK  Name = 25058128
REMARK  13 active torsions:
REMARK  status: ('A' for Active; 'I' for Inactive)
REMARK    1  A    between atoms: C_1  and  S_11
REMARK    2  A    between atoms: C_9  and  O_27
REMARK    3  A    between atoms: S_11  and  N_14
REMARK    4  A    between atoms: N_14  and  C_16
REMARK    5  A    between atoms: C_16  and  C_18
REMARK    6  A    between atoms: C_16  and  C_21
REMARK    7  A    between atoms: C_18  and  O_19
REMARK    8  A    between atoms: C_21  and  C_22
REMARK    9  A    between atoms: C_22  and  C_24
REMARK   10  A    between atoms: C_24  and  O_25
REMARK   11  A    between atoms: O_27  and  C_28
REMARK   12  A    between atoms: C_28  and  C_30
REMARK   13  A    between atoms: C_35  and  C_37
REMARK                            x       y       z     vdW  Elec       q    Type
REMARK                         _______ _______ _______ _____ _____    ______ ____
ROOT
ATOM      1  C   UNL     1      34.966 -22.128 -16.906  0.00  0.00    +0.122 C 
ATOM      2  C   UNL     1      33.778 -21.133 -18.780  0.00  0.00    +0.002 C 
ATOM      3  C   UNL     1      33.776 -21.868 -17.582  0.00  0.00    +0.020 C 
ATOM      4  C   UNL     1      35.007 -20.657 -19.297  0.00  0.00    +0.003 C 
ATOM      5  C   UNL     1      36.174 -21.659 -17.413  0.00  0.00    +0.020 C 
ATOM      6  C   UNL     1      36.196 -20.928 -18.601  0.00  0.00    +0.001 C 
ATOM      7  C   UNL     1      35.009 -19.922 -20.494  0.00  0.00    +0.037 C 
ATOM      8  C   UNL     1      32.589 -20.862 -19.476  0.00  0.00    +0.003 C 
ATOM      9  C   UNL     1      33.818 -19.662 -21.172  0.00  0.00    +0.139 C 
ATOM     10  C   UNL     1      32.610 -20.131 -20.664  0.00  0.00    +0.037 C 
ENDROOT
BRANCH   1  11
ATOM     11  S   UNL     1      34.941 -23.054 -15.399  0.00  0.00    +0.061 S 
ATOM     12  O   UNL     1      34.743 -24.450 -15.736  0.00  0.00    -0.153 OA
ATOM     13  O   UNL     1      36.103 -22.645 -14.633  0.00  0.00    -0.153 OA
BRANCH  11  14
ATOM     14  N   UNL     1      33.544 -22.452 -14.642  0.00  0.00    -0.170 NA
ATOM     15  H   UNL     1      33.378 -21.521 -15.027  0.00  0.00    +0.149 HD
BRANCH  14  16
ATOM     16  C   UNL     1      32.268 -23.192 -14.749  0.00  0.00    +0.174 C 
BRANCH  16  18
ATOM     17  O   UNL     1      31.556 -25.065 -13.371  0.00  0.00    -0.249 OA
ATOM     18  C   UNL     1      32.058 -23.952 -13.462  0.00  0.00    +0.330 C 
BRANCH  18  19
ATOM     19  O   UNL     1      32.514 -23.265 -12.382  0.00  0.00    -0.479 OA
ATOM     20  H   UNL     1      33.214 -22.650 -12.478  0.00  0.00    +0.295 HD
ENDBRANCH  18  19
ENDBRANCH  16  18
BRANCH  16  21
ATOM     21  C   UNL     1      31.125 -22.240 -15.122  0.00  0.00    +0.040 C 
BRANCH  21  22
ATOM     22  C   UNL     1      29.715 -22.677 -14.716  0.00  0.00    +0.111 C 
BRANCH  22  24
ATOM     23  O   UNL     1      28.335 -24.187 -16.000  0.00  0.00    -0.250 OA
ATOM     24  C   UNL     1      28.842 -23.079 -15.878  0.00  0.00    +0.314 C 
BRANCH  24  25
ATOM     25  O   UNL     1      28.688 -22.086 -16.789  0.00  0.00    -0.480 OA
ATOM     26  H   UNL     1      29.429 -21.778 -17.275  0.00  0.00    +0.295 HD
ENDBRANCH  24  25
ENDBRANCH  22  24
ENDBRANCH  21  22
ENDBRANCH  16  21
ENDBRANCH  14  16
ENDBRANCH  11  14
ENDBRANCH   1  11
BRANCH   9  27
ATOM     27  O   UNL     1      33.837 -18.948 -22.330  0.00  0.00    -0.471 OA
BRANCH  27  28
ATOM     28  C   UNL     1      34.959 -18.095 -22.550  0.00  0.00    +0.234 C 
BRANCH  28  30
ATOM     29  F   UNL     1      34.118 -16.878 -24.963  0.00  0.00    -0.204 F 
ATOM     30  C   UNL     1      34.487 -16.673 -22.627  0.00  0.00    +0.049 C 
ATOM     31  C   UNL     1      34.087 -16.133 -23.849  0.00  0.00    +0.140 C 
ATOM     32  C   UNL     1      34.450 -15.890 -21.473  0.00  0.00    +0.002 C 
ATOM     33  C   UNL     1      33.649 -14.810 -23.917  0.00  0.00    +0.040 C 
ATOM     34  C   UNL     1      34.013 -14.567 -21.542  0.00  0.00    +0.010 C 
ATOM     35  C   UNL     1      33.612 -14.027 -22.764  0.00  0.00    +0.071 C 
BRANCH  35  37
ATOM     36  N   UNL     1      32.797 -11.573 -22.889  0.00  0.00    -0.191 NA
ATOM     37  C   UNL     1      33.162 -12.673 -22.834  0.00  0.00    +0.100 C 
ENDBRANCH  35  37
ENDBRANCH  28  30
ENDBRANCH  27  28
ENDBRANCH   9  27
TORSDOF 13
ENDMDL
MODEL 7
REMARK VINA RESULT:     -12.0      6.901     13.897
REMARK  Name = 25058128
REMARK  13 active torsions:
REMARK  status: ('A' for Active; 'I' for Inactive)
REMARK    1  A    between atoms: C_1  and  S_11
REMARK    2  A    between atoms: C_9  and  O_27
REMARK    3  A    between atoms: S_11  and  N_14
REMARK    4  A    between atoms: N_14  and  C_16
REMARK    5  A    between atoms: C_16  and  C_18
REMARK    6  A    between atoms: C_16  and  C_21
REMARK    7  A    between atoms: C_18  and  O_19
REMARK    8  A    between atoms: C_21  and  C_22
REMARK    9  A    between atoms: C_22  and  C_24
REMARK   10  A    between atoms: C_24  and  O_25
REMARK   11  A    between atoms: O_27  and  C_28
REMARK   12  A    between atoms: C_28  and  C_30
REMARK   13  A    between atoms: C_35  and  C_37
REMARK                            x       y       z     vdW  Elec       q    Type
REMARK                         _______ _______ _______ _____ _____    ______ ____
ROOT
ATOM      1  C   UNL     1      32.142 -11.512 -21.962  0.00  0.00    +0.122 C 
ATOM      2  C   UNL     1      33.389 -13.563 -22.354  0.00  0.00    +0.002 C 
ATOM      3  C   UNL     1      32.866 -12.344 -22.815  0.00  0.00    +0.020 C 
ATOM      4  C   UNL     1      33.174 -13.942 -21.007  0.00  0.00    +0.003 C 
ATOM      5  C   UNL     1      31.931 -11.884 -20.639  0.00  0.00    +0.020 C 
ATOM      6  C   UNL     1      32.443 -13.092 -20.162  0.00  0.00    +0.001 C 
ATOM      7  C   UNL     1      33.698 -15.161 -20.544  0.00  0.00    +0.037 C 
ATOM      8  C   UNL     1      34.120 -14.414 -23.198  0.00  0.00    +0.003 C 
ATOM      9  C   UNL     1      34.422 -15.994 -21.398  0.00  0.00    +0.139 C 
ATOM     10  C   UNL     1      34.633 -15.622 -22.722  0.00  0.00    +0.037 C 
ENDROOT
BRANCH   1  11
ATOM     11  S   UNL     1      31.492  -9.981 -22.564  0.00  0.00    +0.061 S 
ATOM     12  O   UNL     1      31.900  -9.835 -23.947  0.00  0.00    -0.153 OA
ATOM     13  O   UNL     1      30.085  -9.952 -22.210  0.00  0.00    -0.153 OA
BRANCH  11  14
ATOM     14  N   UNL     1      32.322  -8.850 -21.607  0.00  0.00    -0.170 NA
ATOM     15  H   UNL     1      33.050  -8.443 -22.195  0.00  0.00    +0.149 HD
BRANCH  14  16
ATOM     16  C   UNL     1      31.589  -7.720 -20.993  0.00  0.00    +0.174 C 
BRANCH  16  18
ATOM     17  O   UNL     1      31.902  -8.460 -18.697  0.00  0.00    -0.249 OA
ATOM     18  C   UNL     1      32.036  -7.597 -19.557  0.00  0.00    +0.330 C 
BRANCH  18  19
ATOM     19  O   UNL     1      32.640  -6.406 -19.308  0.00  0.00    -0.479 OA
ATOM     20  H   UNL     1      33.311  -6.092 -19.881  0.00  0.00    +0.295 HD
ENDBRANCH  18  19
ENDBRANCH  16  18
BRANCH  16  21
ATOM     21  C   UNL     1      31.768  -6.447 -21.829  0.00  0.00    +0.040 C 
BRANCH  21  22
ATOM     22  C   UNL     1      30.486  -5.768 -22.318  0.00  0.00    +0.111 C 
BRANCH  22  24
ATOM     23  O   UNL     1      29.684  -3.490 -22.247  0.00  0.00    -0.250 OA
ATOM     24  C   UNL     1      30.219  -4.432 -21.674  0.00  0.00    +0.314 C 
BRANCH  24  25
ATOM     25  O   UNL     1      30.649  -4.371 -20.389  0.00  0.00    -0.480 OA
ATOM     26  H   UNL     1      30.035  -4.462 -19.686  0.00  0.00    +0.295 HD
ENDBRANCH  24  25
ENDBRANCH  22  24
ENDBRANCH  21  22
ENDBRANCH  16  21
ENDBRANCH  14  16
ENDBRANCH  11  14
ENDBRANCH   1  11
BRANCH   9  27
ATOM     27  O   UNL     1      34.924 -17.171 -20.935  0.00  0.00    -0.471 OA
BRANCH  27  28
ATOM     28  C   UNL     1      34.590 -18.351 -21.663  0.00  0.00    +0.234 C 
BRANCH  28  30
ATOM     29  F   UNL     1      36.567 -19.748 -20.195  0.00  0.00    -0.204 F 
ATOM     30  C   UNL     1      34.265 -19.450 -20.694  0.00  0.00    +0.049 C 
ATOM     31  C   UNL     1      35.288 -20.099 -20.003  0.00  0.00    +0.140 C 
ATOM     32  C   UNL     1      32.937 -19.821 -20.486  0.00  0.00    +0.002 C 
ATOM     33  C   UNL     1      34.982 -21.121 -19.103  0.00  0.00    +0.040 C 
ATOM     34  C   UNL     1      32.631 -20.844 -19.586  0.00  0.00    +0.010 C 
ATOM     35  C   UNL     1      33.654 -21.493 -18.895  0.00  0.00    +0.071 C 
BRANCH  35  37
ATOM     36  N   UNL     1      33.088 -23.387 -17.223  0.00  0.00    -0.191 NA
ATOM     37  C   UNL     1      33.341 -22.538 -17.972  0.00  0.00    +0.100 C 
ENDBRANCH  35  37
ENDBRANCH  28  30
ENDBRANCH  27  28
ENDBRANCH   9  27
TORSDOF 13
ENDMDL
MODEL 8
REMARK VINA RESULT:     -12.0      1.675      2.618
REMARK  Name = 25058128
REMARK  13 active torsions:
REMARK  status: ('A' for Active; 'I' for Inactive)
REMARK    1  A    between atoms: C_1  and  S_11
REMARK    2  A    between atoms: C_9  and  O_27
REMARK    3  A    between atoms: S_11  and  N_14
REMARK    4  A    between atoms: N_14  and  C_16
REMARK    5  A    between atoms: C_16  and  C_18
REMARK    6  A    between atoms: C_16  and  C_21
REMARK    7  A    between atoms: C_18  and  O_19
REMARK    8  A    between atoms: C_21  and  C_22
REMARK    9  A    between atoms: C_22  and  C_24
REMARK   10  A    between atoms: C_24  and  O_25
REMARK   11  A    between atoms: O_27  and  C_28
REMARK   12  A    between atoms: C_28  and  C_30
REMARK   13  A    between atoms: C_35  and  C_37
REMARK                            x       y       z     vdW  Elec       q    Type
REMARK                         _______ _______ _______ _____ _____    ______ ____
ROOT
ATOM      1  C   UNL     1      33.552 -21.761 -18.117  0.00  0.00    +0.122 C 
ATOM      2  C   UNL     1      34.955 -20.406 -19.569  0.00  0.00    +0.002 C 
ATOM      3  C   UNL     1      34.812 -21.302 -18.497  0.00  0.00    +0.020 C 
ATOM      4  C   UNL     1      33.802 -19.971 -20.265  0.00  0.00    +0.003 C 
ATOM      5  C   UNL     1      32.418 -21.335 -18.801  0.00  0.00    +0.020 C 
ATOM      6  C   UNL     1      32.541 -20.445 -19.869  0.00  0.00    +0.001 C 
ATOM      7  C   UNL     1      33.944 -19.076 -21.338  0.00  0.00    +0.037 C 
ATOM      8  C   UNL     1      36.216 -19.932 -19.966  0.00  0.00    +0.003 C 
ATOM      9  C   UNL     1      35.205 -18.615 -21.718  0.00  0.00    +0.139 C 
ATOM     10  C   UNL     1      36.339 -19.042 -21.034  0.00  0.00    +0.037 C 
ENDROOT
BRANCH   1  11
ATOM     11  S   UNL     1      33.394 -22.889 -16.763  0.00  0.00    +0.061 S 
ATOM     12  O   UNL     1      32.058 -22.750 -16.219  0.00  0.00    -0.153 OA
ATOM     13  O   UNL     1      33.860 -24.180 -17.233  0.00  0.00    -0.153 OA
BRANCH  11  14
ATOM     14  N   UNL     1      34.523 -22.266 -15.657  0.00  0.00    -0.170 NA
ATOM     15  H   UNL     1      34.025 -22.117 -14.779  0.00  0.00    +0.149 HD
BRANCH  14  16
ATOM     16  C   UNL     1      35.742 -23.040 -15.330  0.00  0.00    +0.174 C 
BRANCH  16  18
ATOM     17  O   UNL     1      36.911 -21.000 -15.951  0.00  0.00    -0.249 OA
ATOM     18  C   UNL     1      36.941 -22.195 -15.684  0.00  0.00    +0.330 C 
BRANCH  18  19
ATOM     19  O   UNL     1      38.096 -22.910 -15.659  0.00  0.00    -0.479 OA
ATOM     20  H   UNL     1      38.089 -23.803 -15.379  0.00  0.00    +0.295 HD
ENDBRANCH  18  19
ENDBRANCH  16  18
BRANCH  16  21
ATOM     21  C   UNL     1      35.702 -23.512 -13.871  0.00  0.00    +0.040 C 
BRANCH  21  22
ATOM     22  C   UNL     1      36.099 -24.968 -13.616  0.00  0.00    +0.111 C 
BRANCH  22  24
ATOM     23  O   UNL     1      35.601 -26.333 -15.546  0.00  0.00    -0.250 OA
ATOM     24  C   UNL     1      36.431 -25.739 -14.868  0.00  0.00    +0.314 C 
BRANCH  24  25
ATOM     25  O   UNL     1      37.755 -25.724 -15.161  0.00  0.00    -0.480 OA
ATOM     26  H   UNL     1      38.133 -24.973 -15.577  0.00  0.00    +0.295 HD
ENDBRANCH  24  25
ENDBRANCH  22  24
ENDBRANCH  21  22
ENDBRANCH  16  21
ENDBRANCH  14  16
ENDBRANCH  11  14
ENDBRANCH   1  11
BRANCH   9  27
ATOM     27  O   UNL     1      35.327 -17.749 -22.761  0.00  0.00    -0.471 OA
BRANCH  27  28
ATOM     28  C   UNL     1      34.146 -17.462 -23.509  0.00  0.00    +0.234 C 
BRANCH  28  30
ATOM     29  F   UNL     1      34.615 -15.872 -21.214  0.00  0.00    -0.204 F 
ATOM     30  C   UNL     1      33.888 -15.985 -23.471  0.00  0.00    +0.049 C 
ATOM     31  C   UNL     1      34.140 -15.259 -22.307  0.00  0.00    +0.140 C 
ATOM     32  C   UNL     1      33.395 -15.338 -24.604  0.00  0.00    +0.002 C 
ATOM     33  C   UNL     1      33.898 -13.885 -22.276  0.00  0.00    +0.040 C 
ATOM     34  C   UNL     1      33.153 -13.964 -24.572  0.00  0.00    +0.010 C 
ATOM     35  C   UNL     1      33.404 -13.238 -23.408  0.00  0.00    +0.071 C 
BRANCH  35  37
ATOM     36  N   UNL     1      32.958 -10.688 -23.351  0.00  0.00    -0.191 NA
ATOM     37  C   UNL     1      33.159 -11.831 -23.377  0.00  0.00    +0.100 C 
ENDBRANCH  35  37
ENDBRANCH  28  30
ENDBRANCH  27  28
ENDBRANCH   9  27
TORSDOF 13
ENDMDL
MODEL 9
REMARK VINA RESULT:     -12.0      3.373     11.187
REMARK  Name = 25058128
REMARK  13 active torsions:
REMARK  status: ('A' for Active; 'I' for Inactive)
REMARK    1  A    between atoms: C_1  and  S_11
REMARK    2  A    between atoms: C_9  and  O_27
REMARK    3  A    between atoms: S_11  and  N_14
REMARK    4  A    between atoms: N_14  and  C_16
REMARK    5  A    between atoms: C_16  and  C_18
REMARK    6  A    between atoms: C_16  and  C_21
REMARK    7  A    between atoms: C_18  and  O_19
REMARK    8  A    between atoms: C_21  and  C_22
REMARK    9  A    between atoms: C_22  and  C_24
REMARK   10  A    between atoms: C_24  and  O_25
REMARK   11  A    between atoms: O_27  and  C_28
REMARK   12  A    between atoms: C_28  and  C_30
REMARK   13  A    between atoms: C_35  and  C_37
REMARK                            x       y       z     vdW  Elec       q    Type
REMARK                         _______ _______ _______ _____ _____    ______ ____
ROOT
ATOM      1  C   UNL     1      34.907 -19.364 -20.954  0.00  0.00    +0.122 C 
ATOM      2  C   UNL     1      33.636 -20.752 -19.413  0.00  0.00    +0.002 C 
ATOM      3  C   UNL     1      33.686 -19.850 -20.489  0.00  0.00    +0.020 C 
ATOM      4  C   UNL     1      34.844 -21.165 -18.801  0.00  0.00    +0.003 C 
ATOM      5  C   UNL     1      36.094 -19.771 -20.353  0.00  0.00    +0.020 C 
ATOM      6  C   UNL     1      36.065 -20.666 -19.283  0.00  0.00    +0.001 C 
ATOM      7  C   UNL     1      34.795 -22.066 -17.725  0.00  0.00    +0.037 C 
ATOM      8  C   UNL     1      32.416 -21.251 -18.930  0.00  0.00    +0.003 C 
ATOM      9  C   UNL     1      33.573 -22.553 -17.259  0.00  0.00    +0.139 C 
ATOM     10  C   UNL     1      32.386 -22.146 -17.860  0.00  0.00    +0.037 C 
ENDROOT
BRANCH   1  11
ATOM     11  S   UNL     1      34.947 -18.230 -22.311  0.00  0.00    +0.061 S 
ATOM     12  O   UNL     1      36.250 -18.328 -22.937  0.00  0.00    -0.153 OA
ATOM     13  O   UNL     1      33.744 -18.460 -23.088  0.00  0.00    -0.153 OA
BRANCH  11  14
ATOM     14  N   UNL     1      34.811 -16.733 -21.518  0.00  0.00    -0.170 NA
ATOM     15  H   UNL     1      35.759 -16.371 -21.407  0.00  0.00    +0.149 HD
BRANCH  14  16
ATOM     16  C   UNL     1      34.008 -15.647 -22.122  0.00  0.00    +0.174 C 
BRANCH  16  18
ATOM     17  O   UNL     1      33.922 -14.635 -19.913  0.00  0.00    -0.249 OA
ATOM     18  C   UNL     1      33.937 -14.511 -21.131  0.00  0.00    +0.330 C 
BRANCH  18  19
ATOM     19  O   UNL     1      33.910 -13.298 -21.743  0.00  0.00    -0.479 OA
ATOM     20  H   UNL     1      33.907 -12.514 -21.230  0.00  0.00    +0.295 HD
ENDBRANCH  18  19
ENDBRANCH  16  18
BRANCH  16  21
ATOM     21  C   UNL     1      34.571 -15.262 -23.495  0.00  0.00    +0.040 C 
BRANCH  21  22
ATOM     22  C   UNL     1      33.635 -15.448 -24.693  0.00  0.00    +0.111 C 
BRANCH  22  24
ATOM     23  O   UNL     1      33.039 -13.766 -26.321  0.00  0.00    -0.250 OA
ATOM     24  C   UNL     1      32.989 -14.171 -25.166  0.00  0.00    +0.314 C 
BRANCH  24  25
ATOM     25  O   UNL     1      32.355 -13.502 -24.171  0.00  0.00    -0.480 OA
ATOM     26  H   UNL     1      32.462 -12.574 -24.090  0.00  0.00    +0.295 HD
ENDBRANCH  24  25
ENDBRANCH  22  24
ENDBRANCH  21  22
ENDBRANCH  16  21
ENDBRANCH  14  16
ENDBRANCH  11  14
ENDBRANCH   1  11
BRANCH   9  27
ATOM     27  O   UNL     1      33.543 -23.427 -16.216  0.00  0.00    -0.471 OA
BRANCH  27  28
ATOM     28  C   UNL     1      34.144 -23.002 -14.994  0.00  0.00    +0.234 C 
BRANCH  28  30
ATOM     29  F   UNL     1      36.626 -21.641 -15.014  0.00  0.00    -0.204 F 
ATOM     30  C   UNL     1      35.461 -23.701 -14.827  0.00  0.00    +0.049 C 
ATOM     31  C   UNL     1      36.650 -22.971 -14.848  0.00  0.00    +0.140 C 
ATOM     32  C   UNL     1      35.496 -25.084 -14.652  0.00  0.00    +0.002 C 
ATOM     33  C   UNL     1      37.872 -23.624 -14.693  0.00  0.00    +0.040 C 
ATOM     34  C   UNL     1      36.719 -25.738 -14.498  0.00  0.00    +0.010 C 
ATOM     35  C   UNL     1      37.907 -25.008 -14.518  0.00  0.00    +0.071 C 
BRANCH  35  37
ATOM     36  N   UNL     1      40.177 -26.220 -14.226  0.00  0.00    -0.191 NA
ATOM     37  C   UNL     1      39.160 -25.676 -14.358  0.00  0.00    +0.100 C 
ENDBRANCH  35  37
ENDBRANCH  28  30
ENDBRANCH  27  28
ENDBRANCH   9  27
TORSDOF 13
ENDMDL
