MODEL 1
REMARK VINA RESULT:     -11.6      0.000      0.000
REMARK  Name = 21066096
REMARK  4 active torsions:
REMARK  status: ('A' for Active; 'I' for Inactive)
REMARK    1  A    between atoms: C_4  and  N_17
REMARK    2  A    between atoms: C_6  and  C_11
REMARK    3  A    between atoms: N_17  and  C_19
REMARK    4  A    between atoms: C_19  and  C_21
REMARK                            x       y       z     vdW  Elec       q    Type
REMARK                         _______ _______ _______ _____ _____    ______ ____
ROOT
ATOM      1  N   UNL     1      33.992 -16.837 -23.052  0.00  0.00    -0.152 N 
ATOM      2  N   UNL     1      33.926 -19.177 -22.486  0.00  0.00    -0.389 NA
ATOM      3  N   UNL     1      33.792 -16.022 -24.126  0.00  0.00    -0.174 NA
ATOM      4  C   UNL     1      34.360 -16.465 -21.749  0.00  0.00    +0.126 C 
ATOM      5  C   UNL     1      33.787 -18.175 -23.395  0.00  0.00    +0.190 C 
ATOM      6  C   UNL     1      34.254 -18.832 -21.274  0.00  0.00    +0.137 C 
ATOM      7  C   UNL     1      34.508 -17.429 -20.823  0.00  0.00    +0.064 C 
ATOM      8  C   UNL     1      33.449 -18.190 -24.729  0.00  0.00    +0.125 C 
ATOM      9  C   UNL     1      33.468 -16.847 -25.120  0.00  0.00    +0.101 C 
ENDROOT
BRANCH   6  11
ATOM     10  F   UNL     1      32.063 -20.246 -20.184  0.00  0.00    -0.204 F 
ATOM     11  C   UNL     1      34.412 -19.896 -20.246  0.00  0.00    +0.057 C 
ATOM     12  C   UNL     1      33.290 -20.558 -19.746  0.00  0.00    +0.143 C 
ATOM     13  C   UNL     1      35.685 -20.231 -19.783  0.00  0.00    +0.005 C 
ATOM     14  C   UNL     1      33.442 -21.556 -18.783  0.00  0.00    +0.030 C 
ATOM     15  C   UNL     1      35.836 -21.229 -18.820  0.00  0.00    +0.000 C 
ATOM     16  C   UNL     1      34.715 -21.891 -18.320  0.00  0.00    +0.002 C 
ENDBRANCH   6  11
BRANCH   4  17
ATOM     17  N   UNL     1      34.557 -15.136 -21.504  0.00  0.00    -0.316 N 
ATOM     18  H   UNL     1      35.290 -14.677 -21.975  0.00  0.00    +0.148 HD
BRANCH  17  19
ATOM     19  C   UNL     1      33.747 -14.372 -20.593  0.00  0.00    +0.115 C 
BRANCH  19  21
ATOM     20  N   UNL     1      31.914 -11.055 -22.623  0.00  0.00    -0.242 NA
ATOM     21  C   UNL     1      33.106 -13.212 -21.303  0.00  0.00    +0.000 C 
ATOM     22  C   UNL     1      33.616 -12.769 -22.519  0.00  0.00    +0.018 C 
ATOM     23  C   UNL     1      32.000 -12.578 -20.747  0.00  0.00    +0.018 C 
ATOM     24  C   UNL     1      32.989 -11.697 -23.133  0.00  0.00    +0.099 C 
ATOM     25  C   UNL     1      31.446 -11.514 -21.441  0.00  0.00    +0.099 C 
ENDBRANCH  19  21
ENDBRANCH  17  19
ENDBRANCH   4  17
TORSDOF 4
ENDMDL
MODEL 2
REMARK VINA RESULT:     -11.5      4.814      9.067
REMARK  Name = 21066096
REMARK  4 active torsions:
REMARK  status: ('A' for Active; 'I' for Inactive)
REMARK    1  A    between atoms: C_4  and  N_17
REMARK    2  A    between atoms: C_6  and  C_11
REMARK    3  A    between atoms: N_17  and  C_19
REMARK    4  A    between atoms: C_19  and  C_21
REMARK                            x       y       z     vdW  Elec       q    Type
REMARK                         _______ _______ _______ _____ _____    ______ ____
ROOT
ATOM      1  N   UNL     1      34.898 -22.235 -17.065  0.00  0.00    -0.152 N 
ATOM      2  N   UNL     1      36.140 -20.686 -18.428  0.00  0.00    -0.389 NA
ATOM      3  N   UNL     1      35.053 -22.980 -15.934  0.00  0.00    -0.174 NA
ATOM      4  C   UNL     1      33.766 -22.157 -17.894  0.00  0.00    +0.126 C 
ATOM      5  C   UNL     1      36.055 -21.507 -17.347  0.00  0.00    +0.190 C 
ATOM      6  C   UNL     1      35.087 -20.602 -19.190  0.00  0.00    +0.137 C 
ATOM      7  C   UNL     1      33.814 -21.356 -18.972  0.00  0.00    +0.064 C 
ATOM      8  C   UNL     1      36.961 -21.812 -16.357  0.00  0.00    +0.125 C 
ATOM      9  C   UNL     1      36.292 -22.716 -15.523  0.00  0.00    +0.101 C 
ENDROOT
BRANCH   6  11
ATOM     10  F   UNL     1      32.852 -20.162 -20.862  0.00  0.00    -0.204 F 
ATOM     11  C   UNL     1      35.134 -19.712 -20.380  0.00  0.00    +0.057 C 
ATOM     12  C   UNL     1      33.996 -19.535 -21.167  0.00  0.00    +0.143 C 
ATOM     13  C   UNL     1      36.319 -19.052 -20.707  0.00  0.00    +0.005 C 
ATOM     14  C   UNL     1      34.043 -18.698 -22.282  0.00  0.00    +0.030 C 
ATOM     15  C   UNL     1      36.367 -18.216 -21.822  0.00  0.00    +0.000 C 
ATOM     16  C   UNL     1      35.228 -18.038 -22.609  0.00  0.00    +0.002 C 
ENDBRANCH   6  11
BRANCH   4  17
ATOM     17  N   UNL     1      32.682 -22.915 -17.554  0.00  0.00    -0.316 N 
ATOM     18  H   UNL     1      32.718 -23.884 -17.724  0.00  0.00    +0.148 HD
BRANCH  17  19
ATOM     19  C   UNL     1      31.491 -22.369 -16.960  0.00  0.00    +0.115 C 
BRANCH  19  21
ATOM     20  N   UNL     1      30.837 -24.065 -13.064  0.00  0.00    -0.242 NA
ATOM     21  C   UNL     1      31.263 -22.962 -15.597  0.00  0.00    +0.000 C 
ATOM     22  C   UNL     1      32.090 -22.612 -14.535  0.00  0.00    +0.018 C 
ATOM     23  C   UNL     1      30.222 -23.862 -15.393  0.00  0.00    +0.018 C 
ATOM     24  C   UNL     1      31.837 -23.186 -13.300  0.00  0.00    +0.099 C 
ATOM     25  C   UNL     1      30.053 -24.380 -14.119  0.00  0.00    +0.099 C 
ENDBRANCH  19  21
ENDBRANCH  17  19
ENDBRANCH   4  17
TORSDOF 4
ENDMDL
MODEL 3
REMARK VINA RESULT:     -11.3      1.239      1.864
REMARK  Name = 21066096
REMARK  4 active torsions:
REMARK  status: ('A' for Active; 'I' for Inactive)
REMARK    1  A    between atoms: C_4  and  N_17
REMARK    2  A    between atoms: C_6  and  C_11
REMARK    3  A    between atoms: N_17  and  C_19
REMARK    4  A    between atoms: C_19  and  C_21
REMARK                            x       y       z     vdW  Elec       q    Type
REMARK                         _______ _______ _______ _____ _____    ______ ____
ROOT
ATOM      1  N   UNL     1      33.990 -15.995 -23.003  0.00  0.00    -0.152 N 
ATOM      2  N   UNL     1      34.125 -18.388 -22.767  0.00  0.00    -0.389 NA
ATOM      3  N   UNL     1      33.804 -15.057 -23.974  0.00  0.00    -0.174 NA
ATOM      4  C   UNL     1      34.195 -15.783 -21.630  0.00  0.00    +0.126 C 
ATOM      5  C   UNL     1      33.963 -17.283 -23.543  0.00  0.00    +0.190 C 
ATOM      6  C   UNL     1      34.301 -18.193 -21.491  0.00  0.00    +0.137 C 
ATOM      7  C   UNL     1      34.359 -16.852 -20.832  0.00  0.00    +0.064 C 
ATOM      8  C   UNL     1      33.754 -17.138 -24.895  0.00  0.00    +0.125 C 
ATOM      9  C   UNL     1      33.664 -15.755 -25.098  0.00  0.00    +0.101 C 
ENDROOT
BRANCH   6  11
ATOM     10  F   UNL     1      36.833 -19.074 -20.596  0.00  0.00    -0.204 F 
ATOM     11  C   UNL     1      34.476 -19.374 -20.605  0.00  0.00    +0.057 C 
ATOM     12  C   UNL     1      35.753 -19.760 -20.196  0.00  0.00    +0.143 C 
ATOM     13  C   UNL     1      33.360 -20.096 -20.180  0.00  0.00    +0.005 C 
ATOM     14  C   UNL     1      35.914 -20.867 -19.363  0.00  0.00    +0.030 C 
ATOM     15  C   UNL     1      33.521 -21.203 -19.347  0.00  0.00    +0.000 C 
ATOM     16  C   UNL     1      34.798 -21.589 -18.939  0.00  0.00    +0.002 C 
ENDBRANCH   6  11
BRANCH   4  17
ATOM     17  N   UNL     1      34.224 -14.490 -21.190  0.00  0.00    -0.316 N 
ATOM     18  H   UNL     1      35.056 -13.977 -21.303  0.00  0.00    +0.148 HD
BRANCH  17  19
ATOM     19  C   UNL     1      33.100 -13.842 -20.568  0.00  0.00    +0.115 C 
BRANCH  19  21
ATOM     20  N   UNL     1      31.878 -10.420 -22.866  0.00  0.00    -0.242 NA
ATOM     21  C   UNL     1      32.672 -12.645 -21.371  0.00  0.00    +0.000 C 
ATOM     22  C   UNL     1      31.594 -11.872 -20.954  0.00  0.00    +0.018 C 
ATOM     23  C   UNL     1      33.354 -12.306 -22.536  0.00  0.00    +0.018 C 
ATOM     24  C   UNL     1      31.241 -10.780 -21.729  0.00  0.00    +0.099 C 
ATOM     25  C   UNL     1      32.921 -11.195 -23.241  0.00  0.00    +0.099 C 
ENDBRANCH  19  21
ENDBRANCH  17  19
ENDBRANCH   4  17
TORSDOF 4
ENDMDL
MODEL 4
REMARK VINA RESULT:     -10.8      5.842     10.530
REMARK  Name = 21066096
REMARK  4 active torsions:
REMARK  status: ('A' for Active; 'I' for Inactive)
REMARK    1  A    between atoms: C_4  and  N_17
REMARK    2  A    between atoms: C_6  and  C_11
REMARK    3  A    between atoms: N_17  and  C_19
REMARK    4  A    between atoms: C_19  and  C_21
REMARK                            x       y       z     vdW  Elec       q    Type
REMARK                         _______ _______ _______ _____ _____    ______ ____
ROOT
ATOM      1  N   UNL     1      31.631 -23.253 -15.505  0.00  0.00    -0.152 N 
ATOM      2  N   UNL     1      31.549 -21.964 -17.537  0.00  0.00    -0.389 NA
ATOM      3  N   UNL     1      30.784 -23.810 -14.593  0.00  0.00    -0.174 NA
ATOM      4  C   UNL     1      33.035 -23.283 -15.503  0.00  0.00    +0.126 C 
ATOM      5  C   UNL     1      30.920 -22.597 -16.511  0.00  0.00    +0.190 C 
ATOM      6  C   UNL     1      32.851 -22.003 -17.545  0.00  0.00    +0.137 C 
ATOM      7  C   UNL     1      33.692 -22.668 -16.502  0.00  0.00    +0.064 C 
ATOM      8  C   UNL     1      29.585 -22.750 -16.213  0.00  0.00    +0.125 C 
ATOM      9  C   UNL     1      29.565 -23.500 -15.031  0.00  0.00    +0.101 C 
ENDROOT
BRANCH   6  11
ATOM     10  F   UNL     1      31.589 -20.244 -19.363  0.00  0.00    -0.204 F 
ATOM     11  C   UNL     1      33.580 -21.329 -18.652  0.00  0.00    +0.057 C 
ATOM     12  C   UNL     1      32.901 -20.470 -19.518  0.00  0.00    +0.143 C 
ATOM     13  C   UNL     1      34.946 -21.555 -18.823  0.00  0.00    +0.005 C 
ATOM     14  C   UNL     1      33.589 -19.839 -20.554  0.00  0.00    +0.030 C 
ATOM     15  C   UNL     1      35.634 -20.924 -19.859  0.00  0.00    +0.000 C 
ATOM     16  C   UNL     1      34.955 -20.065 -20.725  0.00  0.00    +0.002 C 
ENDBRANCH   6  11
BRANCH   4  17
ATOM     17  N   UNL     1      33.651 -23.933 -14.472  0.00  0.00    -0.316 N 
ATOM     18  H   UNL     1      33.260 -24.778 -14.153  0.00  0.00    +0.148 HD
BRANCH  17  19
ATOM     19  C   UNL     1      34.842 -23.445 -13.830  0.00  0.00    +0.115 C 
BRANCH  19  21
ATOM     20  N   UNL     1      38.047 -26.279 -14.248  0.00  0.00    -0.242 NA
ATOM     21  C   UNL     1      35.963 -24.436 -13.976  0.00  0.00    +0.000 C 
ATOM     22  C   UNL     1      37.194 -24.193 -13.374  0.00  0.00    +0.018 C 
ATOM     23  C   UNL     1      35.774 -25.600 -14.713  0.00  0.00    +0.018 C 
ATOM     24  C   UNL     1      38.193 -25.138 -13.539  0.00  0.00    +0.099 C 
ATOM     25  C   UNL     1      36.838 -26.481 -14.818  0.00  0.00    +0.099 C 
ENDBRANCH  19  21
ENDBRANCH  17  19
ENDBRANCH   4  17
TORSDOF 4
ENDMDL
MODEL 5
REMARK VINA RESULT:     -10.8      4.413      7.766
REMARK  Name = 21066096
REMARK  4 active torsions:
REMARK  status: ('A' for Active; 'I' for Inactive)
REMARK    1  A    between atoms: C_4  and  N_17
REMARK    2  A    between atoms: C_6  and  C_11
REMARK    3  A    between atoms: N_17  and  C_19
REMARK    4  A    between atoms: C_19  and  C_21
REMARK                            x       y       z     vdW  Elec       q    Type
REMARK                         _______ _______ _______ _____ _____    ______ ____
ROOT
ATOM      1  N   UNL     1      35.059 -22.076 -17.011  0.00  0.00    -0.152 N 
ATOM      2  N   UNL     1      33.687 -22.816 -15.176  0.00  0.00    -0.389 NA
ATOM      3  N   UNL     1      36.357 -21.749 -17.271  0.00  0.00    -0.174 NA
ATOM      4  C   UNL     1      33.975 -22.062 -17.902  0.00  0.00    +0.126 C 
ATOM      5  C   UNL     1      34.897 -22.445 -15.674  0.00  0.00    +0.190 C 
ATOM      6  C   UNL     1      32.682 -22.818 -16.005  0.00  0.00    +0.137 C 
ATOM      7  C   UNL     1      32.763 -22.423 -17.445  0.00  0.00    +0.064 C 
ATOM      8  C   UNL     1      36.136 -22.344 -15.085  0.00  0.00    +0.125 C 
ATOM      9  C   UNL     1      36.987 -21.915 -16.110  0.00  0.00    +0.101 C 
ENDROOT
BRANCH   6  11
ATOM     10  F   UNL     1      32.328 -24.686 -13.914  0.00  0.00    -0.204 F 
ATOM     11  C   UNL     1      31.342 -23.222 -15.504  0.00  0.00    +0.057 C 
ATOM     12  C   UNL     1      31.232 -24.150 -14.467  0.00  0.00    +0.143 C 
ATOM     13  C   UNL     1      30.193 -22.669 -16.071  0.00  0.00    +0.005 C 
ATOM     14  C   UNL     1      29.973 -24.525 -13.999  0.00  0.00    +0.030 C 
ATOM     15  C   UNL     1      28.934 -23.045 -15.602  0.00  0.00    +0.000 C 
ATOM     16  C   UNL     1      28.824 -23.973 -14.566  0.00  0.00    +0.002 C 
ENDBRANCH   6  11
BRANCH   4  17
ATOM     17  N   UNL     1      34.220 -21.672 -19.188  0.00  0.00    -0.316 N 
ATOM     18  H   UNL     1      34.954 -22.108 -19.677  0.00  0.00    +0.148 HD
BRANCH  17  19
ATOM     19  C   UNL     1      33.458 -20.655 -19.863  0.00  0.00    +0.115 C 
BRANCH  19  21
ATOM     20  N   UNL     1      36.058 -18.059 -22.095  0.00  0.00    -0.242 NA
ATOM     21  C   UNL     1      34.367 -19.747 -20.644  0.00  0.00    +0.000 C 
ATOM     22  C   UNL     1      33.902 -19.109 -21.790  0.00  0.00    +0.018 C 
ATOM     23  C   UNL     1      35.677 -19.541 -20.224  0.00  0.00    +0.018 C 
ATOM     24  C   UNL     1      34.780 -18.283 -22.472  0.00  0.00    +0.099 C 
ATOM     25  C   UNL     1      36.475 -18.695 -20.977  0.00  0.00    +0.099 C 
ENDBRANCH  19  21
ENDBRANCH  17  19
ENDBRANCH   4  17
TORSDOF 4
ENDMDL
MODEL 6
REMARK VINA RESULT:     -10.7      6.523     10.318
REMARK  Name = 21066096
REMARK  4 active torsions:
REMARK  status: ('A' for Active; 'I' for Inactive)
REMARK    1  A    between atoms: C_4  and  N_17
REMARK    2  A    between atoms: C_6  and  C_11
REMARK    3  A    between atoms: N_17  and  C_19
REMARK    4  A    between atoms: C_19  and  C_21
REMARK                            x       y       z     vdW  Elec       q    Type
REMARK                         _______ _______ _______ _____ _____    ______ ____
ROOT
ATOM      1  N   UNL     1      35.198 -23.780 -14.470  0.00  0.00    -0.152 N 
ATOM      2  N   UNL     1      35.865 -22.511 -16.404  0.00  0.00    -0.389 NA
ATOM      3  N   UNL     1      35.754 -24.382 -13.381  0.00  0.00    -0.174 NA
ATOM      4  C   UNL     1      33.840 -23.732 -14.825  0.00  0.00    +0.126 C 
ATOM      5  C   UNL     1      36.178 -23.177 -15.261  0.00  0.00    +0.190 C 
ATOM      6  C   UNL     1      34.605 -22.453 -16.728  0.00  0.00    +0.137 C 
ATOM      7  C   UNL     1      33.493 -23.082 -15.949  0.00  0.00    +0.064 C 
ATOM      8  C   UNL     1      37.383 -23.415 -14.642  0.00  0.00    +0.125 C 
ATOM      9  C   UNL     1      37.060 -24.154 -13.498  0.00  0.00    +0.101 C 
ENDROOT
BRANCH   6  11
ATOM     10  F   UNL     1      36.496 -21.276 -18.469  0.00  0.00    -0.204 F 
ATOM     11  C   UNL     1      34.217 -21.729 -17.968  0.00  0.00    +0.057 C 
ATOM     12  C   UNL     1      35.198 -21.169 -18.788  0.00  0.00    +0.143 C 
ATOM     13  C   UNL     1      32.871 -21.612 -18.311  0.00  0.00    +0.005 C 
ATOM     14  C   UNL     1      34.831 -20.492 -19.951  0.00  0.00    +0.030 C 
ATOM     15  C   UNL     1      32.503 -20.934 -19.474  0.00  0.00    +0.000 C 
ATOM     16  C   UNL     1      33.484 -20.375 -20.294  0.00  0.00    +0.002 C 
ENDBRANCH   6  11
BRANCH   4  17
ATOM     17  N   UNL     1      32.950 -24.363 -14.004  0.00  0.00    -0.316 N 
ATOM     18  H   UNL     1      32.983 -25.345 -13.946  0.00  0.00    +0.148 HD
BRANCH  17  19
ATOM     19  C   UNL     1      31.968 -23.664 -13.218  0.00  0.00    +0.115 C 
BRANCH  19  21
ATOM     20  N   UNL     1      28.166 -23.649 -15.224  0.00  0.00    -0.242 NA
ATOM     21  C   UNL     1      30.639 -23.658 -13.919  0.00  0.00    +0.000 C 
ATOM     22  C   UNL     1      30.160 -22.489 -14.500  0.00  0.00    +0.018 C 
ATOM     23  C   UNL     1      29.883 -24.824 -13.992  0.00  0.00    +0.018 C 
ATOM     24  C   UNL     1      28.929 -22.537 -15.135  0.00  0.00    +0.099 C 
ATOM     25  C   UNL     1      28.664 -24.767 -14.649  0.00  0.00    +0.099 C 
ENDBRANCH  19  21
ENDBRANCH  17  19
ENDBRANCH   4  17
TORSDOF 4
ENDMDL
MODEL 7
REMARK VINA RESULT:     -10.7      4.499      9.349
REMARK  Name = 21066096
REMARK  4 active torsions:
REMARK  status: ('A' for Active; 'I' for Inactive)
REMARK    1  A    between atoms: C_4  and  N_17
REMARK    2  A    between atoms: C_6  and  C_11
REMARK    3  A    between atoms: N_17  and  C_19
REMARK    4  A    between atoms: C_19  and  C_21
REMARK                            x       y       z     vdW  Elec       q    Type
REMARK                         _______ _______ _______ _____ _____    ______ ____
ROOT
ATOM      1  N   UNL     1      34.369 -22.021 -17.666  0.00  0.00    -0.152 N 
ATOM      2  N   UNL     1      33.344 -20.775 -19.454  0.00  0.00    -0.389 NA
ATOM      3  N   UNL     1      34.018 -22.861 -16.652  0.00  0.00    -0.174 NA
ATOM      4  C   UNL     1      35.656 -21.569 -18.002  0.00  0.00    +0.126 C 
ATOM      5  C   UNL     1      33.246 -21.616 -18.390  0.00  0.00    +0.190 C 
ATOM      6  C   UNL     1      34.538 -20.366 -19.775  0.00  0.00    +0.137 C 
ATOM      7  C   UNL     1      35.792 -20.737 -19.048  0.00  0.00    +0.064 C 
ATOM      8  C   UNL     1      32.160 -22.225 -17.803  0.00  0.00    +0.125 C 
ATOM      9  C   UNL     1      32.695 -22.973 -16.747  0.00  0.00    +0.101 C 
ENDROOT
BRANCH   6  11
ATOM     10  F   UNL     1      36.783 -18.682 -20.108  0.00  0.00    -0.204 F 
ATOM     11  C   UNL     1      34.693 -19.450 -20.936  0.00  0.00    +0.057 C 
ATOM     12  C   UNL     1      35.826 -18.643 -21.045  0.00  0.00    +0.143 C 
ATOM     13  C   UNL     1      33.703 -19.401 -21.919  0.00  0.00    +0.005 C 
ATOM     14  C   UNL     1      35.968 -17.785 -22.136  0.00  0.00    +0.030 C 
ATOM     15  C   UNL     1      33.846 -18.544 -23.010  0.00  0.00    +0.000 C 
ATOM     16  C   UNL     1      34.979 -17.736 -23.119  0.00  0.00    +0.002 C 
ENDBRANCH   6  11
BRANCH   4  17
ATOM     17  N   UNL     1      36.697 -22.002 -17.231  0.00  0.00    -0.316 N 
ATOM     18  H   UNL     1      37.281 -22.709 -17.588  0.00  0.00    +0.148 HD
BRANCH  17  19
ATOM     19  C   UNL     1      36.983 -21.475 -15.923  0.00  0.00    +0.115 C 
BRANCH  19  21
ATOM     20  N   UNL     1      37.460 -24.670 -13.086  0.00  0.00    -0.242 NA
ATOM     21  C   UNL     1      37.150 -22.592 -14.930  0.00  0.00    +0.000 C 
ATOM     22  C   UNL     1      36.272 -22.711 -13.858  0.00  0.00    +0.018 C 
ATOM     23  C   UNL     1      38.182 -23.512 -15.081  0.00  0.00    +0.018 C 
ATOM     24  C   UNL     1      36.469 -23.758 -12.972  0.00  0.00    +0.099 C 
ATOM     25  C   UNL     1      38.293 -24.523 -14.140  0.00  0.00    +0.099 C 
ENDBRANCH  19  21
ENDBRANCH  17  19
ENDBRANCH   4  17
TORSDOF 4
ENDMDL
MODEL 8
REMARK VINA RESULT:     -10.7      5.880     10.558
REMARK  Name = 21066096
REMARK  4 active torsions:
REMARK  status: ('A' for Active; 'I' for Inactive)
REMARK    1  A    between atoms: C_4  and  N_17
REMARK    2  A    between atoms: C_6  and  C_11
REMARK    3  A    between atoms: N_17  and  C_19
REMARK    4  A    between atoms: C_19  and  C_21
REMARK                            x       y       z     vdW  Elec       q    Type
REMARK                         _______ _______ _______ _____ _____    ______ ____
ROOT
ATOM      1  N   UNL     1      31.628 -23.301 -15.487  0.00  0.00    -0.152 N 
ATOM      2  N   UNL     1      31.574 -22.034 -17.533  0.00  0.00    -0.389 NA
ATOM      3  N   UNL     1      30.769 -23.876 -14.598  0.00  0.00    -0.174 NA
ATOM      4  C   UNL     1      33.032 -23.287 -15.438  0.00  0.00    +0.126 C 
ATOM      5  C   UNL     1      30.931 -22.677 -16.522  0.00  0.00    +0.190 C 
ATOM      6  C   UNL     1      32.876 -22.032 -17.498  0.00  0.00    +0.137 C 
ATOM      7  C   UNL     1      33.702 -22.661 -16.421  0.00  0.00    +0.064 C 
ATOM      8  C   UNL     1      29.592 -22.869 -16.266  0.00  0.00    +0.125 C 
ATOM      9  C   UNL     1      29.556 -23.609 -15.078  0.00  0.00    +0.101 C 
ENDROOT
BRANCH   6  11
ATOM     10  F   UNL     1      31.618 -20.346 -19.386  0.00  0.00    -0.204 F 
ATOM     11  C   UNL     1      33.620 -21.345 -18.587  0.00  0.00    +0.057 C 
ATOM     12  C   UNL     1      32.943 -20.524 -19.489  0.00  0.00    +0.143 C 
ATOM     13  C   UNL     1      34.999 -21.522 -18.704  0.00  0.00    +0.005 C 
ATOM     14  C   UNL     1      33.644 -19.881 -20.508  0.00  0.00    +0.030 C 
ATOM     15  C   UNL     1      35.701 -20.879 -19.723  0.00  0.00    +0.000 C 
ATOM     16  C   UNL     1      35.023 -20.058 -20.626  0.00  0.00    +0.002 C 
ENDBRANCH   6  11
BRANCH   4  17
ATOM     17  N   UNL     1      33.633 -23.909 -14.381  0.00  0.00    -0.316 N 
ATOM     18  H   UNL     1      33.146 -23.953 -13.527  0.00  0.00    +0.148 HD
BRANCH  17  19
ATOM     19  C   UNL     1      34.941 -24.502 -14.453  0.00  0.00    +0.115 C 
BRANCH  19  21
ATOM     20  N   UNL     1      37.063 -23.924 -10.759  0.00  0.00    -0.242 NA
ATOM     21  C   UNL     1      35.684 -24.300 -13.162  0.00  0.00    +0.000 C 
ATOM     22  C   UNL     1      37.074 -24.264 -13.153  0.00  0.00    +0.018 C 
ATOM     23  C   UNL     1      34.982 -24.148 -11.970  0.00  0.00    +0.018 C 
ATOM     24  C   UNL     1      37.710 -24.074 -11.937  0.00  0.00    +0.099 C 
ATOM     25  C   UNL     1      35.712 -23.964 -10.807  0.00  0.00    +0.099 C 
ENDBRANCH  19  21
ENDBRANCH  17  19
ENDBRANCH   4  17
TORSDOF 4
ENDMDL
MODEL 9
REMARK VINA RESULT:     -10.6      6.667     10.381
REMARK  Name = 21066096
REMARK  4 active torsions:
REMARK  status: ('A' for Active; 'I' for Inactive)
REMARK    1  A    between atoms: C_4  and  N_17
REMARK    2  A    between atoms: C_6  and  C_11
REMARK    3  A    between atoms: N_17  and  C_19
REMARK    4  A    between atoms: C_19  and  C_21
REMARK                            x       y       z     vdW  Elec       q    Type
REMARK                         _______ _______ _______ _____ _____    ______ ____
ROOT
ATOM      1  N   UNL     1      35.229 -23.871 -14.194  0.00  0.00    -0.152 N 
ATOM      2  N   UNL     1      36.070 -22.708 -16.127  0.00  0.00    -0.389 NA
ATOM      3  N   UNL     1      35.693 -24.493 -13.073  0.00  0.00    -0.174 NA
ATOM      4  C   UNL     1      33.894 -23.716 -14.599  0.00  0.00    +0.126 C 
ATOM      5  C   UNL     1      36.284 -23.372 -14.960  0.00  0.00    +0.190 C 
ATOM      6  C   UNL     1      34.831 -22.550 -16.498  0.00  0.00    +0.137 C 
ATOM      7  C   UNL     1      33.643 -23.064 -15.748  0.00  0.00    +0.064 C 
ATOM      8  C   UNL     1      37.442 -23.697 -14.292  0.00  0.00    +0.125 C 
ATOM      9  C   UNL     1      37.017 -24.380 -13.147  0.00  0.00    +0.101 C 
ENDROOT
BRANCH   6  11
ATOM     10  F   UNL     1      32.225 -22.263 -17.553  0.00  0.00    -0.204 F 
ATOM     11  C   UNL     1      34.550 -21.825 -17.765  0.00  0.00    +0.057 C 
ATOM     12  C   UNL     1      33.241 -21.716 -18.235  0.00  0.00    +0.143 C 
ATOM     13  C   UNL     1      35.599 -21.250 -18.483  0.00  0.00    +0.005 C 
ATOM     14  C   UNL     1      32.981 -21.034 -19.423  0.00  0.00    +0.030 C 
ATOM     15  C   UNL     1      35.339 -20.567 -19.672  0.00  0.00    +0.000 C 
ATOM     16  C   UNL     1      34.030 -20.459 -20.141  0.00  0.00    +0.002 C 
ENDBRANCH   6  11
BRANCH   4  17
ATOM     17  N   UNL     1      32.925 -24.250 -13.798  0.00  0.00    -0.316 N 
ATOM     18  H   UNL     1      32.930 -25.222 -13.644  0.00  0.00    +0.148 HD
BRANCH  17  19
ATOM     19  C   UNL     1      31.898 -23.463 -13.169  0.00  0.00    +0.115 C 
BRANCH  19  21
ATOM     20  N   UNL     1      28.182 -23.859 -15.294  0.00  0.00    -0.242 NA
ATOM     21  C   UNL     1      30.598 -23.602 -13.912  0.00  0.00    +0.000 C 
ATOM     22  C   UNL     1      29.885 -24.795 -13.856  0.00  0.00    +0.018 C 
ATOM     23  C   UNL     1      30.103 -22.537 -14.658  0.00  0.00    +0.018 C 
ATOM     24  C   UNL     1      28.693 -24.871 -14.558  0.00  0.00    +0.099 C 
ATOM     25  C   UNL     1      28.901 -22.715 -15.325  0.00  0.00    +0.099 C 
ENDBRANCH  19  21
ENDBRANCH  17  19
ENDBRANCH   4  17
TORSDOF 4
ENDMDL
