MODEL 1
REMARK VINA RESULT:     -12.2      0.000      0.000
REMARK  Name = 25113615
REMARK  7 active torsions:
REMARK  status: ('A' for Active; 'I' for Inactive)
REMARK    1  A    between atoms: N_2  and  C_20
REMARK    2  A    between atoms: C_3  and  C_7
REMARK    3  A    between atoms: C_11  and  C_12
REMARK    4  A    between atoms: C_12  and  C_13
REMARK    5  A    between atoms: C_13  and  C_14
REMARK    6  A    between atoms: C_20  and  C_21
REMARK    7  A    between atoms: C_26  and  C_29
REMARK                            x       y       z     vdW  Elec       q    Type
REMARK                         _______ _______ _______ _____ _____    ______ ____
ROOT
ATOM      1  O   UNL     1      35.326 -23.444 -12.905  0.00  0.00    -0.273 OA
ATOM      2  N   UNL     1      33.597 -24.494 -14.058  0.00  0.00    -0.299 N 
ATOM      3  C   UNL     1      34.916 -24.138 -13.832  0.00  0.00    +0.241 C 
ATOM      4  H   UNL     1      33.391 -25.057 -14.838  0.00  0.00    +0.150 HD
ENDROOT
BRANCH   3   7
ATOM      5  O   UNL     1      38.291 -22.113 -15.692  0.00  0.00    -0.275 OA
ATOM      6  N   UNL     1      37.044 -23.891 -14.903  0.00  0.00    -0.273 N 
ATOM      7  C   UNL     1      35.844 -24.724 -14.852  0.00  0.00    +0.152 C 
ATOM      8  C   UNL     1      36.349 -26.092 -14.400  0.00  0.00    +0.031 C 
ATOM      9  C   UNL     1      37.569 -25.756 -13.546  0.00  0.00    +0.024 C 
ATOM     10  C   UNL     1      38.170 -24.554 -14.258  0.00  0.00    +0.094 C 
ATOM     11  C   UNL     1      37.209 -22.696 -15.582  0.00  0.00    +0.226 C 
BRANCH  11  12
ATOM     12  C   UNL     1      35.968 -22.111 -16.208  0.00  0.00    +0.090 C 
BRANCH  12  13
ATOM     13  C   UNL     1      36.262 -21.617 -17.617  0.00  0.00    +0.036 C 
BRANCH  13  14
ATOM     14  C   UNL     1      35.017 -21.304 -18.411  0.00  0.00    -0.022 C 
ATOM     15  C   UNL     1      35.099 -20.497 -19.546  0.00  0.00    -0.004 C 
ATOM     16  C   UNL     1      33.786 -21.820 -18.010  0.00  0.00    -0.004 C 
ATOM     17  C   UNL     1      33.949 -20.206 -20.281  0.00  0.00    -0.000 C 
ATOM     18  C   UNL     1      32.636 -21.530 -18.744  0.00  0.00    -0.000 C 
ATOM     19  C   UNL     1      32.717 -20.723 -19.879  0.00  0.00    -0.000 C 
ENDBRANCH  13  14
ENDBRANCH  12  13
ENDBRANCH  11  12
ENDBRANCH   3   7
BRANCH   2  20
ATOM     20  C   UNL     1      32.509 -24.077 -13.203  0.00  0.00    +0.116 C 
BRANCH  20  21
ATOM     21  C   UNL     1      31.249 -23.825 -13.982  0.00  0.00    -0.003 C 
ATOM     22  C   UNL     1      30.117 -24.604 -13.746  0.00  0.00    -0.003 C 
ATOM     23  C   UNL     1      31.212 -22.812 -14.942  0.00  0.00    -0.003 C 
ATOM     24  C   UNL     1      28.948 -24.372 -14.471  0.00  0.00    +0.002 C 
ATOM     25  C   UNL     1      30.043 -22.580 -15.665  0.00  0.00    +0.002 C 
ATOM     26  C   UNL     1      28.910 -23.360 -15.430  0.00  0.00    +0.031 C 
BRANCH  26  29
ATOM     27  N   UNL     1      26.865 -22.033 -15.897  0.00  0.00    -0.343 N 
ATOM     28  N   UNL     1      27.346 -23.938 -17.160  0.00  0.00    -0.285 NA
ATOM     29  C   UNL     1      27.691 -23.118 -16.184  0.00  0.00    +0.117 C 
ATOM     30  H   UNL     1      26.044 -21.888 -16.419  0.00  0.00    +0.144 HD
ATOM     31  H   UNL     1      27.102 -21.412 -15.171  0.00  0.00    +0.144 HD
ATOM     32  H   UNL     1      26.521 -23.776 -17.671  0.00  0.00    +0.188 HD
ENDBRANCH  26  29
ENDBRANCH  20  21
ENDBRANCH   2  20
TORSDOF 7
ENDMDL
MODEL 2
REMARK VINA RESULT:     -11.6      2.891      6.240
REMARK  Name = 25113615
REMARK  7 active torsions:
REMARK  status: ('A' for Active; 'I' for Inactive)
REMARK    1  A    between atoms: N_2  and  C_20
REMARK    2  A    between atoms: C_3  and  C_7
REMARK    3  A    between atoms: C_11  and  C_12
REMARK    4  A    between atoms: C_12  and  C_13
REMARK    5  A    between atoms: C_13  and  C_14
REMARK    6  A    between atoms: C_20  and  C_21
REMARK    7  A    between atoms: C_26  and  C_29
REMARK                            x       y       z     vdW  Elec       q    Type
REMARK                         _______ _______ _______ _____ _____    ______ ____
ROOT
ATOM      1  O   UNL     1      34.933 -24.502 -15.671  0.00  0.00    -0.273 OA
ATOM      2  N   UNL     1      34.168 -22.387 -16.272  0.00  0.00    -0.299 N 
ATOM      3  C   UNL     1      34.802 -23.301 -15.448  0.00  0.00    +0.241 C 
ATOM      4  H   UNL     1      34.126 -21.446 -15.984  0.00  0.00    +0.150 HD
ENDROOT
BRANCH   3   7
ATOM      5  O   UNL     1      34.257 -24.697 -11.360  0.00  0.00    -0.275 OA
ATOM      6  N   UNL     1      35.300 -23.638 -13.129  0.00  0.00    -0.273 N 
ATOM      7  C   UNL     1      35.361 -22.661 -14.213  0.00  0.00    +0.152 C 
ATOM      8  C   UNL     1      36.850 -22.370 -14.382  0.00  0.00    +0.031 C 
ATOM      9  C   UNL     1      37.516 -23.676 -13.954  0.00  0.00    +0.024 C 
ATOM     10  C   UNL     1      36.624 -24.166 -12.825  0.00  0.00    +0.094 C 
ATOM     11  C   UNL     1      34.203 -23.960 -12.348  0.00  0.00    +0.226 C 
BRANCH  11  12
ATOM     12  C   UNL     1      32.889 -23.348 -12.763  0.00  0.00    +0.090 C 
BRANCH  12  13
ATOM     13  C   UNL     1      31.856 -24.432 -13.035  0.00  0.00    +0.036 C 
BRANCH  13  14
ATOM     14  C   UNL     1      30.801 -24.014 -14.031  0.00  0.00    -0.022 C 
ATOM     15  C   UNL     1      29.619 -24.744 -14.141  0.00  0.00    -0.004 C 
ATOM     16  C   UNL     1      31.010 -22.898 -14.841  0.00  0.00    -0.004 C 
ATOM     17  C   UNL     1      28.643 -24.359 -15.061  0.00  0.00    -0.000 C 
ATOM     18  C   UNL     1      30.035 -22.513 -15.761  0.00  0.00    -0.000 C 
ATOM     19  C   UNL     1      28.851 -23.243 -15.871  0.00  0.00    -0.000 C 
ENDBRANCH  13  14
ENDBRANCH  12  13
ENDBRANCH  11  12
ENDBRANCH   3   7
BRANCH   2  20
ATOM     20  C   UNL     1      33.566 -22.746 -17.535  0.00  0.00    +0.116 C 
BRANCH  20  21
ATOM     21  C   UNL     1      33.800 -21.700 -18.587  0.00  0.00    -0.003 C 
ATOM     22  C   UNL     1      32.715 -21.073 -19.199  0.00  0.00    -0.003 C 
ATOM     23  C   UNL     1      35.103 -21.357 -18.953  0.00  0.00    -0.003 C 
ATOM     24  C   UNL     1      32.933 -20.103 -20.178  0.00  0.00    +0.002 C 
ATOM     25  C   UNL     1      35.319 -20.387 -19.931  0.00  0.00    +0.002 C 
ATOM     26  C   UNL     1      34.234 -19.760 -20.544  0.00  0.00    +0.031 C 
BRANCH  26  29
ATOM     27  N   UNL     1      35.000 -17.504 -21.242  0.00  0.00    -0.343 N 
ATOM     28  N   UNL     1      34.146 -18.999 -22.821  0.00  0.00    -0.285 NA
ATOM     29  C   UNL     1      34.460 -18.747 -21.563  0.00  0.00    +0.117 C 
ATOM     30  H   UNL     1      35.144 -16.833 -21.948  0.00  0.00    +0.144 HD
ATOM     31  H   UNL     1      35.238 -17.296 -20.310  0.00  0.00    +0.144 HD
ATOM     32  H   UNL     1      34.297 -18.315 -23.512  0.00  0.00    +0.188 HD
ENDBRANCH  26  29
ENDBRANCH  20  21
ENDBRANCH   2  20
TORSDOF 7
ENDMDL
MODEL 3
REMARK VINA RESULT:     -11.5      8.606     12.104
REMARK  Name = 25113615
REMARK  7 active torsions:
REMARK  status: ('A' for Active; 'I' for Inactive)
REMARK    1  A    between atoms: N_2  and  C_20
REMARK    2  A    between atoms: C_3  and  C_7
REMARK    3  A    between atoms: C_11  and  C_12
REMARK    4  A    between atoms: C_12  and  C_13
REMARK    5  A    between atoms: C_13  and  C_14
REMARK    6  A    between atoms: C_20  and  C_21
REMARK    7  A    between atoms: C_26  and  C_29
REMARK                            x       y       z     vdW  Elec       q    Type
REMARK                         _______ _______ _______ _____ _____    ______ ____
ROOT
ATOM      1  O   UNL     1      34.129 -15.306 -20.504  0.00  0.00    -0.273 OA
ATOM      2  N   UNL     1      33.021 -13.867 -21.962  0.00  0.00    -0.299 N 
ATOM      3  C   UNL     1      33.935 -14.853 -21.630  0.00  0.00    +0.241 C 
ATOM      4  H   UNL     1      32.957 -13.586 -22.904  0.00  0.00    +0.150 HD
ENDROOT
BRANCH   3   7
ATOM      5  O   UNL     1      33.837 -18.916 -23.191  0.00  0.00    -0.275 OA
ATOM      6  N   UNL     1      34.073 -16.618 -23.244  0.00  0.00    -0.273 N 
ATOM      7  C   UNL     1      34.684 -15.359 -22.825  0.00  0.00    +0.152 C 
ATOM      8  C   UNL     1      34.491 -14.426 -24.018  0.00  0.00    +0.031 C 
ATOM      9  C   UNL     1      33.204 -14.937 -24.662  0.00  0.00    +0.024 C 
ATOM     10  C   UNL     1      33.289 -16.442 -24.459  0.00  0.00    +0.094 C 
ATOM     11  C   UNL     1      34.283 -17.875 -22.702  0.00  0.00    +0.226 C 
BRANCH  11  12
ATOM     12  C   UNL     1      35.113 -17.926 -21.445  0.00  0.00    +0.090 C 
BRANCH  12  13
ATOM     13  C   UNL     1      35.655 -19.330 -21.217  0.00  0.00    +0.036 C 
BRANCH  13  14
ATOM     14  C   UNL     1      34.826 -20.140 -20.251  0.00  0.00    -0.022 C 
ATOM     15  C   UNL     1      33.436 -20.033 -20.265  0.00  0.00    -0.004 C 
ATOM     16  C   UNL     1      35.451 -20.995 -19.343  0.00  0.00    -0.004 C 
ATOM     17  C   UNL     1      32.668 -20.782 -19.372  0.00  0.00    -0.000 C 
ATOM     18  C   UNL     1      34.684 -21.743 -18.450  0.00  0.00    -0.000 C 
ATOM     19  C   UNL     1      33.293 -21.637 -18.464  0.00  0.00    -0.000 C 
ENDBRANCH  13  14
ENDBRANCH  12  13
ENDBRANCH  11  12
ENDBRANCH   3   7
BRANCH   2  20
ATOM     20  C   UNL     1      32.157 -13.232 -20.994  0.00  0.00    +0.116 C 
BRANCH  20  21
ATOM     21  C   UNL     1      31.860 -11.806 -21.358  0.00  0.00    -0.003 C 
ATOM     22  C   UNL     1      31.181 -10.984 -20.458  0.00  0.00    -0.003 C 
ATOM     23  C   UNL     1      32.262 -11.302 -22.596  0.00  0.00    -0.003 C 
ATOM     24  C   UNL     1      30.902  -9.660 -20.796  0.00  0.00    +0.002 C 
ATOM     25  C   UNL     1      31.984  -9.978 -22.933  0.00  0.00    +0.002 C 
ATOM     26  C   UNL     1      31.304  -9.156 -22.033  0.00  0.00    +0.031 C 
BRANCH  26  29
ATOM     27  N   UNL     1      30.674  -7.415 -23.687  0.00  0.00    -0.343 N 
ATOM     28  N   UNL     1      31.078  -6.834 -21.460  0.00  0.00    -0.285 NA
ATOM     29  C   UNL     1      31.015  -7.775 -22.385  0.00  0.00    +0.117 C 
ATOM     30  H   UNL     1      30.484  -6.473 -23.903  0.00  0.00    +0.144 HD
ATOM     31  H   UNL     1      30.626  -8.100 -24.391  0.00  0.00    +0.144 HD
ATOM     32  H   UNL     1      30.883  -5.899 -21.696  0.00  0.00    +0.188 HD
ENDBRANCH  26  29
ENDBRANCH  20  21
ENDBRANCH   2  20
TORSDOF 7
ENDMDL
MODEL 4
REMARK VINA RESULT:     -11.3      3.655      7.352
REMARK  Name = 25113615
REMARK  7 active torsions:
REMARK  status: ('A' for Active; 'I' for Inactive)
REMARK    1  A    between atoms: N_2  and  C_20
REMARK    2  A    between atoms: C_3  and  C_7
REMARK    3  A    between atoms: C_11  and  C_12
REMARK    4  A    between atoms: C_12  and  C_13
REMARK    5  A    between atoms: C_13  and  C_14
REMARK    6  A    between atoms: C_20  and  C_21
REMARK    7  A    between atoms: C_26  and  C_29
REMARK                            x       y       z     vdW  Elec       q    Type
REMARK                         _______ _______ _______ _____ _____    ______ ____
ROOT
ATOM      1  O   UNL     1      34.225 -22.706 -17.525  0.00  0.00    -0.273 OA
ATOM      2  N   UNL     1      35.889 -21.253 -18.261  0.00  0.00    -0.299 N 
ATOM      3  C   UNL     1      35.155 -21.934 -17.305  0.00  0.00    +0.241 C 
ATOM      4  H   UNL     1      36.614 -20.659 -17.960  0.00  0.00    +0.150 HD
ENDROOT
BRANCH   3   7
ATOM      5  O   UNL     1      34.533 -24.458 -13.812  0.00  0.00    -0.275 OA
ATOM      6  N   UNL     1      35.585 -22.899 -15.155  0.00  0.00    -0.273 N 
ATOM      7  C   UNL     1      35.635 -21.651 -15.913  0.00  0.00    +0.152 C 
ATOM      8  C   UNL     1      37.112 -21.267 -15.919  0.00  0.00    +0.031 C 
ATOM      9  C   UNL     1      37.828 -22.614 -15.846  0.00  0.00    +0.024 C 
ATOM     10  C   UNL     1      36.922 -23.440 -14.948  0.00  0.00    +0.094 C 
ATOM     11  C   UNL     1      34.478 -23.472 -14.551  0.00  0.00    +0.226 C 
BRANCH  11  12
ATOM     12  C   UNL     1      33.151 -22.818 -14.841  0.00  0.00    +0.090 C 
BRANCH  12  13
ATOM     13  C   UNL     1      32.109 -23.245 -13.818  0.00  0.00    +0.036 C 
BRANCH  13  14
ATOM     14  C   UNL     1      30.745 -23.485 -14.419  0.00  0.00    -0.022 C 
ATOM     15  C   UNL     1      29.954 -24.536 -13.956  0.00  0.00    -0.004 C 
ATOM     16  C   UNL     1      30.277 -22.656 -15.438  0.00  0.00    -0.004 C 
ATOM     17  C   UNL     1      28.693 -24.758 -14.511  0.00  0.00    -0.000 C 
ATOM     18  C   UNL     1      29.017 -22.878 -15.994  0.00  0.00    -0.000 C 
ATOM     19  C   UNL     1      28.225 -23.929 -15.530  0.00  0.00    -0.000 C 
ENDBRANCH  13  14
ENDBRANCH  12  13
ENDBRANCH  11  12
ENDBRANCH   3   7
BRANCH   2  20
ATOM     20  C   UNL     1      35.641 -21.372 -19.680  0.00  0.00    +0.116 C 
BRANCH  20  21
ATOM     21  C   UNL     1      35.377 -20.038 -20.317  0.00  0.00    -0.003 C 
ATOM     22  C   UNL     1      34.070 -19.656 -20.619  0.00  0.00    -0.003 C 
ATOM     23  C   UNL     1      36.440 -19.181 -20.609  0.00  0.00    -0.003 C 
ATOM     24  C   UNL     1      33.825 -18.418 -21.214  0.00  0.00    +0.002 C 
ATOM     25  C   UNL     1      36.194 -17.943 -21.202  0.00  0.00    +0.002 C 
ATOM     26  C   UNL     1      34.886 -17.561 -21.505  0.00  0.00    +0.031 C 
BRANCH  26  29
ATOM     27  N   UNL     1      34.703 -16.100 -23.503  0.00  0.00    -0.343 N 
ATOM     28  N   UNL     1      34.324 -15.229 -21.369  0.00  0.00    -0.285 NA
ATOM     29  C   UNL     1      34.630 -16.270 -22.123  0.00  0.00    +0.117 C 
ATOM     30  H   UNL     1      34.527 -15.217 -23.901  0.00  0.00    +0.144 HD
ATOM     31  H   UNL     1      34.933 -16.862 -24.082  0.00  0.00    +0.144 HD
ATOM     32  H   UNL     1      34.150 -14.354 -21.785  0.00  0.00    +0.188 HD
ENDBRANCH  26  29
ENDBRANCH  20  21
ENDBRANCH   2  20
TORSDOF 7
ENDMDL
MODEL 5
REMARK VINA RESULT:     -11.2      9.199     12.649
REMARK  Name = 25113615
REMARK  7 active torsions:
REMARK  status: ('A' for Active; 'I' for Inactive)
REMARK    1  A    between atoms: N_2  and  C_20
REMARK    2  A    between atoms: C_3  and  C_7
REMARK    3  A    between atoms: C_11  and  C_12
REMARK    4  A    between atoms: C_12  and  C_13
REMARK    5  A    between atoms: C_13  and  C_14
REMARK    6  A    between atoms: C_20  and  C_21
REMARK    7  A    between atoms: C_26  and  C_29
REMARK                            x       y       z     vdW  Elec       q    Type
REMARK                         _______ _______ _______ _____ _____    ______ ____
ROOT
ATOM      1  O   UNL     1      33.378 -14.689 -20.676  0.00  0.00    -0.273 OA
ATOM      2  N   UNL     1      32.469 -12.947 -21.927  0.00  0.00    -0.299 N 
ATOM      3  C   UNL     1      33.331 -14.006 -21.697  0.00  0.00    +0.241 C 
ATOM      4  H   UNL     1      32.527 -12.475 -22.789  0.00  0.00    +0.150 HD
ENDROOT
BRANCH   3   7
ATOM      5  O   UNL     1      33.883 -17.843 -23.680  0.00  0.00    -0.275 OA
ATOM      6  N   UNL     1      33.817 -15.543 -23.470  0.00  0.00    -0.273 N 
ATOM      7  C   UNL     1      34.226 -14.275 -22.869  0.00  0.00    +0.152 C 
ATOM      8  C   UNL     1      33.999 -13.241 -23.969  0.00  0.00    +0.031 C 
ATOM      9  C   UNL     1      32.841 -13.829 -24.774  0.00  0.00    +0.024 C 
ATOM     10  C   UNL     1      33.108 -15.324 -24.724  0.00  0.00    +0.094 C 
ATOM     11  C   UNL     1      34.151 -16.819 -23.047  0.00  0.00    +0.226 C 
BRANCH  11  12
ATOM     12  C   UNL     1      34.887 -16.912 -21.734  0.00  0.00    +0.090 C 
BRANCH  12  13
ATOM     13  C   UNL     1      35.741 -18.171 -21.688  0.00  0.00    +0.036 C 
BRANCH  13  14
ATOM     14  C   UNL     1      35.174 -19.243 -20.789  0.00  0.00    -0.022 C 
ATOM     15  C   UNL     1      36.029 -20.029 -20.016  0.00  0.00    -0.004 C 
ATOM     16  C   UNL     1      33.796 -19.449 -20.732  0.00  0.00    -0.004 C 
ATOM     17  C   UNL     1      35.506 -21.020 -19.185  0.00  0.00    -0.000 C 
ATOM     18  C   UNL     1      33.273 -20.440 -19.902  0.00  0.00    -0.000 C 
ATOM     19  C   UNL     1      34.128 -21.226 -19.128  0.00  0.00    -0.000 C 
ENDBRANCH  13  14
ENDBRANCH  12  13
ENDBRANCH  11  12
ENDBRANCH   3   7
BRANCH   2  20
ATOM     20  C   UNL     1      31.490 -12.502 -20.962  0.00  0.00    +0.116 C 
BRANCH  20  21
ATOM     21  C   UNL     1      31.495 -11.008 -20.806  0.00  0.00    -0.003 C 
ATOM     22  C   UNL     1      31.482 -10.441 -19.532  0.00  0.00    -0.003 C 
ATOM     23  C   UNL     1      31.509 -10.188 -21.936  0.00  0.00    -0.003 C 
ATOM     24  C   UNL     1      31.484  -9.053 -19.387  0.00  0.00    +0.002 C 
ATOM     25  C   UNL     1      31.512  -8.801 -21.790  0.00  0.00    +0.002 C 
ATOM     26  C   UNL     1      31.499  -8.234 -20.515  0.00  0.00    +0.031 C 
BRANCH  26  29
ATOM     27  N   UNL     1      30.843  -5.961 -21.271  0.00  0.00    -0.343 N 
ATOM     28  N   UNL     1      32.145  -6.234 -19.350  0.00  0.00    -0.285 NA
ATOM     29  C   UNL     1      31.503  -6.787 -20.363  0.00  0.00    +0.117 C 
ATOM     30  H   UNL     1      30.859  -4.985 -21.150  0.00  0.00    +0.144 HD
ATOM     31  H   UNL     1      30.363  -6.354 -22.035  0.00  0.00    +0.144 HD
ATOM     32  H   UNL     1      32.148  -5.255 -19.245  0.00  0.00    +0.188 HD
ENDBRANCH  26  29
ENDBRANCH  20  21
ENDBRANCH   2  20
TORSDOF 7
ENDMDL
MODEL 6
REMARK VINA RESULT:     -10.5      4.298      8.464
REMARK  Name = 25113615
REMARK  7 active torsions:
REMARK  status: ('A' for Active; 'I' for Inactive)
REMARK    1  A    between atoms: N_2  and  C_20
REMARK    2  A    between atoms: C_3  and  C_7
REMARK    3  A    between atoms: C_11  and  C_12
REMARK    4  A    between atoms: C_12  and  C_13
REMARK    5  A    between atoms: C_13  and  C_14
REMARK    6  A    between atoms: C_20  and  C_21
REMARK    7  A    between atoms: C_26  and  C_29
REMARK                            x       y       z     vdW  Elec       q    Type
REMARK                         _______ _______ _______ _____ _____    ______ ____
ROOT
ATOM      1  O   UNL     1      36.351 -20.460 -17.744  0.00  0.00    -0.273 OA
ATOM      2  N   UNL     1      35.489 -20.341 -19.904  0.00  0.00    -0.299 N 
ATOM      3  C   UNL     1      35.668 -20.918 -18.658  0.00  0.00    +0.241 C 
ATOM      4  H   UNL     1      34.916 -20.805 -20.557  0.00  0.00    +0.150 HD
ENDROOT
BRANCH   3   7
ATOM      5  O   UNL     1      33.802 -22.380 -15.007  0.00  0.00    -0.275 OA
ATOM      6  N   UNL     1      34.115 -22.112 -17.280  0.00  0.00    -0.273 N 
ATOM      7  C   UNL     1      34.902 -22.197 -18.508  0.00  0.00    +0.152 C 
ATOM      8  C   UNL     1      33.863 -22.336 -19.618  0.00  0.00    +0.031 C 
ATOM      9  C   UNL     1      32.649 -21.594 -19.062  0.00  0.00    +0.024 C 
ATOM     10  C   UNL     1      32.703 -21.907 -17.575  0.00  0.00    +0.094 C 
ATOM     11  C   UNL     1      34.552 -22.336 -15.985  0.00  0.00    +0.226 C 
BRANCH  11  12
ATOM     12  C   UNL     1      36.036 -22.537 -15.811  0.00  0.00    +0.090 C 
BRANCH  12  13
ATOM     13  C   UNL     1      36.369 -22.826 -14.354  0.00  0.00    +0.036 C 
BRANCH  13  14
ATOM     14  C   UNL     1      37.547 -23.754 -14.185  0.00  0.00    -0.022 C 
ATOM     15  C   UNL     1      38.548 -23.795 -15.155  0.00  0.00    -0.004 C 
ATOM     16  C   UNL     1      37.635 -24.571 -13.058  0.00  0.00    -0.004 C 
ATOM     17  C   UNL     1      39.638 -24.652 -15.000  0.00  0.00    -0.000 C 
ATOM     18  C   UNL     1      38.725 -25.428 -12.902  0.00  0.00    -0.000 C 
ATOM     19  C   UNL     1      39.726 -25.469 -13.873  0.00  0.00    -0.000 C 
ENDBRANCH  13  14
ENDBRANCH  12  13
ENDBRANCH  11  12
ENDBRANCH   3   7
BRANCH   2  20
ATOM     20  C   UNL     1      36.101 -19.091 -20.292  0.00  0.00    +0.116 C 
BRANCH  20  21
ATOM     21  C   UNL     1      35.349 -18.420 -21.405  0.00  0.00    -0.003 C 
ATOM     22  C   UNL     1      35.309 -17.027 -21.477  0.00  0.00    -0.003 C 
ATOM     23  C   UNL     1      34.689 -19.188 -22.365  0.00  0.00    -0.003 C 
ATOM     24  C   UNL     1      34.608 -16.403 -22.509  0.00  0.00    +0.002 C 
ATOM     25  C   UNL     1      33.989 -18.563 -23.397  0.00  0.00    +0.002 C 
ATOM     26  C   UNL     1      33.948 -17.170 -23.469  0.00  0.00    +0.031 C 
BRANCH  26  29
ATOM     27  N   UNL     1      33.483 -15.199 -24.904  0.00  0.00    -0.343 N 
ATOM     28  N   UNL     1      32.283 -17.181 -25.202  0.00  0.00    -0.285 NA
ATOM     29  C   UNL     1      33.220 -16.519 -24.546  0.00  0.00    +0.117 C 
ATOM     30  H   UNL     1      32.977 -14.777 -25.635  0.00  0.00    +0.144 HD
ATOM     31  H   UNL     1      34.174 -14.687 -24.425  0.00  0.00    +0.144 HD
ATOM     32  H   UNL     1      31.789 -16.742 -25.930  0.00  0.00    +0.188 HD
ENDBRANCH  26  29
ENDBRANCH  20  21
ENDBRANCH   2  20
TORSDOF 7
ENDMDL
MODEL 7
REMARK VINA RESULT:     -10.4      2.884      6.727
REMARK  Name = 25113615
REMARK  7 active torsions:
REMARK  status: ('A' for Active; 'I' for Inactive)
REMARK    1  A    between atoms: N_2  and  C_20
REMARK    2  A    between atoms: C_3  and  C_7
REMARK    3  A    between atoms: C_11  and  C_12
REMARK    4  A    between atoms: C_12  and  C_13
REMARK    5  A    between atoms: C_13  and  C_14
REMARK    6  A    between atoms: C_20  and  C_21
REMARK    7  A    between atoms: C_26  and  C_29
REMARK                            x       y       z     vdW  Elec       q    Type
REMARK                         _______ _______ _______ _____ _____    ______ ____
ROOT
ATOM      1  O   UNL     1      35.522 -23.628 -16.116  0.00  0.00    -0.273 OA
ATOM      2  N   UNL     1      33.576 -22.405 -16.491  0.00  0.00    -0.299 N 
ATOM      3  C   UNL     1      34.619 -22.893 -15.722  0.00  0.00    +0.241 C 
ATOM      4  H   UNL     1      32.910 -21.821 -16.061  0.00  0.00    +0.150 HD
ENDROOT
BRANCH   3   7
ATOM      5  O   UNL     1      32.081 -24.482 -12.562  0.00  0.00    -0.275 OA
ATOM      6  N   UNL     1      33.917 -23.437 -13.497  0.00  0.00    -0.273 N 
ATOM      7  C   UNL     1      34.559 -22.403 -14.307  0.00  0.00    +0.152 C 
ATOM      8  C   UNL     1      35.962 -22.275 -13.720  0.00  0.00    +0.031 C 
ATOM      9  C   UNL     1      36.248 -23.674 -13.178  0.00  0.00    +0.024 C 
ATOM     10  C   UNL     1      34.892 -24.132 -12.667  0.00  0.00    +0.094 C 
ATOM     11  C   UNL     1      32.560 -23.681 -13.367  0.00  0.00    +0.226 C 
BRANCH  11  12
ATOM     12  C   UNL     1      31.654 -22.896 -14.282  0.00  0.00    +0.090 C 
BRANCH  12  13
ATOM     13  C   UNL     1      30.235 -22.865 -13.732  0.00  0.00    +0.036 C 
BRANCH  13  14
ATOM     14  C   UNL     1      29.177 -22.936 -14.806  0.00  0.00    -0.022 C 
ATOM     15  C   UNL     1      28.992 -24.117 -15.525  0.00  0.00    -0.004 C 
ATOM     16  C   UNL     1      28.386 -21.821 -15.081  0.00  0.00    -0.004 C 
ATOM     17  C   UNL     1      28.014 -24.184 -16.518  0.00  0.00    -0.000 C 
ATOM     18  C   UNL     1      27.409 -21.887 -16.074  0.00  0.00    -0.000 C 
ATOM     19  C   UNL     1      27.223 -23.069 -16.793  0.00  0.00    -0.000 C 
ENDBRANCH  13  14
ENDBRANCH  12  13
ENDBRANCH  11  12
ENDBRANCH   3   7
BRANCH   2  20
ATOM     20  C   UNL     1      33.420 -22.710 -17.895  0.00  0.00    +0.116 C 
BRANCH  20  21
ATOM     21  C   UNL     1      33.985 -21.628 -18.770  0.00  0.00    -0.003 C 
ATOM     22  C   UNL     1      35.359 -21.386 -18.778  0.00  0.00    -0.003 C 
ATOM     23  C   UNL     1      33.137 -20.864 -19.573  0.00  0.00    -0.003 C 
ATOM     24  C   UNL     1      35.884 -20.379 -19.589  0.00  0.00    +0.002 C 
ATOM     25  C   UNL     1      33.663 -19.859 -20.384  0.00  0.00    +0.002 C 
ATOM     26  C   UNL     1      35.037 -19.617 -20.392  0.00  0.00    +0.031 C 
BRANCH  26  29
ATOM     27  N   UNL     1      36.960 -18.369 -21.345  0.00  0.00    -0.343 N 
ATOM     28  N   UNL     1      34.774 -17.782 -21.922  0.00  0.00    -0.285 NA
ATOM     29  C   UNL     1      35.586 -18.569 -21.238  0.00  0.00    +0.117 C 
ATOM     30  H   UNL     1      37.310 -17.653 -21.923  0.00  0.00    +0.144 HD
ATOM     31  H   UNL     1      37.582 -18.942 -20.842  0.00  0.00    +0.144 HD
ATOM     32  H   UNL     1      35.143 -17.072 -22.495  0.00  0.00    +0.188 HD
ENDBRANCH  26  29
ENDBRANCH  20  21
ENDBRANCH   2  20
TORSDOF 7
ENDMDL
MODEL 8
REMARK VINA RESULT:     -10.3      3.376      7.494
REMARK  Name = 25113615
REMARK  7 active torsions:
REMARK  status: ('A' for Active; 'I' for Inactive)
REMARK    1  A    between atoms: N_2  and  C_20
REMARK    2  A    between atoms: C_3  and  C_7
REMARK    3  A    between atoms: C_11  and  C_12
REMARK    4  A    between atoms: C_12  and  C_13
REMARK    5  A    between atoms: C_13  and  C_14
REMARK    6  A    between atoms: C_20  and  C_21
REMARK    7  A    between atoms: C_26  and  C_29
REMARK                            x       y       z     vdW  Elec       q    Type
REMARK                         _______ _______ _______ _____ _____    ______ ____
ROOT
ATOM      1  O   UNL     1      34.947 -21.820 -15.488  0.00  0.00    -0.273 OA
ATOM      2  N   UNL     1      34.837 -22.127 -17.793  0.00  0.00    -0.299 N 
ATOM      3  C   UNL     1      34.464 -22.360 -16.480  0.00  0.00    +0.241 C 
ATOM      4  H   UNL     1      34.375 -22.623 -18.507  0.00  0.00    +0.150 HD
ENDROOT
BRANCH   3   7
ATOM      5  O   UNL     1      32.947 -24.135 -12.806  0.00  0.00    -0.275 OA
ATOM      6  N   UNL     1      32.891 -23.378 -14.988  0.00  0.00    -0.273 N 
ATOM      7  C   UNL     1      33.351 -23.357 -16.375  0.00  0.00    +0.152 C 
ATOM      8  C   UNL     1      32.134 -22.895 -17.173  0.00  0.00    +0.031 C 
ATOM      9  C   UNL     1      31.378 -22.010 -16.185  0.00  0.00    +0.024 C 
ATOM     10  C   UNL     1      31.605 -22.706 -14.853  0.00  0.00    +0.094 C 
ATOM     11  C   UNL     1      33.464 -24.052 -13.923  0.00  0.00    +0.226 C 
BRANCH  11  12
ATOM     12  C   UNL     1      34.795 -24.708 -14.191  0.00  0.00    +0.090 C 
BRANCH  12  13
ATOM     13  C   UNL     1      35.838 -24.230 -13.192  0.00  0.00    +0.036 C 
BRANCH  13  14
ATOM     14  C   UNL     1      37.256 -24.424 -13.671  0.00  0.00    -0.022 C 
ATOM     15  C   UNL     1      38.086 -25.348 -13.037  0.00  0.00    -0.004 C 
ATOM     16  C   UNL     1      37.737 -23.679 -14.748  0.00  0.00    -0.004 C 
ATOM     17  C   UNL     1      39.397 -25.529 -13.479  0.00  0.00    -0.000 C 
ATOM     18  C   UNL     1      39.047 -23.859 -15.190  0.00  0.00    -0.000 C 
ATOM     19  C   UNL     1      39.878 -24.784 -14.556  0.00  0.00    -0.000 C 
ENDBRANCH  13  14
ENDBRANCH  12  13
ENDBRANCH  11  12
ENDBRANCH   3   7
BRANCH   2  20
ATOM     20  C   UNL     1      35.873 -21.190 -18.166  0.00  0.00    +0.116 C 
BRANCH  20  21
ATOM     21  C   UNL     1      35.483 -20.369 -19.361  0.00  0.00    -0.003 C 
ATOM     22  C   UNL     1      34.205 -20.497 -19.907  0.00  0.00    -0.003 C 
ATOM     23  C   UNL     1      36.398 -19.481 -19.928  0.00  0.00    -0.003 C 
ATOM     24  C   UNL     1      33.843 -19.736 -21.019  0.00  0.00    +0.002 C 
ATOM     25  C   UNL     1      36.035 -18.721 -21.039  0.00  0.00    +0.002 C 
ATOM     26  C   UNL     1      34.757 -18.848 -21.585  0.00  0.00    +0.031 C 
BRANCH  26  29
ATOM     27  N   UNL     1      34.872 -16.766 -22.931  0.00  0.00    -0.343 N 
ATOM     28  N   UNL     1      33.547 -18.554 -23.640  0.00  0.00    -0.285 NA
ATOM     29  C   UNL     1      34.379 -18.055 -22.743  0.00  0.00    +0.117 C 
ATOM     30  H   UNL     1      34.602 -16.246 -23.722  0.00  0.00    +0.144 HD
ATOM     31  H   UNL     1      35.490 -16.374 -22.273  0.00  0.00    +0.144 HD
ATOM     32  H   UNL     1      33.289 -18.019 -24.424  0.00  0.00    +0.188 HD
ENDBRANCH  26  29
ENDBRANCH  20  21
ENDBRANCH   2  20
TORSDOF 7
ENDMDL
MODEL 9
REMARK VINA RESULT:     -10.3     12.010     15.644
REMARK  Name = 25113615
REMARK  7 active torsions:
REMARK  status: ('A' for Active; 'I' for Inactive)
REMARK    1  A    between atoms: N_2  and  C_20
REMARK    2  A    between atoms: C_3  and  C_7
REMARK    3  A    between atoms: C_11  and  C_12
REMARK    4  A    between atoms: C_12  and  C_13
REMARK    5  A    between atoms: C_13  and  C_14
REMARK    6  A    between atoms: C_20  and  C_21
REMARK    7  A    between atoms: C_26  and  C_29
REMARK                            x       y       z     vdW  Elec       q    Type
REMARK                         _______ _______ _______ _____ _____    ______ ____
ROOT
ATOM      1  O   UNL     1      33.436 -11.270 -23.719  0.00  0.00    -0.273 OA
ATOM      2  N   UNL     1      32.319  -9.469 -22.755  0.00  0.00    -0.299 N 
ATOM      3  C   UNL     1      32.536 -10.810 -23.020  0.00  0.00    +0.241 C 
ATOM      4  H   UNL     1      31.560  -9.222 -22.178  0.00  0.00    +0.150 HD
ENDROOT
BRANCH   3   7
ATOM      5  O   UNL     1      33.460 -14.316 -20.609  0.00  0.00    -0.275 OA
ATOM      6  N   UNL     1      32.256 -12.476 -21.322  0.00  0.00    -0.273 N 
ATOM      7  C   UNL     1      31.542 -11.694 -22.328  0.00  0.00    +0.152 C 
ATOM      8  C   UNL     1      30.546 -10.861 -21.527  0.00  0.00    +0.031 C 
ATOM      9  C   UNL     1      31.245 -10.668 -20.183  0.00  0.00    +0.024 C 
ATOM     10  C   UNL     1      31.974 -11.986 -19.980  0.00  0.00    +0.094 C 
ATOM     11  C   UNL     1      32.995 -13.630 -21.524  0.00  0.00    +0.226 C 
BRANCH  11  12
ATOM     12  C   UNL     1      33.216 -14.035 -22.959  0.00  0.00    +0.090 C 
BRANCH  12  13
ATOM     13  C   UNL     1      34.530 -14.789 -23.107  0.00  0.00    +0.036 C 
BRANCH  13  14
ATOM     14  C   UNL     1      34.351 -16.285 -23.202  0.00  0.00    -0.022 C 
ATOM     15  C   UNL     1      34.897 -17.116 -22.224  0.00  0.00    -0.004 C 
ATOM     16  C   UNL     1      33.641 -16.836 -24.268  0.00  0.00    -0.004 C 
ATOM     17  C   UNL     1      34.733 -18.499 -22.311  0.00  0.00    -0.000 C 
ATOM     18  C   UNL     1      33.477 -18.218 -24.356  0.00  0.00    -0.000 C 
ATOM     19  C   UNL     1      34.023 -19.050 -23.377  0.00  0.00    -0.000 C 
ENDBRANCH  13  14
ENDBRANCH  12  13
ENDBRANCH  11  12
ENDBRANCH   3   7
BRANCH   2  20
ATOM     20  C   UNL     1      33.153  -8.414 -23.284  0.00  0.00    +0.116 C 
BRANCH  20  21
ATOM     21  C   UNL     1      32.483  -7.073 -23.198  0.00  0.00    -0.003 C 
ATOM     22  C   UNL     1      31.104  -6.995 -23.000  0.00  0.00    -0.003 C 
ATOM     23  C   UNL     1      33.238  -5.905 -23.319  0.00  0.00    -0.003 C 
ATOM     24  C   UNL     1      30.481  -5.749 -22.922  0.00  0.00    +0.002 C 
ATOM     25  C   UNL     1      32.614  -4.660 -23.241  0.00  0.00    +0.002 C 
ATOM     26  C   UNL     1      31.235  -4.582 -23.043  0.00  0.00    +0.031 C 
BRANCH  26  29
ATOM     27  N   UNL     1      30.104  -2.641 -24.099  0.00  0.00    -0.343 N 
ATOM     28  N   UNL     1      30.445  -2.691 -21.788  0.00  0.00    -0.285 NA
ATOM     29  C   UNL     1      30.585  -3.284 -22.960  0.00  0.00    +0.117 C 
ATOM     30  H   UNL     1      29.668  -1.762 -24.020  0.00  0.00    +0.144 HD
ATOM     31  H   UNL     1      30.201  -3.064 -24.982  0.00  0.00    +0.144 HD
ATOM     32  H   UNL     1      30.005  -1.813 -21.730  0.00  0.00    +0.188 HD
ENDBRANCH  26  29
ENDBRANCH  20  21
ENDBRANCH   2  20
TORSDOF 7
ENDMDL
