MODEL 1
REMARK VINA RESULT:     -12.1      0.000      0.000
REMARK  Name = 5327686
REMARK  3 active torsions:
REMARK  status: ('A' for Active; 'I' for Inactive)
REMARK    1  A    between atoms: C_4  and  C_10
REMARK    2  A    between atoms: C_5  and  C_23
REMARK    3  A    between atoms: C_17  and  N_21
REMARK                            x       y       z     vdW  Elec       q    Type
REMARK                         _______ _______ _______ _____ _____    ______ ____
ROOT
ATOM      1  O   UNL     1      31.180 -22.455 -17.266  0.00  0.00    -0.270 OA
ATOM      2  O   UNL     1      31.100 -24.736 -13.298  0.00  0.00    -0.270 OA
ATOM      3  N   UNL     1      30.752 -23.651 -15.321  0.00  0.00    -0.248 N 
ATOM      4  C   UNL     1      32.914 -23.024 -15.693  0.00  0.00    +0.059 C 
ATOM      5  C   UNL     1      32.888 -23.685 -14.521  0.00  0.00    +0.059 C 
ATOM      6  C   UNL     1      31.528 -22.989 -16.225  0.00  0.00    +0.252 C 
ATOM      7  C   UNL     1      31.487 -24.103 -14.265  0.00  0.00    +0.252 C 
ATOM      8  H   UNL     1      29.781 -23.784 -15.417  0.00  0.00    +0.158 HD
ENDROOT
BRANCH   4  10
ATOM      9  N   UNL     1      36.082 -21.713 -16.797  0.00  0.00    -0.284 N 
ATOM     10  C   UNL     1      34.016 -22.413 -16.368  0.00  0.00    +0.021 C 
ATOM     11  C   UNL     1      34.011 -21.745 -17.627  0.00  0.00    +0.015 C 
ATOM     12  C   UNL     1      35.319 -21.317 -17.872  0.00  0.00    +0.053 C 
ATOM     13  C   UNL     1      35.305 -22.374 -15.884  0.00  0.00    +0.066 C 
ATOM     14  C   UNL     1      33.016 -21.466 -18.585  0.00  0.00    +0.003 C 
ATOM     15  C   UNL     1      35.681 -20.622 -19.030  0.00  0.00    +0.039 C 
ATOM     16  C   UNL     1      37.500 -21.472 -16.639  0.00  0.00    +0.117 C 
ATOM     17  C   UNL     1      34.677 -20.355 -19.966  0.00  0.00    +0.144 C 
ATOM     18  C   UNL     1      33.365 -20.770 -19.749  0.00  0.00    +0.024 C 
BRANCH  17  21
ATOM     19  O   UNL     1      34.173 -19.632 -22.096  0.00  0.00    -0.126 OA
ATOM     20  O   UNL     1      36.107 -19.062 -21.231  0.00  0.00    -0.126 OA
ATOM     21  N   UNL     1      35.001 -19.649 -21.155  0.00  0.00    +0.058 N 
ENDBRANCH  17  21
ENDBRANCH   4  10
BRANCH   5  23
ATOM     22  N   UNL     1      35.225 -24.012 -11.803  0.00  0.00    -0.284 N 
ATOM     23  C   UNL     1      33.962 -23.998 -13.628  0.00  0.00    +0.021 C 
ATOM     24  C   UNL     1      35.073 -24.853 -13.864  0.00  0.00    +0.015 C 
ATOM     25  C   UNL     1      35.850 -24.845 -12.703  0.00  0.00    +0.052 C 
ATOM     26  C   UNL     1      34.083 -23.494 -12.353  0.00  0.00    +0.066 C 
ATOM     27  C   UNL     1      35.493 -25.638 -14.956  0.00  0.00    +0.001 C 
ATOM     28  C   UNL     1      37.032 -25.585 -12.580  0.00  0.00    +0.015 C 
ATOM     29  C   UNL     1      35.696 -23.711 -10.469  0.00  0.00    +0.117 C 
ATOM     30  C   UNL     1      36.674 -26.383 -14.847  0.00  0.00    +0.000 C 
ATOM     31  C   UNL     1      37.429 -26.355 -13.677  0.00  0.00    +0.001 C 
ENDBRANCH   5  23
TORSDOF 3
ENDMDL
MODEL 2
REMARK VINA RESULT:     -11.8      2.701      6.345
REMARK  Name = 5327686
REMARK  3 active torsions:
REMARK  status: ('A' for Active; 'I' for Inactive)
REMARK    1  A    between atoms: C_4  and  C_10
REMARK    2  A    between atoms: C_5  and  C_23
REMARK    3  A    between atoms: C_17  and  N_21
REMARK                            x       y       z     vdW  Elec       q    Type
REMARK                         _______ _______ _______ _____ _____    ______ ____
ROOT
ATOM      1  O   UNL     1      31.555 -24.737 -12.692  0.00  0.00    -0.270 OA
ATOM      2  O   UNL     1      31.214 -22.578 -16.714  0.00  0.00    -0.270 OA
ATOM      3  N   UNL     1      30.998 -23.734 -14.712  0.00  0.00    -0.248 N 
ATOM      4  C   UNL     1      33.184 -23.614 -14.067  0.00  0.00    +0.059 C 
ATOM      5  C   UNL     1      33.085 -22.989 -15.255  0.00  0.00    +0.059 C 
ATOM      6  C   UNL     1      31.832 -24.109 -13.701  0.00  0.00    +0.252 C 
ATOM      7  C   UNL     1      31.666 -23.056 -15.687  0.00  0.00    +0.252 C 
ATOM      8  H   UNL     1      30.033 -23.930 -14.736  0.00  0.00    +0.158 HD
ENDROOT
BRANCH   4  10
ATOM      9  N   UNL     1      35.620 -23.966 -11.438  0.00  0.00    -0.284 N 
ATOM     10  C   UNL     1      34.334 -23.832 -13.246  0.00  0.00    +0.021 C 
ATOM     11  C   UNL     1      35.634 -24.248 -13.651  0.00  0.00    +0.015 C 
ATOM     12  C   UNL     1      36.421 -24.325 -12.499  0.00  0.00    +0.053 C 
ATOM     13  C   UNL     1      34.359 -23.667 -11.878  0.00  0.00    +0.066 C 
ATOM     14  C   UNL     1      36.219 -24.569 -14.893  0.00  0.00    +0.003 C 
ATOM     15  C   UNL     1      37.766 -24.708 -12.527  0.00  0.00    +0.039 C 
ATOM     16  C   UNL     1      36.036 -23.909 -10.053  0.00  0.00    +0.117 C 
ATOM     17  C   UNL     1      38.324 -25.020 -13.770  0.00  0.00    +0.144 C 
ATOM     18  C   UNL     1      37.564 -24.954 -14.936  0.00  0.00    +0.024 C 
BRANCH  17  21
ATOM     19  O   UNL     1      40.576 -24.577 -13.551  0.00  0.00    -0.126 OA
ATOM     20  O   UNL     1      39.965 -26.582 -14.201  0.00  0.00    -0.126 OA
ATOM     21  N   UNL     1      39.688 -25.412 -13.844  0.00  0.00    +0.058 N 
ENDBRANCH  17  21
ENDBRANCH   4  10
BRANCH   5  23
ATOM     22  N   UNL     1      35.963 -21.240 -16.523  0.00  0.00    -0.284 N 
ATOM     23  C   UNL     1      34.096 -22.332 -16.024  0.00  0.00    +0.021 C 
ATOM     24  C   UNL     1      34.130 -22.131 -17.431  0.00  0.00    +0.015 C 
ATOM     25  C   UNL     1      35.312 -21.443 -17.718  0.00  0.00    +0.052 C 
ATOM     26  C   UNL     1      35.236 -21.773 -15.493  0.00  0.00    +0.066 C 
ATOM     27  C   UNL     1      33.267 -22.469 -18.493  0.00  0.00    +0.001 C 
ATOM     28  C   UNL     1      35.674 -21.075 -19.019  0.00  0.00    +0.015 C 
ATOM     29  C   UNL     1      37.229 -20.559 -16.361  0.00  0.00    +0.117 C 
ATOM     30  C   UNL     1      33.617 -22.107 -19.799  0.00  0.00    +0.000 C 
ATOM     31  C   UNL     1      34.803 -21.421 -20.056  0.00  0.00    +0.001 C 
ENDBRANCH   5  23
TORSDOF 3
ENDMDL
MODEL 3
REMARK VINA RESULT:     -10.9      2.329      5.207
REMARK  Name = 5327686
REMARK  3 active torsions:
REMARK  status: ('A' for Active; 'I' for Inactive)
REMARK    1  A    between atoms: C_4  and  C_10
REMARK    2  A    between atoms: C_5  and  C_23
REMARK    3  A    between atoms: C_17  and  N_21
REMARK                            x       y       z     vdW  Elec       q    Type
REMARK                         _______ _______ _______ _____ _____    ______ ____
ROOT
ATOM      1  O   UNL     1      33.195 -21.877 -18.145  0.00  0.00    -0.270 OA
ATOM      2  O   UNL     1      37.480 -21.732 -16.540  0.00  0.00    -0.270 OA
ATOM      3  N   UNL     1      35.458 -21.635 -17.677  0.00  0.00    -0.248 N 
ATOM      4  C   UNL     1      34.162 -22.578 -16.053  0.00  0.00    +0.059 C 
ATOM      5  C   UNL     1      35.423 -22.546 -15.586  0.00  0.00    +0.059 C 
ATOM      6  C   UNL     1      34.168 -21.992 -17.417  0.00  0.00    +0.252 C 
ATOM      7  C   UNL     1      36.280 -21.931 -16.631  0.00  0.00    +0.252 C 
ATOM      8  H   UNL     1      35.758 -21.217 -18.517  0.00  0.00    +0.158 HD
ENDROOT
BRANCH   4  10
ATOM      9  N   UNL     1      31.655 -24.179 -14.023  0.00  0.00    -0.284 N 
ATOM     10  C   UNL     1      32.976 -23.084 -15.436  0.00  0.00    +0.021 C 
ATOM     11  C   UNL     1      31.623 -22.862 -15.823  0.00  0.00    +0.015 C 
ATOM     12  C   UNL     1      30.815 -23.559 -14.920  0.00  0.00    +0.053 C 
ATOM     13  C   UNL     1      32.960 -23.899 -14.325  0.00  0.00    +0.066 C 
ATOM     14  C   UNL     1      31.007 -22.131 -16.858  0.00  0.00    +0.003 C 
ATOM     15  C   UNL     1      29.419 -23.560 -15.001  0.00  0.00    +0.039 C 
ATOM     16  C   UNL     1      31.234 -25.009 -12.914  0.00  0.00    +0.117 C 
ATOM     17  C   UNL     1      28.830 -22.829 -16.037  0.00  0.00    +0.144 C 
ATOM     18  C   UNL     1      29.610 -22.124 -16.951  0.00  0.00    +0.024 C 
BRANCH  17  21
ATOM     19  O   UNL     1      26.735 -22.299 -15.233  0.00  0.00    -0.126 OA
ATOM     20  O   UNL     1      26.885 -23.291 -17.185  0.00  0.00    -0.126 OA
ATOM     21  N   UNL     1      27.415 -22.805 -16.157  0.00  0.00    +0.058 N 
ENDBRANCH  17  21
ENDBRANCH   4  10
BRANCH   5  23
ATOM     22  N   UNL     1      36.212 -23.148 -12.127  0.00  0.00    -0.284 N 
ATOM     23  C   UNL     1      35.938 -22.977 -14.322  0.00  0.00    +0.021 C 
ATOM     24  C   UNL     1      36.965 -23.928 -14.076  0.00  0.00    +0.015 C 
ATOM     25  C   UNL     1      37.118 -24.018 -12.690  0.00  0.00    +0.052 C 
ATOM     26  C   UNL     1      35.494 -22.514 -13.104  0.00  0.00    +0.066 C 
ATOM     27  C   UNL     1      37.783 -24.727 -14.902  0.00  0.00    +0.001 C 
ATOM     28  C   UNL     1      38.052 -24.868 -12.087  0.00  0.00    +0.015 C 
ATOM     29  C   UNL     1      36.035 -22.921 -10.709  0.00  0.00    +0.117 C 
ATOM     30  C   UNL     1      38.721 -25.581 -14.311  0.00  0.00    +0.000 C 
ATOM     31  C   UNL     1      38.851 -25.650 -12.925  0.00  0.00    +0.001 C 
ENDBRANCH   5  23
TORSDOF 3
ENDMDL
MODEL 4
REMARK VINA RESULT:     -10.6     10.929     15.700
REMARK  Name = 5327686
REMARK  3 active torsions:
REMARK  status: ('A' for Active; 'I' for Inactive)
REMARK    1  A    between atoms: C_4  and  C_10
REMARK    2  A    between atoms: C_5  and  C_23
REMARK    3  A    between atoms: C_17  and  N_21
REMARK                            x       y       z     vdW  Elec       q    Type
REMARK                         _______ _______ _______ _____ _____    ______ ____
ROOT
ATOM      1  O   UNL     1      31.192 -11.934 -19.780  0.00  0.00    -0.270 OA
ATOM      2  O   UNL     1      31.352  -7.369 -20.082  0.00  0.00    -0.270 OA
ATOM      3  N   UNL     1      31.116  -9.621 -19.570  0.00  0.00    -0.248 N 
ATOM      4  C   UNL     1      31.970 -10.455 -21.515  0.00  0.00    +0.059 C 
ATOM      5  C   UNL     1      32.007  -9.113 -21.608  0.00  0.00    +0.059 C 
ATOM      6  C   UNL     1      31.388 -10.803 -20.194  0.00  0.00    +0.252 C 
ATOM      7  C   UNL     1      31.456  -8.555 -20.348  0.00  0.00    +0.252 C 
ATOM      8  H   UNL     1      30.722  -9.548 -18.671  0.00  0.00    +0.158 HD
ENDROOT
BRANCH   4  10
ATOM      9  N   UNL     1      32.718 -12.456 -24.415  0.00  0.00    -0.284 N 
ATOM     10  C   UNL     1      32.371 -11.445 -22.466  0.00  0.00    +0.021 C 
ATOM     11  C   UNL     1      32.978 -12.709 -22.213  0.00  0.00    +0.015 C 
ATOM     12  C   UNL     1      33.186 -13.321 -23.452  0.00  0.00    +0.053 C 
ATOM     13  C   UNL     1      32.225 -11.321 -23.830  0.00  0.00    +0.066 C 
ATOM     14  C   UNL     1      33.373 -13.390 -21.045  0.00  0.00    +0.003 C 
ATOM     15  C   UNL     1      33.771 -14.586 -23.580  0.00  0.00    +0.039 C 
ATOM     16  C   UNL     1      32.739 -12.696 -25.842  0.00  0.00    +0.117 C 
ATOM     17  C   UNL     1      34.153 -15.243 -22.408  0.00  0.00    +0.144 C 
ATOM     18  C   UNL     1      33.960 -14.657 -21.159  0.00  0.00    +0.024 C 
BRANCH  17  21
ATOM     19  O   UNL     1      35.373 -16.977 -21.500  0.00  0.00    -0.126 OA
ATOM     20  O   UNL     1      34.634 -17.184 -23.556  0.00  0.00    -0.126 OA
ATOM     21  N   UNL     1      34.749 -16.531 -22.492  0.00  0.00    +0.058 N 
ENDBRANCH  17  21
ENDBRANCH   4  10
BRANCH   5  23
ATOM     22  N   UNL     1      33.851  -7.438 -24.205  0.00  0.00    -0.284 N 
ATOM     23  C   UNL     1      32.489  -8.287 -22.672  0.00  0.00    +0.021 C 
ATOM     24  C   UNL     1      31.797  -7.249 -23.354  0.00  0.00    +0.015 C 
ATOM     25  C   UNL     1      32.674  -6.733 -24.312  0.00  0.00    +0.052 C 
ATOM     26  C   UNL     1      33.750  -8.380 -23.217  0.00  0.00    +0.066 C 
ATOM     27  C   UNL     1      30.504  -6.698 -23.251  0.00  0.00    +0.001 C 
ATOM     28  C   UNL     1      32.321  -5.687 -25.173  0.00  0.00    +0.015 C 
ATOM     29  C   UNL     1      35.035  -7.224 -25.009  0.00  0.00    +0.117 C 
ATOM     30  C   UNL     1      30.138  -5.651 -24.106  0.00  0.00    +0.000 C 
ATOM     31  C   UNL     1      31.034  -5.156 -25.051  0.00  0.00    +0.001 C 
ENDBRANCH   5  23
TORSDOF 3
ENDMDL
MODEL 5
REMARK VINA RESULT:     -10.3     10.864     15.547
REMARK  Name = 5327686
REMARK  3 active torsions:
REMARK  status: ('A' for Active; 'I' for Inactive)
REMARK    1  A    between atoms: C_4  and  C_10
REMARK    2  A    between atoms: C_5  and  C_23
REMARK    3  A    between atoms: C_17  and  N_21
REMARK                            x       y       z     vdW  Elec       q    Type
REMARK                         _______ _______ _______ _____ _____    ______ ____
ROOT
ATOM      1  O   UNL     1      31.782 -11.945 -19.397  0.00  0.00    -0.270 OA
ATOM      2  O   UNL     1      30.904  -7.473 -19.836  0.00  0.00    -0.270 OA
ATOM      3  N   UNL     1      31.260  -9.687 -19.232  0.00  0.00    -0.248 N 
ATOM      4  C   UNL     1      31.860 -10.460 -21.293  0.00  0.00    +0.059 C 
ATOM      5  C   UNL     1      31.591  -9.148 -21.424  0.00  0.00    +0.059 C 
ATOM      6  C   UNL     1      31.645 -10.828 -19.870  0.00  0.00    +0.252 C 
ATOM      7  C   UNL     1      31.201  -8.629 -20.089  0.00  0.00    +0.252 C 
ATOM      8  H   UNL     1      31.050  -9.634 -18.271  0.00  0.00    +0.158 HD
ENDROOT
BRANCH   4  10
ATOM      9  N   UNL     1      32.596 -12.347 -24.271  0.00  0.00    -0.284 N 
ATOM     10  C   UNL     1      32.261 -11.410 -22.283  0.00  0.00    +0.021 C 
ATOM     11  C   UNL     1      32.886 -12.675 -22.083  0.00  0.00    +0.015 C 
ATOM     12  C   UNL     1      33.086 -13.240 -23.345  0.00  0.00    +0.053 C 
ATOM     13  C   UNL     1      32.096 -11.239 -23.641  0.00  0.00    +0.066 C 
ATOM     14  C   UNL     1      33.303 -13.393 -20.945  0.00  0.00    +0.003 C 
ATOM     15  C   UNL     1      33.684 -14.492 -23.525  0.00  0.00    +0.039 C 
ATOM     16  C   UNL     1      32.602 -12.536 -25.706  0.00  0.00    +0.117 C 
ATOM     17  C   UNL     1      34.088 -15.187 -22.382  0.00  0.00    +0.144 C 
ATOM     18  C   UNL     1      33.903 -14.647 -21.111  0.00  0.00    +0.024 C 
BRANCH  17  21
ATOM     19  O   UNL     1      35.309 -16.952 -21.540  0.00  0.00    -0.126 OA
ATOM     20  O   UNL     1      34.608 -17.063 -23.617  0.00  0.00    -0.126 OA
ATOM     21  N   UNL     1      34.698 -16.463 -22.520  0.00  0.00    +0.058 N 
ENDBRANCH  17  21
ENDBRANCH   4  10
BRANCH   5  23
ATOM     22  N   UNL     1      31.123  -7.394 -24.531  0.00  0.00    -0.284 N 
ATOM     23  C   UNL     1      31.661  -8.316 -22.585  0.00  0.00    +0.021 C 
ATOM     24  C   UNL     1      32.665  -7.366 -22.919  0.00  0.00    +0.015 C 
ATOM     25  C   UNL     1      32.303  -6.801 -24.145  0.00  0.00    +0.052 C 
ATOM     26  C   UNL     1      30.727  -8.312 -23.596  0.00  0.00    +0.066 C 
ATOM     27  C   UNL     1      33.850  -6.929 -22.295  0.00  0.00    +0.001 C 
ATOM     28  C   UNL     1      33.071  -5.818 -24.780  0.00  0.00    +0.015 C 
ATOM     29  C   UNL     1      30.396  -7.106 -25.748  0.00  0.00    +0.117 C 
ATOM     30  C   UNL     1      34.628  -5.946 -22.919  0.00  0.00    +0.000 C 
ATOM     31  C   UNL     1      34.243  -5.401 -24.142  0.00  0.00    +0.001 C 
ENDBRANCH   5  23
TORSDOF 3
ENDMDL
MODEL 6
REMARK VINA RESULT:      -9.8     12.046     15.743
REMARK  Name = 5327686
REMARK  3 active torsions:
REMARK  status: ('A' for Active; 'I' for Inactive)
REMARK    1  A    between atoms: C_4  and  C_10
REMARK    2  A    between atoms: C_5  and  C_23
REMARK    3  A    between atoms: C_17  and  N_21
REMARK                            x       y       z     vdW  Elec       q    Type
REMARK                         _______ _______ _______ _____ _____    ______ ____
ROOT
ATOM      1  O   UNL     1      31.327  -7.783 -19.857  0.00  0.00    -0.270 OA
ATOM      2  O   UNL     1      31.179 -12.358 -19.961  0.00  0.00    -0.270 OA
ATOM      3  N   UNL     1      31.091 -10.074 -19.550  0.00  0.00    -0.248 N 
ATOM      4  C   UNL     1      31.995  -9.385 -21.528  0.00  0.00    +0.059 C 
ATOM      5  C   UNL     1      31.962 -10.729 -21.554  0.00  0.00    +0.059 C 
ATOM      6  C   UNL     1      31.435  -8.941 -20.226  0.00  0.00    +0.252 C 
ATOM      7  C   UNL     1      31.373 -11.194 -20.273  0.00  0.00    +0.252 C 
ATOM      8  H   UNL     1      30.690 -10.082 -18.650  0.00  0.00    +0.158 HD
ENDROOT
BRANCH   4  10
ATOM      9  N   UNL     1      33.809  -7.542 -24.036  0.00  0.00    -0.284 N 
ATOM     10  C   UNL     1      32.482  -8.467 -22.511  0.00  0.00    +0.021 C 
ATOM     11  C   UNL     1      31.859  -7.276 -22.984  0.00  0.00    +0.015 C 
ATOM     12  C   UNL     1      32.711  -6.717 -23.940  0.00  0.00    +0.053 C 
ATOM     13  C   UNL     1      33.680  -8.601 -23.178  0.00  0.00    +0.066 C 
ATOM     14  C   UNL     1      30.647  -6.621 -22.690  0.00  0.00    +0.003 C 
ATOM     15  C   UNL     1      32.410  -5.531 -24.618  0.00  0.00    +0.039 C 
ATOM     16  C   UNL     1      34.942  -7.335 -24.913  0.00  0.00    +0.117 C 
ATOM     17  C   UNL     1      31.203  -4.898 -24.309  0.00  0.00    +0.144 C 
ATOM     18  C   UNL     1      30.333  -5.433 -23.361  0.00  0.00    +0.024 C 
BRANCH  17  21
ATOM     19  O   UNL     1      29.977  -2.952 -24.472  0.00  0.00    -0.126 OA
ATOM     20  O   UNL     1      31.446  -3.396 -26.041  0.00  0.00    -0.126 OA
ATOM     21  N   UNL     1      30.858  -3.690 -24.973  0.00  0.00    +0.058 N 
ENDBRANCH  17  21
ENDBRANCH   4  10
BRANCH   5  23
ATOM     22  N   UNL     1      32.690 -12.485 -24.610  0.00  0.00    -0.284 N 
ATOM     23  C   UNL     1      32.373 -11.630 -22.586  0.00  0.00    +0.021 C 
ATOM     24  C   UNL     1      33.051 -12.872 -22.443  0.00  0.00    +0.015 C 
ATOM     25  C   UNL     1      33.238 -13.388 -23.728  0.00  0.00    +0.052 C 
ATOM     26  C   UNL     1      32.164 -11.420 -23.930  0.00  0.00    +0.066 C 
ATOM     27  C   UNL     1      33.527 -13.610 -21.340  0.00  0.00    +0.001 C 
ATOM     28  C   UNL     1      33.878 -14.609 -23.965  0.00  0.00    +0.015 C 
ATOM     29  C   UNL     1      32.659 -12.628 -26.049  0.00  0.00    +0.117 C 
ATOM     30  C   UNL     1      34.170 -14.833 -21.563  0.00  0.00    +0.000 C 
ATOM     31  C   UNL     1      34.342 -15.323 -22.857  0.00  0.00    +0.001 C 
ENDBRANCH   5  23
TORSDOF 3
ENDMDL
MODEL 7
REMARK VINA RESULT:      -9.3      3.194      5.158
REMARK  Name = 5327686
REMARK  3 active torsions:
REMARK  status: ('A' for Active; 'I' for Inactive)
REMARK    1  A    between atoms: C_4  and  C_10
REMARK    2  A    between atoms: C_5  and  C_23
REMARK    3  A    between atoms: C_17  and  N_21
REMARK                            x       y       z     vdW  Elec       q    Type
REMARK                         _______ _______ _______ _____ _____    ______ ____
ROOT
ATOM      1  O   UNL     1      32.410 -22.307 -11.626  0.00  0.00    -0.270 OA
ATOM      2  O   UNL     1      36.093 -24.856 -10.677  0.00  0.00    -0.270 OA
ATOM      3  N   UNL     1      34.200 -23.513 -10.767  0.00  0.00    -0.248 N 
ATOM      4  C   UNL     1      33.937 -23.529 -13.033  0.00  0.00    +0.059 C 
ATOM      5  C   UNL     1      35.026 -24.269 -12.755  0.00  0.00    +0.059 C 
ATOM      6  C   UNL     1      33.389 -23.026 -11.748  0.00  0.00    +0.252 C 
ATOM      7  C   UNL     1      35.209 -24.271 -11.281  0.00  0.00    +0.252 C 
ATOM      8  H   UNL     1      34.073 -23.339  -9.806  0.00  0.00    +0.158 HD
ENDROOT
BRANCH   4  10
ATOM      9  N   UNL     1      33.179 -22.646 -16.442  0.00  0.00    -0.284 N 
ATOM     10  C   UNL     1      33.353 -23.210 -14.299  0.00  0.00    +0.021 C 
ATOM     11  C   UNL     1      31.970 -23.161 -14.639  0.00  0.00    +0.015 C 
ATOM     12  C   UNL     1      31.889 -22.807 -15.988  0.00  0.00    +0.053 C 
ATOM     13  C   UNL     1      34.069 -22.887 -15.430  0.00  0.00    +0.066 C 
ATOM     14  C   UNL     1      30.776 -23.388 -13.926  0.00  0.00    +0.003 C 
ATOM     15  C   UNL     1      30.671 -22.666 -16.660  0.00  0.00    +0.039 C 
ATOM     16  C   UNL     1      33.556 -22.277 -17.790  0.00  0.00    +0.117 C 
ATOM     17  C   UNL     1      29.500 -22.895 -15.932  0.00  0.00    +0.144 C 
ATOM     18  C   UNL     1      29.549 -23.251 -14.586  0.00  0.00    +0.024 C 
BRANCH  17  21
ATOM     19  O   UNL     1      27.797 -21.612 -16.809  0.00  0.00    -0.126 OA
ATOM     20  O   UNL     1      27.607 -23.797 -16.891  0.00  0.00    -0.126 OA
ATOM     21  N   UNL     1      28.240 -22.762 -16.576  0.00  0.00    +0.058 N 
ENDBRANCH  17  21
ENDBRANCH   4  10
BRANCH   5  23
ATOM     22  N   UNL     1      36.575 -26.369 -15.233  0.00  0.00    -0.284 N 
ATOM     23  C   UNL     1      35.895 -24.979 -13.642  0.00  0.00    +0.021 C 
ATOM     24  C   UNL     1      37.310 -24.884 -13.740  0.00  0.00    +0.015 C 
ATOM     25  C   UNL     1      37.712 -25.766 -14.746  0.00  0.00    +0.052 C 
ATOM     26  C   UNL     1      35.471 -25.901 -14.571  0.00  0.00    +0.066 C 
ATOM     27  C   UNL     1      38.293 -24.128 -13.069  0.00  0.00    +0.001 C 
ATOM     28  C   UNL     1      39.052 -25.931 -15.115  0.00  0.00    +0.015 C 
ATOM     29  C   UNL     1      36.534 -27.360 -16.286  0.00  0.00    +0.117 C 
ATOM     30  C   UNL     1      39.637 -24.283 -13.427  0.00  0.00    +0.000 C 
ATOM     31  C   UNL     1      40.008 -25.171 -14.435  0.00  0.00    +0.001 C 
ENDBRANCH   5  23
TORSDOF 3
ENDMDL
MODEL 8
REMARK VINA RESULT:      -9.3      2.086      3.993
REMARK  Name = 5327686
REMARK  3 active torsions:
REMARK  status: ('A' for Active; 'I' for Inactive)
REMARK    1  A    between atoms: C_4  and  C_10
REMARK    2  A    between atoms: C_5  and  C_23
REMARK    3  A    between atoms: C_17  and  N_21
REMARK                            x       y       z     vdW  Elec       q    Type
REMARK                         _______ _______ _______ _____ _____    ______ ____
ROOT
ATOM      1  O   UNL     1      32.526 -22.334 -11.720  0.00  0.00    -0.270 OA
ATOM      2  O   UNL     1      36.132 -24.951 -10.668  0.00  0.00    -0.270 OA
ATOM      3  N   UNL     1      34.265 -23.578 -10.810  0.00  0.00    -0.248 N 
ATOM      4  C   UNL     1      34.084 -23.564 -13.085  0.00  0.00    +0.059 C 
ATOM      5  C   UNL     1      35.151 -24.324 -12.776  0.00  0.00    +0.059 C 
ATOM      6  C   UNL     1      33.497 -23.066 -11.815  0.00  0.00    +0.252 C 
ATOM      7  C   UNL     1      35.280 -24.345 -11.297  0.00  0.00    +0.252 C 
ATOM      8  H   UNL     1      34.105 -23.412  -9.853  0.00  0.00    +0.158 HD
ENDROOT
BRANCH   4  10
ATOM      9  N   UNL     1      32.095 -22.950 -16.024  0.00  0.00    -0.284 N 
ATOM     10  C   UNL     1      33.551 -23.221 -14.367  0.00  0.00    +0.021 C 
ATOM     11  C   UNL     1      34.240 -22.661 -15.482  0.00  0.00    +0.015 C 
ATOM     12  C   UNL     1      33.304 -22.500 -16.506  0.00  0.00    +0.053 C 
ATOM     13  C   UNL     1      32.234 -23.386 -14.734  0.00  0.00    +0.066 C 
ATOM     14  C   UNL     1      35.574 -22.273 -15.716  0.00  0.00    +0.003 C 
ATOM     15  C   UNL     1      33.637 -21.970 -17.757  0.00  0.00    +0.039 C 
ATOM     16  C   UNL     1      30.849 -22.964 -16.761  0.00  0.00    +0.117 C 
ATOM     17  C   UNL     1      34.967 -21.593 -17.967  0.00  0.00    +0.144 C 
ATOM     18  C   UNL     1      35.922 -21.741 -16.963  0.00  0.00    +0.024 C 
BRANCH  17  21
ATOM     19  O   UNL     1      36.110 -20.056 -19.249  0.00  0.00    -0.126 OA
ATOM     20  O   UNL     1      34.913 -21.585 -20.272  0.00  0.00    -0.126 OA
ATOM     21  N   UNL     1      35.349 -21.052 -19.224  0.00  0.00    +0.058 N 
ENDBRANCH  17  21
ENDBRANCH   4  10
BRANCH   5  23
ATOM     22  N   UNL     1      36.759 -26.439 -15.203  0.00  0.00    -0.284 N 
ATOM     23  C   UNL     1      36.041 -25.037 -13.639  0.00  0.00    +0.021 C 
ATOM     24  C   UNL     1      37.457 -24.934 -13.712  0.00  0.00    +0.015 C 
ATOM     25  C   UNL     1      37.882 -25.823 -14.702  0.00  0.00    +0.052 C 
ATOM     26  C   UNL     1      35.640 -25.971 -14.567  0.00  0.00    +0.066 C 
ATOM     27  C   UNL     1      38.422 -24.165 -13.030  0.00  0.00    +0.001 C 
ATOM     28  C   UNL     1      39.230 -25.984 -15.044  0.00  0.00    +0.015 C 
ATOM     29  C   UNL     1      36.744 -27.441 -16.247  0.00  0.00    +0.117 C 
ATOM     30  C   UNL     1      39.773 -24.315 -13.362  0.00  0.00    +0.000 C 
ATOM     31  C   UNL     1      40.169 -25.211 -14.354  0.00  0.00    +0.001 C 
ENDBRANCH   5  23
TORSDOF 3
ENDMDL
