MODEL 1
REMARK VINA RESULT:     -13.0      0.000      0.000
REMARK  Name = 44193830
REMARK  8 active torsions:
REMARK  status: ('A' for Active; 'I' for Inactive)
REMARK    1  A    between atoms: C_9  and  C_20
REMARK    2  A    between atoms: C_10  and  C_15
REMARK    3  A    between atoms: C_11  and  C_17
REMARK    4  A    between atoms: C_17  and  O_18
REMARK    5  A    between atoms: C_20  and  C_21
REMARK    6  A    between atoms: C_21  and  N_22
REMARK    7  A    between atoms: C_21  and  C_26
REMARK    8  A    between atoms: C_26  and  C_30
REMARK                            x       y       z     vdW  Elec       q    Type
REMARK                         _______ _______ _______ _____ _____    ______ ____
ROOT
ATOM      1  O   UNL     1      33.613 -20.000 -20.922  0.00  0.00    -0.275 OA
ATOM      2  N   UNL     1      34.431 -21.235 -19.127  0.00  0.00    -0.276 N 
ATOM      3  N   UNL     1      33.671 -22.334 -16.683  0.00  0.00    -0.272 N 
ATOM      4  N   UNL     1      34.674 -22.850 -14.785  0.00  0.00    -0.379 NA
ATOM      5  C   UNL     1      33.250 -22.111 -19.076  0.00  0.00    +0.115 C 
ATOM      6  C   UNL     1      32.644 -22.116 -17.678  0.00  0.00    +0.115 C 
ATOM      7  C   UNL     1      35.522 -21.548 -18.184  0.00  0.00    +0.121 C 
ATOM      8  C   UNL     1      34.998 -22.066 -16.893  0.00  0.00    +0.154 C 
ATOM      9  C   UNL     1      34.521 -20.267 -20.131  0.00  0.00    +0.224 C 
ATOM     10  C   UNL     1      33.520 -22.798 -15.414  0.00  0.00    +0.256 C 
ATOM     11  C   UNL     1      35.598 -22.397 -15.698  0.00  0.00    +0.205 C 
ENDROOT
BRANCH  10  15
ATOM     12  F   UNL     1      31.432 -22.092 -14.523  0.00  0.00    -0.163 F 
ATOM     13  F   UNL     1      31.429 -23.929 -15.687  0.00  0.00    -0.163 F 
ATOM     14  F   UNL     1      32.286 -23.913 -13.695  0.00  0.00    -0.163 F 
ATOM     15  C   UNL     1      32.209 -23.174 -14.848  0.00  0.00    +0.460 C 
ENDBRANCH  10  15
BRANCH  11  17
ATOM     16  O   UNL     1      37.852 -21.731 -16.098  0.00  0.00    -0.242 OA
ATOM     17  C   UNL     1      36.994 -22.305 -15.392  0.00  0.00    +0.369 C 
BRANCH  17  18
ATOM     18  O   UNL     1      37.315 -22.929 -14.207  0.00  0.00    -0.440 OA
ATOM     19  C   UNL     1      38.017 -24.174 -14.279  0.00  0.00    +0.256 C 
ENDBRANCH  17  18
ENDBRANCH  11  17
BRANCH   9  20
ATOM     20  C   UNL     1      35.825 -19.514 -20.221  0.00  0.00    +0.064 C 
BRANCH  20  21
ATOM     21  C   UNL     1      35.823 -18.516 -21.379  0.00  0.00    -0.052 C 
BRANCH  21  22
ATOM     22  N   UNL     1      37.222 -18.164 -21.651  0.00  0.00    +0.382 N 
ATOM     23  H   UNL     1      37.693 -17.938 -20.775  0.00  0.00    -0.089 HD
ATOM     24  H   UNL     1      37.256 -17.356 -22.273  0.00  0.00    -0.089 HD
ATOM     25  H   UNL     1      37.691 -18.954 -22.095  0.00  0.00    -0.089 HD
ENDBRANCH  21  22
BRANCH  21  26
ATOM     26  C   UNL     1      35.045 -17.217 -21.069  0.00  0.00    +0.007 C 
BRANCH  26  30
ATOM     27  F   UNL     1      34.309 -18.537 -23.469  0.00  0.00    -0.204 F 
ATOM     28  F   UNL     1      33.789 -13.093 -23.358  0.00  0.00    -0.202 F 
ATOM     29  F   UNL     1      33.115 -14.491 -25.611  0.00  0.00    -0.202 F 
ATOM     30  C   UNL     1      34.528 -16.490 -22.286  0.00  0.00    +0.006 C 
ATOM     31  C   UNL     1      34.184 -17.202 -23.435  0.00  0.00    +0.138 C 
ATOM     32  C   UNL     1      34.395 -15.102 -22.260  0.00  0.00    +0.030 C 
ATOM     33  C   UNL     1      33.917 -14.427 -23.384  0.00  0.00    +0.167 C 
ATOM     34  C   UNL     1      33.707 -16.527 -24.558  0.00  0.00    +0.061 C 
ATOM     35  C   UNL     1      33.573 -15.139 -24.532  0.00  0.00    +0.170 C 
ENDBRANCH  26  30
ENDBRANCH  21  26
ENDBRANCH  20  21
ENDBRANCH   9  20
TORSDOF 8
ENDMDL
MODEL 2
REMARK VINA RESULT:     -12.0      2.814      4.040
REMARK  Name = 44193830
REMARK  8 active torsions:
REMARK  status: ('A' for Active; 'I' for Inactive)
REMARK    1  A    between atoms: C_9  and  C_20
REMARK    2  A    between atoms: C_10  and  C_15
REMARK    3  A    between atoms: C_11  and  C_17
REMARK    4  A    between atoms: C_17  and  O_18
REMARK    5  A    between atoms: C_20  and  C_21
REMARK    6  A    between atoms: C_21  and  N_22
REMARK    7  A    between atoms: C_21  and  C_26
REMARK    8  A    between atoms: C_26  and  C_30
REMARK                            x       y       z     vdW  Elec       q    Type
REMARK                         _______ _______ _______ _____ _____    ______ ____
ROOT
ATOM      1  O   UNL     1      36.414 -20.980 -19.083  0.00  0.00    -0.275 OA
ATOM      2  N   UNL     1      35.440 -21.676 -17.088  0.00  0.00    -0.276 N 
ATOM      3  N   UNL     1      35.928 -23.214 -14.818  0.00  0.00    -0.272 N 
ATOM      4  N   UNL     1      34.711 -24.356 -13.373  0.00  0.00    -0.379 NA
ATOM      5  C   UNL     1      36.654 -21.417 -16.300  0.00  0.00    +0.115 C 
ATOM      6  C   UNL     1      37.065 -22.660 -15.520  0.00  0.00    +0.115 C 
ATOM      7  C   UNL     1      34.252 -22.125 -16.335  0.00  0.00    +0.121 C 
ATOM      8  C   UNL     1      34.628 -22.990 -15.187  0.00  0.00    +0.154 C 
ATOM      9  C   UNL     1      35.426 -21.356 -18.448  0.00  0.00    +0.224 C 
ATOM     10  C   UNL     1      35.934 -24.034 -13.734  0.00  0.00    +0.256 C 
ATOM     11  C   UNL     1      33.893 -23.710 -14.270  0.00  0.00    +0.205 C 
ENDROOT
BRANCH  10  15
ATOM     12  F   UNL     1      36.952 -25.328 -12.018  0.00  0.00    -0.163 F 
ATOM     13  F   UNL     1      38.021 -25.191 -13.907  0.00  0.00    -0.163 F 
ATOM     14  F   UNL     1      37.952 -23.480 -12.577  0.00  0.00    -0.163 F 
ATOM     15  C   UNL     1      37.177 -24.492 -13.082  0.00  0.00    +0.460 C 
ENDBRANCH  10  15
BRANCH  11  17
ATOM     16  O   UNL     1      31.680 -23.468 -15.124  0.00  0.00    -0.242 OA
ATOM     17  C   UNL     1      32.465 -23.808 -14.212  0.00  0.00    +0.369 C 
BRANCH  17  18
ATOM     18  O   UNL     1      32.022 -24.327 -13.016  0.00  0.00    -0.440 OA
ATOM     19  C   UNL     1      30.639 -24.681 -12.916  0.00  0.00    +0.256 C 
ENDBRANCH  17  18
ENDBRANCH  11  17
BRANCH   9  20
ATOM     20  C   UNL     1      34.102 -21.497 -19.157  0.00  0.00    +0.064 C 
BRANCH  20  21
ATOM     21  C   UNL     1      33.726 -20.222 -19.912  0.00  0.00    -0.052 C 
BRANCH  21  22
ATOM     22  N   UNL     1      32.302 -20.327 -20.258  0.00  0.00    +0.382 N 
ATOM     23  H   UNL     1      31.980 -19.440 -20.644  0.00  0.00    -0.089 HD
ATOM     24  H   UNL     1      31.764 -20.548 -19.420  0.00  0.00    -0.089 HD
ATOM     25  H   UNL     1      32.174 -21.065 -20.950  0.00  0.00    -0.089 HD
ENDBRANCH  21  22
BRANCH  21  26
ATOM     26  C   UNL     1      34.531 -20.019 -21.214  0.00  0.00    +0.007 C 
BRANCH  26  30
ATOM     27  F   UNL     1      34.173 -19.500 -23.979  0.00  0.00    -0.204 F 
ATOM     28  F   UNL     1      34.583 -15.168 -20.666  0.00  0.00    -0.202 F 
ATOM     29  F   UNL     1      34.236 -14.811 -23.355  0.00  0.00    -0.202 F 
ATOM     30  C   UNL     1      34.451 -18.626 -21.790  0.00  0.00    +0.006 C 
ATOM     31  C   UNL     1      34.274 -18.443 -23.161  0.00  0.00    +0.138 C 
ATOM     32  C   UNL     1      34.556 -17.519 -20.947  0.00  0.00    +0.030 C 
ATOM     33  C   UNL     1      34.483 -16.230 -21.476  0.00  0.00    +0.167 C 
ATOM     34  C   UNL     1      34.202 -17.154 -23.690  0.00  0.00    +0.061 C 
ATOM     35  C   UNL     1      34.306 -16.049 -22.847  0.00  0.00    +0.170 C 
ENDBRANCH  26  30
ENDBRANCH  21  26
ENDBRANCH  20  21
ENDBRANCH   9  20
TORSDOF 8
ENDMDL
MODEL 3
REMARK VINA RESULT:     -11.8      2.977      4.438
REMARK  Name = 44193830
REMARK  8 active torsions:
REMARK  status: ('A' for Active; 'I' for Inactive)
REMARK    1  A    between atoms: C_9  and  C_20
REMARK    2  A    between atoms: C_10  and  C_15
REMARK    3  A    between atoms: C_11  and  C_17
REMARK    4  A    between atoms: C_17  and  O_18
REMARK    5  A    between atoms: C_20  and  C_21
REMARK    6  A    between atoms: C_21  and  N_22
REMARK    7  A    between atoms: C_21  and  C_26
REMARK    8  A    between atoms: C_26  and  C_30
REMARK                            x       y       z     vdW  Elec       q    Type
REMARK                         _______ _______ _______ _____ _____    ______ ____
ROOT
ATOM      1  O   UNL     1      36.304 -21.186 -18.752  0.00  0.00    -0.275 OA
ATOM      2  N   UNL     1      35.419 -21.866 -16.711  0.00  0.00    -0.276 N 
ATOM      3  N   UNL     1      36.002 -23.398 -14.459  0.00  0.00    -0.272 N 
ATOM      4  N   UNL     1      34.845 -24.525 -12.953  0.00  0.00    -0.379 NA
ATOM      5  C   UNL     1      36.671 -21.613 -15.982  0.00  0.00    +0.115 C 
ATOM      6  C   UNL     1      37.108 -22.856 -15.216  0.00  0.00    +0.115 C 
ATOM      7  C   UNL     1      34.264 -22.303 -15.901  0.00  0.00    +0.121 C 
ATOM      8  C   UNL     1      34.687 -23.166 -14.767  0.00  0.00    +0.154 C 
ATOM      9  C   UNL     1      35.344 -21.552 -18.070  0.00  0.00    +0.224 C 
ATOM     10  C   UNL     1      36.052 -24.214 -13.373  0.00  0.00    +0.256 C 
ATOM     11  C   UNL     1      33.991 -23.877 -13.814  0.00  0.00    +0.205 C 
ENDROOT
BRANCH  10  15
ATOM     12  F   UNL     1      38.086 -23.659 -12.274  0.00  0.00    -0.163 F 
ATOM     13  F   UNL     1      37.165 -25.552 -11.732  0.00  0.00    -0.163 F 
ATOM     14  F   UNL     1      38.145 -25.338 -13.654  0.00  0.00    -0.163 F 
ATOM     15  C   UNL     1      37.321 -24.679 -12.777  0.00  0.00    +0.460 C 
ENDBRANCH  10  15
BRANCH  11  17
ATOM     16  O   UNL     1      31.897 -25.017 -13.763  0.00  0.00    -0.242 OA
ATOM     17  C   UNL     1      32.567 -23.963 -13.688  0.00  0.00    +0.369 C 
BRANCH  17  18
ATOM     18  O   UNL     1      31.983 -22.736 -13.470  0.00  0.00    -0.440 OA
ATOM     19  C   UNL     1      30.806 -22.416 -14.219  0.00  0.00    +0.256 C 
ENDBRANCH  17  18
ENDBRANCH  11  17
BRANCH   9  20
ATOM     20  C   UNL     1      33.987 -21.686 -18.716  0.00  0.00    +0.064 C 
BRANCH  20  21
ATOM     21  C   UNL     1      33.680 -20.505 -19.637  0.00  0.00    -0.052 C 
BRANCH  21  22
ATOM     22  N   UNL     1      32.236 -20.529 -19.905  0.00  0.00    +0.382 N 
ATOM     23  H   UNL     1      31.926 -19.597 -20.181  0.00  0.00    -0.089 HD
ATOM     24  H   UNL     1      31.738 -20.817 -19.063  0.00  0.00    -0.089 HD
ATOM     25  H   UNL     1      32.040 -21.188 -20.658  0.00  0.00    -0.089 HD
ENDBRANCH  21  22
BRANCH  21  26
ATOM     26  C   UNL     1      34.428 -20.569 -20.987  0.00  0.00    +0.007 C 
BRANCH  26  30
ATOM     27  F   UNL     1      36.078 -18.396 -20.212  0.00  0.00    -0.204 F 
ATOM     28  F   UNL     1      32.970 -17.701 -24.659  0.00  0.00    -0.202 F 
ATOM     29  F   UNL     1      34.608 -15.686 -23.801  0.00  0.00    -0.202 F 
ATOM     30  C   UNL     1      34.478 -19.261 -21.738  0.00  0.00    +0.006 C 
ATOM     31  C   UNL     1      35.314 -18.233 -21.301  0.00  0.00    +0.138 C 
ATOM     32  C   UNL     1      33.687 -19.081 -22.872  0.00  0.00    +0.030 C 
ATOM     33  C   UNL     1      33.731 -17.873 -23.569  0.00  0.00    +0.167 C 
ATOM     34  C   UNL     1      35.357 -17.025 -21.998  0.00  0.00    +0.061 C 
ATOM     35  C   UNL     1      34.566 -16.846 -23.132  0.00  0.00    +0.170 C 
ENDBRANCH  26  30
ENDBRANCH  21  26
ENDBRANCH  20  21
ENDBRANCH   9  20
TORSDOF 8
ENDMDL
MODEL 4
REMARK VINA RESULT:     -11.4      3.648      5.271
REMARK  Name = 44193830
REMARK  8 active torsions:
REMARK  status: ('A' for Active; 'I' for Inactive)
REMARK    1  A    between atoms: C_9  and  C_20
REMARK    2  A    between atoms: C_10  and  C_15
REMARK    3  A    between atoms: C_11  and  C_17
REMARK    4  A    between atoms: C_17  and  O_18
REMARK    5  A    between atoms: C_20  and  C_21
REMARK    6  A    between atoms: C_21  and  N_22
REMARK    7  A    between atoms: C_21  and  C_26
REMARK    8  A    between atoms: C_26  and  C_30
REMARK                            x       y       z     vdW  Elec       q    Type
REMARK                         _______ _______ _______ _____ _____    ______ ____
ROOT
ATOM      1  O   UNL     1      31.543 -22.167 -15.694  0.00  0.00    -0.275 OA
ATOM      2  N   UNL     1      33.127 -23.681 -14.910  0.00  0.00    -0.276 N 
ATOM      3  N   UNL     1      34.947 -24.090 -12.842  0.00  0.00    -0.272 N 
ATOM      4  N   UNL     1      36.851 -25.178 -12.584  0.00  0.00    -0.379 NA
ATOM      5  C   UNL     1      32.657 -23.591 -13.520  0.00  0.00    +0.115 C 
ATOM      6  C   UNL     1      33.806 -23.238 -12.584  0.00  0.00    +0.115 C 
ATOM      7  C   UNL     1      34.211 -24.647 -15.175  0.00  0.00    +0.121 C 
ATOM      8  C   UNL     1      35.156 -24.735 -14.032  0.00  0.00    +0.154 C 
ATOM      9  C   UNL     1      32.450 -22.975 -15.908  0.00  0.00    +0.224 C 
ATOM     10  C   UNL     1      35.980 -24.379 -12.006  0.00  0.00    +0.256 C 
ATOM     11  C   UNL     1      36.346 -25.404 -13.842  0.00  0.00    +0.205 C 
ENDROOT
BRANCH  10  15
ATOM     12  F   UNL     1      37.236 -24.198  -9.996  0.00  0.00    -0.163 F 
ATOM     13  F   UNL     1      36.059 -22.464 -10.574  0.00  0.00    -0.163 F 
ATOM     14  F   UNL     1      35.071 -24.233  -9.799  0.00  0.00    -0.163 F 
ATOM     15  C   UNL     1      36.081 -23.834 -10.637  0.00  0.00    +0.460 C 
ENDBRANCH  10  15
BRANCH  11  17
ATOM     16  O   UNL     1      36.462 -26.824 -15.755  0.00  0.00    -0.242 OA
ATOM     17  C   UNL     1      37.013 -26.241 -14.795  0.00  0.00    +0.369 C 
BRANCH  17  18
ATOM     18  O   UNL     1      38.363 -26.349 -14.547  0.00  0.00    -0.440 OA
ATOM     19  C   UNL     1      39.177 -25.197 -14.784  0.00  0.00    +0.256 C 
ENDBRANCH  17  18
ENDBRANCH  11  17
BRANCH   9  20
ATOM     20  C   UNL     1      32.885 -23.239 -17.328  0.00  0.00    +0.064 C 
BRANCH  20  21
ATOM     21  C   UNL     1      33.082 -21.939 -18.109  0.00  0.00    -0.052 C 
BRANCH  21  22
ATOM     22  N   UNL     1      31.748 -21.389 -18.380  0.00  0.00    +0.382 N 
ATOM     23  H   UNL     1      31.070 -22.150 -18.430  0.00  0.00    -0.089 HD
ATOM     24  H   UNL     1      31.761 -20.887 -19.268  0.00  0.00    -0.089 HD
ATOM     25  H   UNL     1      31.485 -20.749 -17.632  0.00  0.00    -0.089 HD
ENDBRANCH  21  22
BRANCH  21  26
ATOM     26  C   UNL     1      33.812 -22.137 -19.456  0.00  0.00    +0.007 C 
BRANCH  26  30
ATOM     27  F   UNL     1      36.392 -21.287 -18.640  0.00  0.00    -0.204 F 
ATOM     28  F   UNL     1      33.812 -18.205 -22.349  0.00  0.00    -0.202 F 
ATOM     29  F   UNL     1      36.305 -17.499 -21.474  0.00  0.00    -0.202 F 
ATOM     30  C   UNL     1      34.482 -20.896 -19.995  0.00  0.00    +0.006 C 
ATOM     31  C   UNL     1      35.753 -20.536 -19.549  0.00  0.00    +0.138 C 
ATOM     32  C   UNL     1      33.826 -20.108 -20.941  0.00  0.00    +0.030 C 
ATOM     33  C   UNL     1      34.442 -18.961 -21.441  0.00  0.00    +0.167 C 
ATOM     34  C   UNL     1      36.369 -19.388 -20.048  0.00  0.00    +0.061 C 
ATOM     35  C   UNL     1      35.713 -18.602 -20.994  0.00  0.00    +0.170 C 
ENDBRANCH  26  30
ENDBRANCH  21  26
ENDBRANCH  20  21
ENDBRANCH   9  20
TORSDOF 8
ENDMDL
MODEL 5
REMARK VINA RESULT:     -10.6      3.383      5.025
REMARK  Name = 44193830
REMARK  8 active torsions:
REMARK  status: ('A' for Active; 'I' for Inactive)
REMARK    1  A    between atoms: C_9  and  C_20
REMARK    2  A    between atoms: C_10  and  C_15
REMARK    3  A    between atoms: C_11  and  C_17
REMARK    4  A    between atoms: C_17  and  O_18
REMARK    5  A    between atoms: C_20  and  C_21
REMARK    6  A    between atoms: C_21  and  N_22
REMARK    7  A    between atoms: C_21  and  C_26
REMARK    8  A    between atoms: C_26  and  C_30
REMARK                            x       y       z     vdW  Elec       q    Type
REMARK                         _______ _______ _______ _____ _____    ______ ____
ROOT
ATOM      1  O   UNL     1      31.694 -22.496 -16.014  0.00  0.00    -0.275 OA
ATOM      2  N   UNL     1      33.346 -23.779 -14.995  0.00  0.00    -0.276 N 
ATOM      3  N   UNL     1      34.771 -24.048 -12.617  0.00  0.00    -0.272 N 
ATOM      4  N   UNL     1      36.756 -24.812 -12.023  0.00  0.00    -0.379 NA
ATOM      5  C   UNL     1      32.605 -23.890 -13.730  0.00  0.00    +0.115 C 
ATOM      6  C   UNL     1      33.465 -23.428 -12.560  0.00  0.00    +0.115 C 
ATOM      7  C   UNL     1      34.621 -24.520 -15.077  0.00  0.00    +0.121 C 
ATOM      8  C   UNL     1      35.324 -24.543 -13.767  0.00  0.00    +0.154 C 
ATOM      9  C   UNL     1      32.758 -23.117 -16.075  0.00  0.00    +0.224 C 
ATOM     10  C   UNL     1      35.656 -24.226 -11.600  0.00  0.00    +0.256 C 
ATOM     11  C   UNL     1      36.556 -25.013 -13.369  0.00  0.00    +0.205 C 
ENDROOT
BRANCH  10  15
ATOM     12  F   UNL     1      34.476 -22.769 -10.138  0.00  0.00    -0.163 F 
ATOM     13  F   UNL     1      34.879 -24.776  -9.406  0.00  0.00    -0.163 F 
ATOM     14  F   UNL     1      36.491 -23.332  -9.545  0.00  0.00    -0.163 F 
ATOM     15  C   UNL     1      35.386 -23.792 -10.215  0.00  0.00    +0.460 C 
ENDBRANCH  10  15
BRANCH  11  17
ATOM     16  O   UNL     1      37.607 -26.865 -14.444  0.00  0.00    -0.242 OA
ATOM     17  C   UNL     1      37.539 -25.639 -14.202  0.00  0.00    +0.369 C 
BRANCH  17  18
ATOM     18  O   UNL     1      38.433 -24.735 -14.731  0.00  0.00    -0.440 OA
ATOM     19  C   UNL     1      39.811 -24.871 -14.367  0.00  0.00    +0.256 C 
ENDBRANCH  17  18
ENDBRANCH  11  17
BRANCH   9  20
ATOM     20  C   UNL     1      33.503 -23.179 -17.386  0.00  0.00    +0.064 C 
BRANCH  20  21
ATOM     21  C   UNL     1      33.329 -21.895 -18.197  0.00  0.00    -0.052 C 
BRANCH  21  22
ATOM     22  N   UNL     1      31.889 -21.720 -18.428  0.00  0.00    +0.382 N 
ATOM     23  H   UNL     1      31.714 -20.782 -18.788  0.00  0.00    -0.089 HD
ATOM     24  H   UNL     1      31.386 -21.846 -17.550  0.00  0.00    -0.089 HD
ATOM     25  H   UNL     1      31.567 -22.410 -19.106  0.00  0.00    -0.089 HD
ENDBRANCH  21  22
BRANCH  21  26
ATOM     26  C   UNL     1      34.042 -21.931 -19.566  0.00  0.00    +0.007 C 
BRANCH  26  30
ATOM     27  F   UNL     1      32.121 -20.250 -20.801  0.00  0.00    -0.204 F 
ATOM     28  F   UNL     1      37.255 -18.384 -20.527  0.00  0.00    -0.202 F 
ATOM     29  F   UNL     1      35.302 -16.864 -21.693  0.00  0.00    -0.202 F 
ATOM     30  C   UNL     1      34.377 -20.574 -20.136  0.00  0.00    +0.006 C 
ATOM     31  C   UNL     1      33.382 -19.799 -20.731  0.00  0.00    +0.138 C 
ATOM     32  C   UNL     1      35.685 -20.096 -20.068  0.00  0.00    +0.030 C 
ATOM     33  C   UNL     1      35.998 -18.842 -20.593  0.00  0.00    +0.167 C 
ATOM     34  C   UNL     1      33.695 -18.545 -21.257  0.00  0.00    +0.061 C 
ATOM     35  C   UNL     1      35.003 -18.068 -21.188  0.00  0.00    +0.170 C 
ENDBRANCH  26  30
ENDBRANCH  21  26
ENDBRANCH  20  21
ENDBRANCH   9  20
TORSDOF 8
ENDMDL
MODEL 6
REMARK VINA RESULT:     -10.5      1.465      2.171
REMARK  Name = 44193830
REMARK  8 active torsions:
REMARK  status: ('A' for Active; 'I' for Inactive)
REMARK    1  A    between atoms: C_9  and  C_20
REMARK    2  A    between atoms: C_10  and  C_15
REMARK    3  A    between atoms: C_11  and  C_17
REMARK    4  A    between atoms: C_17  and  O_18
REMARK    5  A    between atoms: C_20  and  C_21
REMARK    6  A    between atoms: C_21  and  N_22
REMARK    7  A    between atoms: C_21  and  C_26
REMARK    8  A    between atoms: C_26  and  C_30
REMARK                            x       y       z     vdW  Elec       q    Type
REMARK                         _______ _______ _______ _____ _____    ______ ____
ROOT
ATOM      1  O   UNL     1      33.377 -21.210 -20.103  0.00  0.00    -0.275 OA
ATOM      2  N   UNL     1      34.020 -22.157 -18.077  0.00  0.00    -0.276 N 
ATOM      3  N   UNL     1      33.049 -22.831 -15.555  0.00  0.00    -0.272 N 
ATOM      4  N   UNL     1      33.894 -23.057 -13.528  0.00  0.00    -0.379 NA
ATOM      5  C   UNL     1      32.811 -22.988 -17.979  0.00  0.00    +0.115 C 
ATOM      6  C   UNL     1      32.105 -22.756 -16.649  0.00  0.00    +0.115 C 
ATOM      7  C   UNL     1      35.030 -22.337 -17.015  0.00  0.00    +0.121 C 
ATOM      8  C   UNL     1      34.396 -22.629 -15.702  0.00  0.00    +0.154 C 
ATOM      9  C   UNL     1      34.215 -21.365 -19.212  0.00  0.00    +0.224 C 
ATOM     10  C   UNL     1      32.791 -23.082 -14.244  0.00  0.00    +0.256 C 
ATOM     11  C   UNL     1      34.896 -22.776 -14.427  0.00  0.00    +0.205 C 
ENDROOT
BRANCH  10  15
ATOM     12  F   UNL     1      30.820 -24.410 -14.319  0.00  0.00    -0.163 F 
ATOM     13  F   UNL     1      31.378 -23.594 -12.382  0.00  0.00    -0.163 F 
ATOM     14  F   UNL     1      30.559 -22.291 -13.910  0.00  0.00    -0.163 F 
ATOM     15  C   UNL     1      31.430 -23.334 -13.728  0.00  0.00    +0.460 C 
ENDBRANCH  10  15
BRANCH  11  17
ATOM     16  O   UNL     1      37.183 -22.173 -14.730  0.00  0.00    -0.242 OA
ATOM     17  C   UNL     1      36.268 -22.665 -14.033  0.00  0.00    +0.369 C 
BRANCH  17  18
ATOM     18  O   UNL     1      36.496 -23.169 -12.771  0.00  0.00    -0.440 OA
ATOM     19  C   UNL     1      37.368 -24.297 -12.652  0.00  0.00    +0.256 C 
ENDBRANCH  17  18
ENDBRANCH  11  17
BRANCH   9  20
ATOM     20  C   UNL     1      35.547 -20.664 -19.320  0.00  0.00    +0.064 C 
BRANCH  20  21
ATOM     21  C   UNL     1      35.570 -19.669 -20.480  0.00  0.00    -0.052 C 
BRANCH  21  22
ATOM     22  N   UNL     1      36.700 -18.760 -20.249  0.00  0.00    +0.382 N 
ATOM     23  H   UNL     1      36.488 -17.846 -20.650  0.00  0.00    -0.089 HD
ATOM     24  H   UNL     1      37.537 -19.139 -20.691  0.00  0.00    -0.089 HD
ATOM     25  H   UNL     1      36.859 -18.662 -19.246  0.00  0.00    -0.089 HD
ENDBRANCH  21  22
BRANCH  21  26
ATOM     26  C   UNL     1      34.280 -18.826 -20.591  0.00  0.00    +0.007 C 
BRANCH  26  30
ATOM     27  F   UNL     1      34.772 -16.036 -20.464  0.00  0.00    -0.204 F 
ATOM     28  F   UNL     1      33.573 -18.132 -25.371  0.00  0.00    -0.202 F 
ATOM     29  F   UNL     1      34.068 -15.455 -25.106  0.00  0.00    -0.202 F 
ATOM     30  C   UNL     1      34.224 -17.922 -21.799  0.00  0.00    +0.006 C 
ATOM     31  C   UNL     1      34.477 -16.557 -21.664  0.00  0.00    +0.138 C 
ATOM     32  C   UNL     1      33.919 -18.453 -23.051  0.00  0.00    +0.030 C 
ATOM     33  C   UNL     1      33.866 -17.620 -24.169  0.00  0.00    +0.167 C 
ATOM     34  C   UNL     1      34.424 -15.723 -22.781  0.00  0.00    +0.061 C 
ATOM     35  C   UNL     1      34.119 -16.256 -24.033  0.00  0.00    +0.170 C 
ENDBRANCH  26  30
ENDBRANCH  21  26
ENDBRANCH  20  21
ENDBRANCH   9  20
TORSDOF 8
ENDMDL
MODEL 7
REMARK VINA RESULT:     -10.4      7.755     13.796
REMARK  Name = 44193830
REMARK  8 active torsions:
REMARK  status: ('A' for Active; 'I' for Inactive)
REMARK    1  A    between atoms: C_9  and  C_20
REMARK    2  A    between atoms: C_10  and  C_15
REMARK    3  A    between atoms: C_11  and  C_17
REMARK    4  A    between atoms: C_17  and  O_18
REMARK    5  A    between atoms: C_20  and  C_21
REMARK    6  A    between atoms: C_21  and  N_22
REMARK    7  A    between atoms: C_21  and  C_26
REMARK    8  A    between atoms: C_26  and  C_30
REMARK                            x       y       z     vdW  Elec       q    Type
REMARK                         _______ _______ _______ _____ _____    ______ ____
ROOT
ATOM      1  O   UNL     1      30.791 -11.337 -20.955  0.00  0.00    -0.275 OA
ATOM      2  N   UNL     1      31.957  -9.505 -21.792  0.00  0.00    -0.276 N 
ATOM      3  N   UNL     1      31.747  -6.757 -22.191  0.00  0.00    -0.272 N 
ATOM      4  N   UNL     1      32.587  -5.280 -23.601  0.00  0.00    -0.379 NA
ATOM      5  C   UNL     1      31.602  -8.645 -20.653  0.00  0.00    +0.115 C 
ATOM      6  C   UNL     1      30.957  -7.352 -21.135  0.00  0.00    +0.115 C 
ATOM      7  C   UNL     1      32.864  -8.920 -22.800  0.00  0.00    +0.121 C 
ATOM      8  C   UNL     1      32.618  -7.464 -22.976  0.00  0.00    +0.154 C 
ATOM      9  C   UNL     1      31.548 -10.841 -21.794  0.00  0.00    +0.224 C 
ATOM     10  C   UNL     1      31.756  -5.459 -22.597  0.00  0.00    +0.256 C 
ATOM     11  C   UNL     1      33.127  -6.521 -23.842  0.00  0.00    +0.205 C 
ENDROOT
BRANCH  10  15
ATOM     12  F   UNL     1      31.201  -3.154 -22.424  0.00  0.00    -0.163 F 
ATOM     13  F   UNL     1      29.572  -4.574 -22.188  0.00  0.00    -0.163 F 
ATOM     14  F   UNL     1      31.039  -4.340 -20.609  0.00  0.00    -0.163 F 
ATOM     15  C   UNL     1      30.917  -4.417 -21.973  0.00  0.00    +0.460 C 
ENDBRANCH  10  15
BRANCH  11  17
ATOM     16  O   UNL     1      35.055  -7.546 -24.801  0.00  0.00    -0.242 OA
ATOM     17  C   UNL     1      34.095  -6.748 -24.874  0.00  0.00    +0.369 C 
BRANCH  17  18
ATOM     18  O   UNL     1      33.861  -5.979 -25.992  0.00  0.00    -0.440 OA
ATOM     19  C   UNL     1      34.987  -5.358 -26.620  0.00  0.00    +0.256 C 
ENDBRANCH  17  18
ENDBRANCH  11  17
BRANCH   9  20
ATOM     20  C   UNL     1      32.080 -11.704 -22.911  0.00  0.00    +0.064 C 
BRANCH  20  21
ATOM     21  C   UNL     1      32.690 -13.002 -22.381  0.00  0.00    -0.052 C 
BRANCH  21  22
ATOM     22  N   UNL     1      33.189 -12.725 -21.028  0.00  0.00    +0.382 N 
ATOM     23  H   UNL     1      34.159 -13.033 -20.953  0.00  0.00    -0.089 HD
ATOM     24  H   UNL     1      32.620 -13.227 -20.346  0.00  0.00    -0.089 HD
ATOM     25  H   UNL     1      33.136 -11.724 -20.843  0.00  0.00    -0.089 HD
ENDBRANCH  21  22
BRANCH  21  26
ATOM     26  C   UNL     1      33.866 -13.523 -23.237  0.00  0.00    +0.007 C 
BRANCH  26  30
ATOM     27  F   UNL     1      33.216 -15.197 -25.433  0.00  0.00    -0.204 F 
ATOM     28  F   UNL     1      35.198 -17.625 -20.950  0.00  0.00    -0.202 F 
ATOM     29  F   UNL     1      34.530 -19.121 -23.140  0.00  0.00    -0.202 F 
ATOM     30  C   UNL     1      34.043 -15.022 -23.214  0.00  0.00    +0.006 C 
ATOM     31  C   UNL     1      33.702 -15.785 -24.331  0.00  0.00    +0.138 C 
ATOM     32  C   UNL     1      34.547 -15.643 -22.072  0.00  0.00    +0.030 C 
ATOM     33  C   UNL     1      34.713 -17.028 -22.047  0.00  0.00    +0.167 C 
ATOM     34  C   UNL     1      33.867 -17.170 -24.305  0.00  0.00    +0.061 C 
ATOM     35  C   UNL     1      34.372 -17.791 -23.164  0.00  0.00    +0.170 C 
ENDBRANCH  26  30
ENDBRANCH  21  26
ENDBRANCH  20  21
ENDBRANCH   9  20
TORSDOF 8
ENDMDL
MODEL 8
REMARK VINA RESULT:     -10.3      8.745     14.860
REMARK  Name = 44193830
REMARK  8 active torsions:
REMARK  status: ('A' for Active; 'I' for Inactive)
REMARK    1  A    between atoms: C_9  and  C_20
REMARK    2  A    between atoms: C_10  and  C_15
REMARK    3  A    between atoms: C_11  and  C_17
REMARK    4  A    between atoms: C_17  and  O_18
REMARK    5  A    between atoms: C_20  and  C_21
REMARK    6  A    between atoms: C_21  and  N_22
REMARK    7  A    between atoms: C_21  and  C_26
REMARK    8  A    between atoms: C_26  and  C_30
REMARK                            x       y       z     vdW  Elec       q    Type
REMARK                         _______ _______ _______ _____ _____    ______ ____
ROOT
ATOM      1  O   UNL     1      30.712  -9.540 -19.849  0.00  0.00    -0.275 OA
ATOM      2  N   UNL     1      31.306  -8.134 -21.606  0.00  0.00    -0.276 N 
ATOM      3  N   UNL     1      31.065  -5.509 -22.503  0.00  0.00    -0.272 N 
ATOM      4  N   UNL     1      31.048  -4.486 -24.460  0.00  0.00    -0.379 NA
ATOM      5  C   UNL     1      31.704  -7.037 -20.711  0.00  0.00    +0.115 C 
ATOM      6  C   UNL     1      30.974  -5.751 -21.079  0.00  0.00    +0.115 C 
ATOM      7  C   UNL     1      31.520  -7.915 -23.050  0.00  0.00    +0.121 C 
ATOM      8  C   UNL     1      31.302  -6.493 -23.425  0.00  0.00    +0.154 C 
ATOM      9  C   UNL     1      30.892  -9.350 -21.054  0.00  0.00    +0.224 C 
ATOM     10  C   UNL     1      30.918  -4.328 -23.160  0.00  0.00    +0.256 C 
ATOM     11  C   UNL     1      31.288  -5.829 -24.632  0.00  0.00    +0.205 C 
ENDROOT
BRANCH  10  15
ATOM     12  F   UNL     1      31.755  -2.474 -21.929  0.00  0.00    -0.163 F 
ATOM     13  F   UNL     1      30.090  -2.086 -23.272  0.00  0.00    -0.163 F 
ATOM     14  F   UNL     1      29.757  -3.166 -21.421  0.00  0.00    -0.163 F 
ATOM     15  C   UNL     1      30.636  -3.054 -22.468  0.00  0.00    +0.460 C 
ENDBRANCH  10  15
BRANCH  11  17
ATOM     16  O   UNL     1      30.839  -7.366 -26.400  0.00  0.00    -0.242 OA
ATOM     17  C   UNL     1      31.492  -6.410 -25.925  0.00  0.00    +0.369 C 
BRANCH  17  18
ATOM     18  O   UNL     1      32.510  -5.798 -26.622  0.00  0.00    -0.440 OA
ATOM     19  C   UNL     1      33.840  -5.928 -26.109  0.00  0.00    +0.256 C 
ENDBRANCH  17  18
ENDBRANCH  11  17
BRANCH   9  20
ATOM     20  C   UNL     1      30.654 -10.480 -22.025  0.00  0.00    +0.064 C 
BRANCH  20  21
ATOM     21  C   UNL     1      31.522 -11.696 -21.701  0.00  0.00    -0.052 C 
BRANCH  21  22
ATOM     22  N   UNL     1      31.913 -11.586 -20.290  0.00  0.00    +0.382 N 
ATOM     23  H   UNL     1      31.095 -11.735 -19.698  0.00  0.00    -0.089 HD
ATOM     24  H   UNL     1      32.294 -10.656 -20.114  0.00  0.00    -0.089 HD
ATOM     25  H   UNL     1      32.619 -12.289 -20.077  0.00  0.00    -0.089 HD
ENDBRANCH  21  22
BRANCH  21  26
ATOM     26  C   UNL     1      32.804 -11.781 -22.558  0.00  0.00    +0.007 C 
BRANCH  26  30
ATOM     27  F   UNL     1      32.457 -12.935 -25.125  0.00  0.00    -0.204 F 
ATOM     28  F   UNL     1      34.829 -16.041 -21.299  0.00  0.00    -0.202 F 
ATOM     29  F   UNL     1      34.433 -17.030 -23.818  0.00  0.00    -0.202 F 
ATOM     30  C   UNL     1      33.240 -13.186 -22.898  0.00  0.00    +0.006 C 
ATOM     31  C   UNL     1      33.038 -13.691 -24.182  0.00  0.00    +0.138 C 
ATOM     32  C   UNL     1      33.844 -13.980 -21.924  0.00  0.00    +0.030 C 
ATOM     33  C   UNL     1      34.248 -15.278 -22.235  0.00  0.00    +0.167 C 
ATOM     34  C   UNL     1      33.441 -14.990 -24.493  0.00  0.00    +0.061 C 
ATOM     35  C   UNL     1      34.046 -15.783 -23.519  0.00  0.00    +0.170 C 
ENDBRANCH  26  30
ENDBRANCH  21  26
ENDBRANCH  20  21
ENDBRANCH   9  20
TORSDOF 8
ENDMDL
MODEL 9
REMARK VINA RESULT:     -10.1      1.533      2.163
REMARK  Name = 44193830
REMARK  8 active torsions:
REMARK  status: ('A' for Active; 'I' for Inactive)
REMARK    1  A    between atoms: C_9  and  C_20
REMARK    2  A    between atoms: C_10  and  C_15
REMARK    3  A    between atoms: C_11  and  C_17
REMARK    4  A    between atoms: C_17  and  O_18
REMARK    5  A    between atoms: C_20  and  C_21
REMARK    6  A    between atoms: C_21  and  N_22
REMARK    7  A    between atoms: C_21  and  C_26
REMARK    8  A    between atoms: C_26  and  C_30
REMARK                            x       y       z     vdW  Elec       q    Type
REMARK                         _______ _______ _______ _____ _____    ______ ____
ROOT
ATOM      1  O   UNL     1      32.931 -19.487 -21.421  0.00  0.00    -0.275 OA
ATOM      2  N   UNL     1      34.048 -20.684 -19.768  0.00  0.00    -0.276 N 
ATOM      3  N   UNL     1      33.637 -22.009 -17.353  0.00  0.00    -0.272 N 
ATOM      4  N   UNL     1      34.845 -22.476 -15.564  0.00  0.00    -0.379 NA
ATOM      5  C   UNL     1      33.008 -21.722 -19.693  0.00  0.00    +0.115 C 
ATOM      6  C   UNL     1      32.517 -21.889 -18.260  0.00  0.00    +0.115 C 
ATOM      7  C   UNL     1      35.241 -20.887 -18.924  0.00  0.00    +0.121 C 
ATOM      8  C   UNL     1      34.894 -21.542 -17.635  0.00  0.00    +0.154 C 
ATOM      9  C   UNL     1      33.925 -19.662 -20.712  0.00  0.00    +0.224 C 
ATOM     10  C   UNL     1      33.650 -22.557 -16.108  0.00  0.00    +0.256 C 
ATOM     11  C   UNL     1      35.624 -21.848 -16.507  0.00  0.00    +0.205 C 
ENDROOT
BRANCH  10  15
ATOM     12  F   UNL     1      31.736 -23.949 -16.329  0.00  0.00    -0.163 F 
ATOM     13  F   UNL     1      32.718 -23.936 -14.390  0.00  0.00    -0.163 F 
ATOM     14  F   UNL     1      31.547 -22.223 -15.020  0.00  0.00    -0.163 F 
ATOM     15  C   UNL     1      32.451 -23.147 -15.479  0.00  0.00    +0.460 C 
ENDBRANCH  10  15
BRANCH  11  17
ATOM     16  O   UNL     1      37.541 -20.439 -16.338  0.00  0.00    -0.242 OA
ATOM     17  C   UNL     1      37.013 -21.572 -16.292  0.00  0.00    +0.369 C 
BRANCH  17  18
ATOM     18  O   UNL     1      37.739 -22.710 -16.019  0.00  0.00    -0.440 OA
ATOM     19  C   UNL     1      37.450 -23.409 -14.805  0.00  0.00    +0.256 C 
ENDBRANCH  17  18
ENDBRANCH  11  17
BRANCH   9  20
ATOM     20  C   UNL     1      35.101 -18.726 -20.843  0.00  0.00    +0.064 C 
BRANCH  20  21
ATOM     21  C   UNL     1      34.733 -17.461 -21.619  0.00  0.00    -0.052 C 
BRANCH  21  22
ATOM     22  N   UNL     1      35.762 -17.269 -22.649  0.00  0.00    +0.382 N 
ATOM     23  H   UNL     1      36.549 -16.754 -22.253  0.00  0.00    -0.089 HD
ATOM     24  H   UNL     1      35.369 -16.741 -23.429  0.00  0.00    -0.089 HD
ATOM     25  H   UNL     1      36.084 -18.177 -22.981  0.00  0.00    -0.089 HD
ENDBRANCH  21  22
BRANCH  21  26
ATOM     26  C   UNL     1      34.682 -16.193 -20.738  0.00  0.00    +0.007 C 
BRANCH  26  30
ATOM     27  F   UNL     1      32.727 -14.727 -19.299  0.00  0.00    -0.204 F 
ATOM     28  F   UNL     1      33.644 -13.235 -24.480  0.00  0.00    -0.202 F 
ATOM     29  F   UNL     1      31.784 -11.906 -22.978  0.00  0.00    -0.202 F 
ATOM     30  C   UNL     1      33.905 -15.045 -21.335  0.00  0.00    +0.006 C 
ATOM     31  C   UNL     1      32.957 -14.367 -20.570  0.00  0.00    +0.138 C 
ATOM     32  C   UNL     1      34.137 -14.663 -22.656  0.00  0.00    +0.030 C 
ATOM     33  C   UNL     1      33.421 -13.602 -23.211  0.00  0.00    +0.167 C 
ATOM     34  C   UNL     1      32.240 -13.307 -21.125  0.00  0.00    +0.061 C 
ATOM     35  C   UNL     1      32.473 -12.925 -22.445  0.00  0.00    +0.170 C 
ENDBRANCH  26  30
ENDBRANCH  21  26
ENDBRANCH  20  21
ENDBRANCH   9  20
TORSDOF 8
ENDMDL
