MODEL 1
REMARK VINA RESULT:     -13.5      0.000      0.000
REMARK  Name = 445849
REMARK  5 active torsions:
REMARK  status: ('A' for Active; 'I' for Inactive)
REMARK    1  A    between atoms: C_3  and  C_20
REMARK    2  A    between atoms: C_9  and  C_14
REMARK    3  A    between atoms: C_18  and  O_26
REMARK    4  A    between atoms: C_19  and  O_24
REMARK    5  A    between atoms: O_26  and  C_28
REMARK                            x       y       z     vdW  Elec       q    Type
REMARK                         _______ _______ _______ _____ _____    ______ ____
ROOT
ATOM      1  F   UNL     1      36.833 -22.438 -15.927  0.00  0.00    -0.204 F 
ATOM      2  N   UNL     1      35.682 -19.823 -19.866  0.00  0.00    -0.312 N 
ATOM      3  C   UNL     1      34.506 -19.693 -20.554  0.00  0.00    +0.051 C 
ATOM      4  C   UNL     1      34.189 -21.115 -18.828  0.00  0.00    +0.015 C 
ATOM      5  C   UNL     1      35.518 -20.687 -18.806  0.00  0.00    +0.051 C 
ATOM      6  C   UNL     1      33.563 -20.479 -19.936  0.00  0.00    +0.016 C 
ATOM      7  C   UNL     1      33.751 -22.016 -17.837  0.00  0.00    +0.006 C 
ATOM      8  C   UNL     1      36.435 -21.115 -17.840  0.00  0.00    +0.044 C 
ATOM      9  C   UNL     1      34.657 -22.454 -16.864  0.00  0.00    +0.058 C 
ATOM     10  C   UNL     1      35.977 -22.009 -16.867  0.00  0.00    +0.144 C 
ATOM     11  H   UNL     1      36.524 -19.366 -20.096  0.00  0.00    +0.152 HD
ENDROOT
BRANCH   9  14
ATOM     12  N   UNL     1      33.002 -23.196 -15.168  0.00  0.00    -0.343 N 
ATOM     13  N   UNL     1      34.953 -24.432 -15.531  0.00  0.00    -0.285 NA
ATOM     14  C   UNL     1      34.207 -23.385 -15.841  0.00  0.00    +0.119 C 
ATOM     15  H   UNL     1      32.717 -23.839 -14.479  0.00  0.00    +0.144 HD
ATOM     16  H   UNL     1      32.434 -22.421 -15.383  0.00  0.00    +0.144 HD
ATOM     17  H   UNL     1      34.651 -25.063 -14.838  0.00  0.00    +0.188 HD
ENDBRANCH   9  14
BRANCH   3  20
ATOM     18  C   UNL     1      34.478 -16.675 -22.763  0.00  0.00    +0.172 C 
ATOM     19  C   UNL     1      34.595 -17.469 -21.626  0.00  0.00    +0.169 C 
ATOM     20  C   UNL     1      34.391 -18.846 -21.719  0.00  0.00    +0.050 C 
ATOM     21  C   UNL     1      34.157 -17.245 -23.991  0.00  0.00    +0.040 C 
ATOM     22  C   UNL     1      34.068 -19.422 -22.947  0.00  0.00    +0.004 C 
ATOM     23  C   UNL     1      33.952 -18.623 -24.084  0.00  0.00    +0.003 C 
BRANCH  19  24
ATOM     24  O   UNL     1      34.912 -16.891 -20.431  0.00  0.00    -0.503 OA
ATOM     25  H   UNL     1      34.920 -15.957 -20.350  0.00  0.00    +0.292 HD
ENDBRANCH  19  24
BRANCH  18  26
ATOM     26  O   UNL     1      34.676 -15.323 -22.688  0.00  0.00    -0.476 OA
BRANCH  26  28
ATOM     27  C   UNL     1      33.392 -13.423 -23.458  0.00  0.00    +0.040 C 
ATOM     28  C   UNL     1      33.533 -14.525 -22.393  0.00  0.00    +0.166 C 
ATOM     29  C   UNL     1      32.252 -12.459 -23.100  0.00  0.00    +0.004 C 
ATOM     30  C   UNL     1      33.690 -13.934 -20.990  0.00  0.00    +0.044 C 
ATOM     31  C   UNL     1      32.419 -11.879 -21.698  0.00  0.00    +0.000 C 
ATOM     32  C   UNL     1      32.556 -12.975 -20.648  0.00  0.00    +0.004 C 
ATOM     33  C   UNL     1      33.168 -14.018 -24.851  0.00  0.00    +0.004 C 
ENDBRANCH  26  28
ENDBRANCH  18  26
ENDBRANCH   3  20
TORSDOF 5
ENDMDL
MODEL 2
REMARK VINA RESULT:     -13.2      4.541      7.801
REMARK  Name = 445849
REMARK  5 active torsions:
REMARK  status: ('A' for Active; 'I' for Inactive)
REMARK    1  A    between atoms: C_3  and  C_20
REMARK    2  A    between atoms: C_9  and  C_14
REMARK    3  A    between atoms: C_18  and  O_26
REMARK    4  A    between atoms: C_19  and  O_24
REMARK    5  A    between atoms: O_26  and  C_28
REMARK                            x       y       z     vdW  Elec       q    Type
REMARK                         _______ _______ _______ _____ _____    ______ ____
ROOT
ATOM      1  F   UNL     1      34.934 -18.070 -23.882  0.00  0.00    -0.204 F 
ATOM      2  N   UNL     1      32.905 -13.701 -23.197  0.00  0.00    -0.312 N 
ATOM      3  C   UNL     1      32.779 -12.928 -22.075  0.00  0.00    +0.051 C 
ATOM      4  C   UNL     1      33.860 -14.834 -21.530  0.00  0.00    +0.015 C 
ATOM      5  C   UNL     1      33.561 -14.872 -22.894  0.00  0.00    +0.051 C 
ATOM      6  C   UNL     1      33.360 -13.601 -21.028  0.00  0.00    +0.016 C 
ATOM      7  C   UNL     1      34.541 -15.925 -20.955  0.00  0.00    +0.006 C 
ATOM      8  C   UNL     1      33.911 -15.951 -23.714  0.00  0.00    +0.044 C 
ATOM      9  C   UNL     1      34.896 -17.011 -21.763  0.00  0.00    +0.058 C 
ATOM     10  C   UNL     1      34.585 -17.022 -23.121  0.00  0.00    +0.144 C 
ATOM     11  H   UNL     1      32.573 -13.456 -24.092  0.00  0.00    +0.152 HD
ENDROOT
BRANCH   9  14
ATOM     12  N   UNL     1      34.907 -19.188 -20.567  0.00  0.00    -0.343 N 
ATOM     13  N   UNL     1      36.920 -18.178 -21.194  0.00  0.00    -0.285 NA
ATOM     14  C   UNL     1      35.599 -18.140 -21.170  0.00  0.00    +0.119 C 
ATOM     15  H   UNL     1      35.402 -19.942 -20.172  0.00  0.00    +0.144 HD
ATOM     16  H   UNL     1      33.923 -19.175 -20.537  0.00  0.00    +0.144 HD
ATOM     17  H   UNL     1      37.397 -18.941 -20.794  0.00  0.00    +0.188 HD
ENDBRANCH   9  14
BRANCH   3  20
ATOM     18  C   UNL     1      32.007  -9.352 -22.857  0.00  0.00    +0.172 C 
ATOM     19  C   UNL     1      32.655 -10.584 -22.847  0.00  0.00    +0.169 C 
ATOM     20  C   UNL     1      32.126 -11.639 -22.104  0.00  0.00    +0.050 C 
ATOM     21  C   UNL     1      30.834  -9.166 -22.131  0.00  0.00    +0.040 C 
ATOM     22  C   UNL     1      30.952 -11.458 -21.374  0.00  0.00    +0.004 C 
ATOM     23  C   UNL     1      30.305 -10.222 -21.387  0.00  0.00    +0.003 C 
BRANCH  19  24
ATOM     24  O   UNL     1      33.804 -10.746 -23.567  0.00  0.00    -0.503 OA
ATOM     25  H   UNL     1      33.762 -11.037 -24.457  0.00  0.00    +0.292 HD
ENDBRANCH  19  24
BRANCH  18  26
ATOM     26  O   UNL     1      32.514  -8.308 -23.582  0.00  0.00    -0.476 OA
BRANCH  26  28
ATOM     27  C   UNL     1      31.779  -6.289 -24.694  0.00  0.00    +0.040 C 
ATOM     28  C   UNL     1      31.930  -7.028 -23.353  0.00  0.00    +0.166 C 
ATOM     29  C   UNL     1      31.281  -4.854 -24.475  0.00  0.00    +0.004 C 
ATOM     30  C   UNL     1      32.815  -6.248 -22.378  0.00  0.00    +0.044 C 
ATOM     31  C   UNL     1      32.170  -4.087 -23.499  0.00  0.00    +0.000 C 
ATOM     32  C   UNL     1      32.314  -4.823 -22.172  0.00  0.00    +0.004 C 
ATOM     33  C   UNL     1      30.839  -7.039 -25.642  0.00  0.00    +0.004 C 
ENDBRANCH  26  28
ENDBRANCH  18  26
ENDBRANCH   3  20
TORSDOF 5
ENDMDL
MODEL 3
REMARK VINA RESULT:     -13.0      2.246      4.145
REMARK  Name = 445849
REMARK  5 active torsions:
REMARK  status: ('A' for Active; 'I' for Inactive)
REMARK    1  A    between atoms: C_3  and  C_20
REMARK    2  A    between atoms: C_9  and  C_14
REMARK    3  A    between atoms: C_18  and  O_26
REMARK    4  A    between atoms: C_19  and  O_24
REMARK    5  A    between atoms: O_26  and  C_28
REMARK                            x       y       z     vdW  Elec       q    Type
REMARK                         _______ _______ _______ _____ _____    ______ ____
ROOT
ATOM      1  F   UNL     1      38.461 -23.784 -13.404  0.00  0.00    -0.204 F 
ATOM      2  N   UNL     1      35.822 -21.830 -16.995  0.00  0.00    -0.312 N 
ATOM      3  C   UNL     1      34.518 -22.018 -17.365  0.00  0.00    +0.051 C 
ATOM      4  C   UNL     1      34.964 -23.321 -15.574  0.00  0.00    +0.015 C 
ATOM      5  C   UNL     1      36.122 -22.614 -15.903  0.00  0.00    +0.051 C 
ATOM      6  C   UNL     1      33.960 -22.934 -16.505  0.00  0.00    +0.016 C 
ATOM      7  C   UNL     1      34.998 -24.206 -14.478  0.00  0.00    +0.006 C 
ATOM      8  C   UNL     1      37.318 -22.749 -15.190  0.00  0.00    +0.044 C 
ATOM      9  C   UNL     1      36.187 -24.352 -13.756  0.00  0.00    +0.058 C 
ATOM     10  C   UNL     1      37.329 -23.633 -14.107  0.00  0.00    +0.144 C 
ATOM     11  H   UNL     1      36.454 -21.224 -17.445  0.00  0.00    +0.152 HD
ENDROOT
BRANCH   9  14
ATOM     12  N   UNL     1      36.801 -26.531 -12.735  0.00  0.00    -0.343 N 
ATOM     13  N   UNL     1      35.702 -24.903 -11.467  0.00  0.00    -0.285 NA
ATOM     14  C   UNL     1      36.226 -25.267 -12.625  0.00  0.00    +0.119 C 
ATOM     15  H   UNL     1      36.816 -27.134 -11.957  0.00  0.00    +0.144 HD
ATOM     16  H   UNL     1      37.194 -26.820 -13.590  0.00  0.00    +0.144 HD
ATOM     17  H   UNL     1      35.726 -25.521 -10.700  0.00  0.00    +0.188 HD
ENDBRANCH   9  14
BRANCH   3  20
ATOM     18  C   UNL     1      34.134 -19.899 -20.423  0.00  0.00    +0.172 C 
ATOM     19  C   UNL     1      34.723 -20.563 -19.351  0.00  0.00    +0.169 C 
ATOM     20  C   UNL     1      33.932 -21.320 -18.486  0.00  0.00    +0.050 C 
ATOM     21  C   UNL     1      32.762 -19.986 -20.639  0.00  0.00    +0.040 C 
ATOM     22  C   UNL     1      32.557 -21.409 -18.697  0.00  0.00    +0.004 C 
ATOM     23  C   UNL     1      31.971 -20.743 -19.773  0.00  0.00    +0.003 C 
BRANCH  19  24
ATOM     24  O   UNL     1      36.071 -20.466 -19.157  0.00  0.00    -0.503 OA
ATOM     25  H   UNL     1      36.659 -20.930 -19.720  0.00  0.00    +0.292 HD
ENDBRANCH  19  24
BRANCH  18  26
ATOM     26  O   UNL     1      34.897 -19.153 -21.280  0.00  0.00    -0.476 OA
BRANCH  26  28
ATOM     27  C   UNL     1      34.606 -17.903 -23.331  0.00  0.00    +0.040 C 
ATOM     28  C   UNL     1      34.287 -17.987 -21.827  0.00  0.00    +0.166 C 
ATOM     29  C   UNL     1      34.082 -16.589 -23.928  0.00  0.00    +0.004 C 
ATOM     30  C   UNL     1      34.804 -16.759 -21.074  0.00  0.00    +0.044 C 
ATOM     31  C   UNL     1      34.602 -15.373 -23.167  0.00  0.00    +0.000 C 
ATOM     32  C   UNL     1      34.282 -15.461 -21.679  0.00  0.00    +0.004 C 
ATOM     33  C   UNL     1      34.029 -19.100 -24.091  0.00  0.00    +0.004 C 
ENDBRANCH  26  28
ENDBRANCH  18  26
ENDBRANCH   3  20
TORSDOF 5
ENDMDL
MODEL 4
REMARK VINA RESULT:     -12.4      3.944     10.039
REMARK  Name = 445849
REMARK  5 active torsions:
REMARK  status: ('A' for Active; 'I' for Inactive)
REMARK    1  A    between atoms: C_3  and  C_20
REMARK    2  A    between atoms: C_9  and  C_14
REMARK    3  A    between atoms: C_18  and  O_26
REMARK    4  A    between atoms: C_19  and  O_24
REMARK    5  A    between atoms: O_26  and  C_28
REMARK                            x       y       z     vdW  Elec       q    Type
REMARK                         _______ _______ _______ _____ _____    ______ ____
ROOT
ATOM      1  F   UNL     1      36.777 -17.599 -22.554  0.00  0.00    -0.204 F 
ATOM      2  N   UNL     1      35.725 -20.550 -18.830  0.00  0.00    -0.312 N 
ATOM      3  C   UNL     1      34.566 -21.187 -18.481  0.00  0.00    +0.051 C 
ATOM      4  C   UNL     1      34.204 -19.997 -20.366  0.00  0.00    +0.015 C 
ATOM      5  C   UNL     1      35.533 -19.814 -19.979  0.00  0.00    +0.051 C 
ATOM      6  C   UNL     1      33.607 -20.866 -19.411  0.00  0.00    +0.016 C 
ATOM      7  C   UNL     1      33.741 -19.347 -21.528  0.00  0.00    +0.006 C 
ATOM      8  C   UNL     1      36.426 -19.011 -20.697  0.00  0.00    +0.044 C 
ATOM      9  C   UNL     1      34.623 -18.540 -22.255  0.00  0.00    +0.058 C 
ATOM     10  C   UNL     1      35.944 -18.376 -21.844  0.00  0.00    +0.144 C 
ATOM     11  H   UNL     1      36.573 -20.607 -18.332  0.00  0.00    +0.152 HD
ENDROOT
BRANCH   9  14
ATOM     12  N   UNL     1      34.412 -16.518 -23.681  0.00  0.00    -0.343 N 
ATOM     13  N   UNL     1      33.443 -18.537 -24.349  0.00  0.00    -0.285 NA
ATOM     14  C   UNL     1      34.147 -17.867 -23.454  0.00  0.00    +0.119 C 
ATOM     15  H   UNL     1      34.080 -16.082 -24.499  0.00  0.00    +0.144 HD
ATOM     16  H   UNL     1      34.932 -16.001 -23.024  0.00  0.00    +0.144 HD
ATOM     17  H   UNL     1      33.119 -18.084 -25.161  0.00  0.00    +0.188 HD
ENDBRANCH   9  14
BRANCH   3  20
ATOM     18  C   UNL     1      35.403 -22.885 -15.255  0.00  0.00    +0.172 C 
ATOM     19  C   UNL     1      35.512 -22.064 -16.374  0.00  0.00    +0.169 C 
ATOM     20  C   UNL     1      34.479 -22.030 -17.311  0.00  0.00    +0.050 C 
ATOM     21  C   UNL     1      34.272 -23.672 -15.065  0.00  0.00    +0.040 C 
ATOM     22  C   UNL     1      33.343 -22.818 -17.125  0.00  0.00    +0.004 C 
ATOM     23  C   UNL     1      33.239 -23.639 -16.002  0.00  0.00    +0.003 C 
BRANCH  19  24
ATOM     24  O   UNL     1      36.630 -21.298 -16.541  0.00  0.00    -0.503 OA
ATOM     25  H   UNL     1      37.450 -21.583 -16.189  0.00  0.00    +0.292 HD
ENDBRANCH  19  24
BRANCH  18  26
ATOM     26  O   UNL     1      36.409 -22.928 -14.327  0.00  0.00    -0.476 OA
BRANCH  26  28
ATOM     27  C   UNL     1      37.587 -24.513 -12.930  0.00  0.00    +0.040 C 
ATOM     28  C   UNL     1      37.266 -24.066 -14.367  0.00  0.00    +0.166 C 
ATOM     29  C   UNL     1      38.617 -25.651 -12.928  0.00  0.00    +0.004 C 
ATOM     30  C   UNL     1      38.537 -23.702 -15.138  0.00  0.00    +0.044 C 
ATOM     31  C   UNL     1      39.878 -25.277 -13.702  0.00  0.00    +0.000 C 
ATOM     32  C   UNL     1      39.553 -24.837 -15.125  0.00  0.00    +0.004 C 
ATOM     33  C   UNL     1      36.320 -24.941 -12.182  0.00  0.00    +0.004 C 
ENDBRANCH  26  28
ENDBRANCH  18  26
ENDBRANCH   3  20
TORSDOF 5
ENDMDL
MODEL 5
REMARK VINA RESULT:     -11.7      3.344      5.189
REMARK  Name = 445849
REMARK  5 active torsions:
REMARK  status: ('A' for Active; 'I' for Inactive)
REMARK    1  A    between atoms: C_3  and  C_20
REMARK    2  A    between atoms: C_9  and  C_14
REMARK    3  A    between atoms: C_18  and  O_26
REMARK    4  A    between atoms: C_19  and  O_24
REMARK    5  A    between atoms: O_26  and  C_28
REMARK                            x       y       z     vdW  Elec       q    Type
REMARK                         _______ _______ _______ _____ _____    ______ ____
ROOT
ATOM      1  F   UNL     1      27.739 -23.238 -15.194  0.00  0.00    -0.204 F 
ATOM      2  N   UNL     1      31.583 -21.714 -17.759  0.00  0.00    -0.312 N 
ATOM      3  C   UNL     1      32.916 -22.003 -17.649  0.00  0.00    +0.051 C 
ATOM      4  C   UNL     1      31.789 -23.138 -16.054  0.00  0.00    +0.015 C 
ATOM      5  C   UNL     1      30.870 -22.394 -16.797  0.00  0.00    +0.051 C 
ATOM      6  C   UNL     1      33.076 -22.882 -16.604  0.00  0.00    +0.016 C 
ATOM      7  C   UNL     1      31.316 -23.936 -14.993  0.00  0.00    +0.006 C 
ATOM      8  C   UNL     1      29.496 -22.407 -16.530  0.00  0.00    +0.044 C 
ATOM      9  C   UNL     1      29.945 -23.958 -14.715  0.00  0.00    +0.058 C 
ATOM     10  C   UNL     1      29.050 -23.204 -15.473  0.00  0.00    +0.144 C 
ATOM     11  H   UNL     1      31.191 -21.108 -18.428  0.00  0.00    +0.152 HD
ENDROOT
BRANCH   9  14
ATOM     12  N   UNL     1      28.472 -25.748 -13.822  0.00  0.00    -0.343 N 
ATOM     13  N   UNL     1      29.938 -24.609 -12.401  0.00  0.00    -0.285 NA
ATOM     14  C   UNL     1      29.454 -24.780 -13.619  0.00  0.00    +0.119 C 
ATOM     15  H   UNL     1      28.154 -26.293 -13.067  0.00  0.00    +0.144 HD
ATOM     16  H   UNL     1      28.097 -25.887 -14.722  0.00  0.00    +0.144 HD
ATOM     17  H   UNL     1      29.607 -25.164 -11.658  0.00  0.00    +0.188 HD
ENDBRANCH   9  14
BRANCH   3  20
ATOM     18  C   UNL     1      34.505 -20.398 -20.630  0.00  0.00    +0.172 C 
ATOM     19  C   UNL     1      33.538 -20.951 -19.796  0.00  0.00    +0.169 C 
ATOM     20  C   UNL     1      33.900 -21.425 -18.535  0.00  0.00    +0.050 C 
ATOM     21  C   UNL     1      35.831 -20.315 -20.215  0.00  0.00    +0.040 C 
ATOM     22  C   UNL     1      35.227 -21.344 -18.114  0.00  0.00    +0.004 C 
ATOM     23  C   UNL     1      36.193 -20.790 -18.954  0.00  0.00    +0.003 C 
BRANCH  19  24
ATOM     24  O   UNL     1      32.243 -21.022 -20.222  0.00  0.00    -0.503 OA
ATOM     25  H   UNL     1      31.791 -21.843 -20.214  0.00  0.00    +0.292 HD
ENDBRANCH  19  24
BRANCH  18  26
ATOM     26  O   UNL     1      34.165 -19.929 -21.870  0.00  0.00    -0.476 OA
BRANCH  26  28
ATOM     27  C   UNL     1      34.121 -18.060 -23.406  0.00  0.00    +0.040 C 
ATOM     28  C   UNL     1      33.864 -18.539 -21.967  0.00  0.00    +0.166 C 
ATOM     29  C   UNL     1      33.939 -16.540 -23.518  0.00  0.00    +0.004 C 
ATOM     30  C   UNL     1      34.724 -17.775 -20.958  0.00  0.00    +0.044 C 
ATOM     31  C   UNL     1      34.800 -15.790 -22.505  0.00  0.00    +0.000 C 
ATOM     32  C   UNL     1      34.539 -16.267 -21.081  0.00  0.00    +0.004 C 
ATOM     33  C   UNL     1      33.210 -18.780 -24.405  0.00  0.00    +0.004 C 
ENDBRANCH  26  28
ENDBRANCH  18  26
ENDBRANCH   3  20
TORSDOF 5
ENDMDL
MODEL 6
REMARK VINA RESULT:     -11.6      3.971      9.759
REMARK  Name = 445849
REMARK  5 active torsions:
REMARK  status: ('A' for Active; 'I' for Inactive)
REMARK    1  A    between atoms: C_3  and  C_20
REMARK    2  A    between atoms: C_9  and  C_14
REMARK    3  A    between atoms: C_18  and  O_26
REMARK    4  A    between atoms: C_19  and  O_24
REMARK    5  A    between atoms: O_26  and  C_28
REMARK                            x       y       z     vdW  Elec       q    Type
REMARK                         _______ _______ _______ _____ _____    ______ ____
ROOT
ATOM      1  F   UNL     1      36.822 -18.252 -22.172  0.00  0.00    -0.204 F 
ATOM      2  N   UNL     1      34.912 -21.012 -18.648  0.00  0.00    -0.312 N 
ATOM      3  C   UNL     1      33.620 -21.374 -18.383  0.00  0.00    +0.051 C 
ATOM      4  C   UNL     1      33.648 -20.063 -20.222  0.00  0.00    +0.015 C 
ATOM      5  C   UNL     1      34.960 -20.210 -19.767  0.00  0.00    +0.051 C 
ATOM      6  C   UNL     1      32.814 -20.804 -19.339  0.00  0.00    +0.016 C 
ATOM      7  C   UNL     1      33.413 -19.281 -21.370  0.00  0.00    +0.006 C 
ATOM      8  C   UNL     1      36.053 -19.611 -20.404  0.00  0.00    +0.044 C 
ATOM      9  C   UNL     1      34.495 -18.675 -22.017  0.00  0.00    +0.058 C 
ATOM     10  C   UNL     1      35.795 -18.839 -21.540  0.00  0.00    +0.144 C 
ATOM     11  H   UNL     1      35.695 -21.284 -18.116  0.00  0.00    +0.152 HD
ENDROOT
BRANCH   9  14
ATOM     12  N   UNL     1      34.649 -16.530 -23.259  0.00  0.00    -0.343 N 
ATOM     13  N   UNL     1      33.645 -18.395 -24.248  0.00  0.00    -0.285 NA
ATOM     14  C   UNL     1      34.255 -17.865 -23.202  0.00  0.00    +0.119 C 
ATOM     15  H   UNL     1      34.476 -16.000 -24.070  0.00  0.00    +0.144 HD
ATOM     16  H   UNL     1      35.101 -16.116 -22.488  0.00  0.00    +0.144 HD
ATOM     17  H   UNL     1      33.481 -17.848 -25.050  0.00  0.00    +0.188 HD
ENDBRANCH   9  14
BRANCH   3  20
ATOM     18  C   UNL     1      33.909 -23.665 -15.440  0.00  0.00    +0.172 C 
ATOM     19  C   UNL     1      34.267 -22.859 -16.517  0.00  0.00    +0.169 C 
ATOM     20  C   UNL     1      33.276 -22.216 -17.261  0.00  0.00    +0.050 C 
ATOM     21  C   UNL     1      32.570 -23.835 -15.101  0.00  0.00    +0.040 C 
ATOM     22  C   UNL     1      31.934 -22.384 -16.925  0.00  0.00    +0.004 C 
ATOM     23  C   UNL     1      31.580 -23.193 -15.845  0.00  0.00    +0.003 C 
BRANCH  19  24
ATOM     24  O   UNL     1      35.586 -22.704 -16.833  0.00  0.00    -0.503 OA
ATOM     25  H   UNL     1      35.889 -22.910 -17.695  0.00  0.00    +0.292 HD
ENDBRANCH  19  24
BRANCH  18  26
ATOM     26  O   UNL     1      34.870 -24.301 -14.701  0.00  0.00    -0.476 OA
BRANCH  26  28
ATOM     27  C   UNL     1      36.844 -24.037 -13.328  0.00  0.00    +0.040 C 
ATOM     28  C   UNL     1      35.396 -23.586 -13.586  0.00  0.00    +0.166 C 
ATOM     29  C   UNL     1      37.399 -23.390 -12.052  0.00  0.00    +0.004 C 
ATOM     30  C   UNL     1      34.503 -23.839 -12.370  0.00  0.00    +0.044 C 
ATOM     31  C   UNL     1      36.499 -23.648 -10.847  0.00  0.00    +0.000 C 
ATOM     32  C   UNL     1      35.066 -23.196 -11.108  0.00  0.00    +0.004 C 
ATOM     33  C   UNL     1      37.749 -23.721 -14.522  0.00  0.00    +0.004 C 
ENDBRANCH  26  28
ENDBRANCH  18  26
ENDBRANCH   3  20
TORSDOF 5
ENDMDL
MODEL 7
REMARK VINA RESULT:     -11.5      5.065      8.566
REMARK  Name = 445849
REMARK  5 active torsions:
REMARK  status: ('A' for Active; 'I' for Inactive)
REMARK    1  A    between atoms: C_3  and  C_20
REMARK    2  A    between atoms: C_9  and  C_14
REMARK    3  A    between atoms: C_18  and  O_26
REMARK    4  A    between atoms: C_19  and  O_24
REMARK    5  A    between atoms: O_26  and  C_28
REMARK                            x       y       z     vdW  Elec       q    Type
REMARK                         _______ _______ _______ _____ _____    ______ ____
ROOT
ATOM      1  F   UNL     1      34.121 -17.556 -24.989  0.00  0.00    -0.204 F 
ATOM      2  N   UNL     1      32.663 -13.068 -23.802  0.00  0.00    -0.312 N 
ATOM      3  C   UNL     1      32.786 -12.354 -22.641  0.00  0.00    +0.051 C 
ATOM      4  C   UNL     1      33.744 -14.380 -22.357  0.00  0.00    +0.015 C 
ATOM      5  C   UNL     1      33.239 -14.310 -23.657  0.00  0.00    +0.051 C 
ATOM      6  C   UNL     1      33.451 -13.138 -21.729  0.00  0.00    +0.016 C 
ATOM      7  C   UNL     1      34.393 -15.560 -21.945  0.00  0.00    +0.006 C 
ATOM      8  C   UNL     1      33.351 -15.366 -24.569  0.00  0.00    +0.044 C 
ATOM      9  C   UNL     1      34.512 -16.625 -22.846  0.00  0.00    +0.058 C 
ATOM     10  C   UNL     1      33.998 -16.527 -24.138  0.00  0.00    +0.144 C 
ATOM     11  H   UNL     1      32.225 -12.741 -24.621  0.00  0.00    +0.152 HD
ENDROOT
BRANCH   9  14
ATOM     12  N   UNL     1      36.546 -17.864 -22.142  0.00  0.00    -0.343 N 
ATOM     13  N   UNL     1      34.490 -18.966 -22.302  0.00  0.00    -0.285 NA
ATOM     14  C   UNL     1      35.181 -17.845 -22.422  0.00  0.00    +0.119 C 
ATOM     15  H   UNL     1      36.978 -18.701 -21.856  0.00  0.00    +0.144 HD
ATOM     16  H   UNL     1      37.077 -17.040 -22.228  0.00  0.00    +0.144 HD
ATOM     17  H   UNL     1      34.941 -19.793 -22.015  0.00  0.00    +0.188 HD
ENDBRANCH   9  14
BRANCH   3  20
ATOM     18  C   UNL     1      32.456  -8.635 -22.864  0.00  0.00    +0.172 C 
ATOM     19  C   UNL     1      32.978  -9.918 -23.004  0.00  0.00    +0.169 C 
ATOM     20  C   UNL     1      32.268 -11.012 -22.509  0.00  0.00    +0.050 C 
ATOM     21  C   UNL     1      31.231  -8.437 -22.234  0.00  0.00    +0.040 C 
ATOM     22  C   UNL     1      31.041 -10.818 -21.876  0.00  0.00    +0.004 C 
ATOM     23  C   UNL     1      30.521  -9.531 -21.738  0.00  0.00    +0.003 C 
BRANCH  19  24
ATOM     24  O   UNL     1      34.180 -10.091 -23.626  0.00  0.00    -0.503 OA
ATOM     25  H   UNL     1      34.216 -10.198 -24.556  0.00  0.00    +0.292 HD
ENDBRANCH  19  24
BRANCH  18  26
ATOM     26  O   UNL     1      33.141  -7.552 -23.345  0.00  0.00    -0.476 OA
BRANCH  26  28
ATOM     27  C   UNL     1      33.351  -5.557 -24.697  0.00  0.00    +0.040 C 
ATOM     28  C   UNL     1      32.397  -6.622 -24.129  0.00  0.00    +0.166 C 
ATOM     29  C   UNL     1      32.570  -4.460 -25.434  0.00  0.00    +0.004 C 
ATOM     30  C   UNL     1      31.311  -5.994 -23.253  0.00  0.00    +0.044 C 
ATOM     31  C   UNL     1      31.488  -3.844 -24.551  0.00  0.00    +0.000 C 
ATOM     32  C   UNL     1      30.546  -4.904 -23.993  0.00  0.00    +0.004 C 
ATOM     33  C   UNL     1      34.396  -6.182 -25.626  0.00  0.00    +0.004 C 
ENDBRANCH  26  28
ENDBRANCH  18  26
ENDBRANCH   3  20
TORSDOF 5
ENDMDL
MODEL 8
REMARK VINA RESULT:     -11.5      4.572      9.446
REMARK  Name = 445849
REMARK  5 active torsions:
REMARK  status: ('A' for Active; 'I' for Inactive)
REMARK    1  A    between atoms: C_3  and  C_20
REMARK    2  A    between atoms: C_9  and  C_14
REMARK    3  A    between atoms: C_18  and  O_26
REMARK    4  A    between atoms: C_19  and  O_24
REMARK    5  A    between atoms: O_26  and  C_28
REMARK                            x       y       z     vdW  Elec       q    Type
REMARK                         _______ _______ _______ _____ _____    ______ ____
ROOT
ATOM      1  F   UNL     1      31.141 -10.084 -20.356  0.00  0.00    -0.204 F 
ATOM      2  N   UNL     1      32.957 -14.455 -21.482  0.00  0.00    -0.312 N 
ATOM      3  C   UNL     1      33.635 -14.896 -22.586  0.00  0.00    +0.051 C 
ATOM      4  C   UNL     1      33.144 -12.708 -22.857  0.00  0.00    +0.015 C 
ATOM      5  C   UNL     1      32.643 -13.122 -21.620  0.00  0.00    +0.051 C 
ATOM      6  C   UNL     1      33.768 -13.839 -23.454  0.00  0.00    +0.016 C 
ATOM      7  C   UNL     1      32.958 -11.368 -23.249  0.00  0.00    +0.006 C 
ATOM      8  C   UNL     1      31.962 -12.259 -20.754  0.00  0.00    +0.044 C 
ATOM      9  C   UNL     1      32.278 -10.494 -22.394  0.00  0.00    +0.058 C 
ATOM     10  C   UNL     1      31.789 -10.935 -21.165  0.00  0.00    +0.144 C 
ATOM     11  H   UNL     1      32.725 -15.012 -20.703  0.00  0.00    +0.152 HD
ENDROOT
BRANCH   9  14
ATOM     12  N   UNL     1      33.164  -8.282 -23.095  0.00  0.00    -0.343 N 
ATOM     13  N   UNL     1      30.860  -8.616 -22.882  0.00  0.00    -0.285 NA
ATOM     14  C   UNL     1      32.083  -9.110 -22.798  0.00  0.00    +0.119 C 
ATOM     15  H   UNL     1      33.010  -7.349 -23.366  0.00  0.00    +0.144 HD
ATOM     16  H   UNL     1      34.083  -8.632 -23.034  0.00  0.00    +0.144 HD
ATOM     17  H   UNL     1      30.726  -7.679 -23.155  0.00  0.00    +0.188 HD
ENDBRANCH   9  14
BRANCH   3  20
ATOM     18  C   UNL     1      35.023 -18.269 -21.756  0.00  0.00    +0.172 C 
ATOM     19  C   UNL     1      34.594 -16.953 -21.609  0.00  0.00    +0.169 C 
ATOM     20  C   UNL     1      34.088 -16.262 -22.710  0.00  0.00    +0.050 C 
ATOM     21  C   UNL     1      34.953 -18.900 -22.994  0.00  0.00    +0.040 C 
ATOM     22  C   UNL     1      34.016 -16.890 -23.953  0.00  0.00    +0.004 C 
ATOM     23  C   UNL     1      34.447 -18.209 -24.096  0.00  0.00    +0.003 C 
BRANCH  19  24
ATOM     24  O   UNL     1      34.671 -16.352 -20.385  0.00  0.00    -0.503 OA
ATOM     25  H   UNL     1      34.891 -15.444 -20.322  0.00  0.00    +0.292 HD
ENDBRANCH  19  24
BRANCH  18  26
ATOM     26  O   UNL     1      35.521 -18.959 -20.683  0.00  0.00    -0.476 OA
BRANCH  26  28
ATOM     27  C   UNL     1      35.138 -20.961 -19.380  0.00  0.00    +0.040 C 
ATOM     28  C   UNL     1      34.570 -19.608 -19.844  0.00  0.00    +0.166 C 
ATOM     29  C   UNL     1      34.089 -21.752 -18.586  0.00  0.00    +0.004 C 
ATOM     30  C   UNL     1      33.263 -19.784 -20.621  0.00  0.00    +0.044 C 
ATOM     31  C   UNL     1      32.790 -21.918 -19.370  0.00  0.00    +0.000 C 
ATOM     32  C   UNL     1      32.232 -20.575 -19.825  0.00  0.00    +0.004 C 
ATOM     33  C   UNL     1      36.409 -20.776 -18.546  0.00  0.00    +0.004 C 
ENDBRANCH  26  28
ENDBRANCH  18  26
ENDBRANCH   3  20
TORSDOF 5
ENDMDL
MODEL 9
REMARK VINA RESULT:     -11.0      4.944      8.260
REMARK  Name = 445849
REMARK  5 active torsions:
REMARK  status: ('A' for Active; 'I' for Inactive)
REMARK    1  A    between atoms: C_3  and  C_20
REMARK    2  A    between atoms: C_9  and  C_14
REMARK    3  A    between atoms: C_18  and  O_26
REMARK    4  A    between atoms: C_19  and  O_24
REMARK    5  A    between atoms: O_26  and  C_28
REMARK                            x       y       z     vdW  Elec       q    Type
REMARK                         _______ _______ _______ _____ _____    ______ ____
ROOT
ATOM      1  F   UNL     1      35.062 -17.335 -20.228  0.00  0.00    -0.204 F 
ATOM      2  N   UNL     1      33.051 -13.001 -21.148  0.00  0.00    -0.312 N 
ATOM      3  C   UNL     1      32.667 -12.413 -22.322  0.00  0.00    +0.051 C 
ATOM      4  C   UNL     1      33.520 -14.455 -22.774  0.00  0.00    +0.015 C 
ATOM      5  C   UNL     1      33.577 -14.250 -21.393  0.00  0.00    +0.051 C 
ATOM      6  C   UNL     1      32.942 -13.288 -23.346  0.00  0.00    +0.016 C 
ATOM      7  C   UNL     1      33.999 -15.672 -23.298  0.00  0.00    +0.006 C 
ATOM      8  C   UNL     1      34.092 -15.203 -20.508  0.00  0.00    +0.044 C 
ATOM      9  C   UNL     1      34.518 -16.635 -22.425  0.00  0.00    +0.058 C 
ATOM     10  C   UNL     1      34.563 -16.402 -21.051  0.00  0.00    +0.144 C 
ATOM     11  H   UNL     1      32.966 -12.590 -20.257  0.00  0.00    +0.152 HD
ENDROOT
BRANCH   9  14
ATOM     12  N   UNL     1      34.200 -18.726 -23.726  0.00  0.00    -0.343 N 
ATOM     13  N   UNL     1      36.262 -18.261 -22.728  0.00  0.00    -0.285 NA
ATOM     14  C   UNL     1      35.015 -17.891 -22.964  0.00  0.00    +0.119 C 
ATOM     15  H   UNL     1      34.557 -19.572 -24.082  0.00  0.00    +0.144 HD
ATOM     16  H   UNL     1      33.268 -18.469 -23.910  0.00  0.00    +0.144 HD
ATOM     17  H   UNL     1      36.601 -19.111 -23.092  0.00  0.00    +0.188 HD
ENDBRANCH   9  14
BRANCH   3  20
ATOM     18  C   UNL     1      32.155  -8.772 -23.009  0.00  0.00    +0.172 C 
ATOM     19  C   UNL     1      32.741 -10.034 -22.986  0.00  0.00    +0.169 C 
ATOM     20  C   UNL     1      32.081 -11.093 -22.361  0.00  0.00    +0.050 C 
ATOM     21  C   UNL     1      30.916  -8.559 -22.413  0.00  0.00    +0.040 C 
ATOM     22  C   UNL     1      30.839 -10.884 -21.762  0.00  0.00    +0.004 C 
ATOM     23  C   UNL     1      30.256  -9.618 -21.788  0.00  0.00    +0.003 C 
BRANCH  19  24
ATOM     24  O   UNL     1      33.957 -10.223 -23.577  0.00  0.00    -0.503 OA
ATOM     25  H   UNL     1      34.119  -9.884 -24.435  0.00  0.00    +0.292 HD
ENDBRANCH  19  24
BRANCH  18  26
ATOM     26  O   UNL     1      32.791  -7.724 -23.619  0.00  0.00    -0.476 OA
BRANCH  26  28
ATOM     27  C   UNL     1      32.028  -5.907 -25.022  0.00  0.00    +0.040 C 
ATOM     28  C   UNL     1      32.119  -6.467 -23.592  0.00  0.00    +0.166 C 
ATOM     29  C   UNL     1      31.434  -4.492 -25.019  0.00  0.00    +0.004 C 
ATOM     30  C   UNL     1      32.881  -5.518 -22.664  0.00  0.00    +0.044 C 
ATOM     31  C   UNL     1      32.201  -3.556 -24.089  0.00  0.00    +0.000 C 
ATOM     32  C   UNL     1      32.286  -4.116 -22.673  0.00  0.00    +0.004 C 
ATOM     33  C   UNL     1      31.207  -6.827 -25.930  0.00  0.00    +0.004 C 
ENDBRANCH  26  28
ENDBRANCH  18  26
ENDBRANCH   3  20
TORSDOF 5
ENDMDL
