MODEL 1
REMARK VINA RESULT:     -12.3      0.000      0.000
REMARK  Name = 24864553
REMARK  7 active torsions:
REMARK  status: ('A' for Active; 'I' for Inactive)
REMARK    1  A    between atoms: C_1  and  C_11
REMARK    2  A    between atoms: C_3  and  N_25
REMARK    3  A    between atoms: C_15  and  O_20
REMARK    4  A    between atoms: C_16  and  O_22
REMARK    5  A    between atoms: C_26  and  C_28
REMARK    6  A    between atoms: C_31  and  C_35
REMARK    7  A    between atoms: C_35  and  O_36
REMARK                            x       y       z     vdW  Elec       q    Type
REMARK                         _______ _______ _______ _____ _____    ______ ____
ROOT
ATOM      1  C   UNL     1      35.683 -22.613 -15.119  0.00  0.00    +0.032 C 
ATOM      2  C   UNL     1      35.363 -21.824 -16.224  0.00  0.00    +0.017 C 
ATOM      3  C   UNL     1      36.372 -21.373 -17.075  0.00  0.00    +0.051 C 
ATOM      4  C   UNL     1      37.011 -22.953 -14.865  0.00  0.00    +0.003 C 
ATOM      5  C   UNL     1      37.701 -21.713 -16.821  0.00  0.00    +0.015 C 
ATOM      6  C   UNL     1      38.021 -22.503 -15.717  0.00  0.00    +0.001 C 
ENDROOT
BRANCH   1  11
ATOM      7  N   UNL     1      35.101 -23.478 -13.037  0.00  0.00    -0.328 NA
ATOM      8  N   UNL     1      32.833 -24.000 -12.413  0.00  0.00    -0.332 NA
ATOM      9  N   UNL     1      34.608 -24.348 -10.918  0.00  0.00    -0.257 N 
ATOM     10  C   UNL     1      33.290 -23.114 -14.594  0.00  0.00    +0.060 C 
ATOM     11  C   UNL     1      34.634 -23.081 -14.235  0.00  0.00    +0.147 C 
ATOM     12  C   UNL     1      32.400 -23.596 -13.620  0.00  0.00    +0.133 C 
ATOM     13  C   UNL     1      32.825 -22.693 -15.853  0.00  0.00    +0.045 C 
ATOM     14  C   UNL     1      31.046 -23.643 -13.944  0.00  0.00    +0.127 C 
ATOM     15  C   UNL     1      31.467 -22.752 -16.149  0.00  0.00    +0.169 C 
ATOM     16  C   UNL     1      30.577 -23.227 -15.193  0.00  0.00    +0.157 C 
ATOM     17  C   UNL     1      34.160 -23.921 -12.188  0.00  0.00    +0.199 C 
ATOM     18  C   UNL     1      35.984 -24.325 -10.534  0.00  0.00    +0.121 C 
ATOM     19  H   UNL     1      33.943 -24.677 -10.271  0.00  0.00    +0.160 HD
BRANCH  15  20
ATOM     20  O   UNL     1      31.025 -22.342 -17.370  0.00  0.00    -0.469 OA
ATOM     21  C   UNL     1      31.942 -21.611 -18.181  0.00  0.00    +0.253 C 
ENDBRANCH  15  20
BRANCH  16  22
ATOM     22  O   UNL     1      29.242 -23.293 -15.460  0.00  0.00    -0.472 OA
ATOM     23  C   UNL     1      28.535 -24.422 -14.952  0.00  0.00    +0.252 C 
ENDBRANCH  16  22
ENDBRANCH   1  11
BRANCH   3  25
ATOM     24  O   UNL     1      35.015 -22.094 -19.649  0.00  0.00    -0.270 OA
ATOM     25  N   UNL     1      36.054 -20.582 -18.179  0.00  0.00    -0.280 N 
ATOM     26  C   UNL     1      35.416 -20.971 -19.363  0.00  0.00    +0.249 C 
ATOM     27  H   UNL     1      36.308 -19.633 -18.117  0.00  0.00    +0.155 HD
BRANCH  26  28
ATOM     28  C   UNL     1      35.188 -19.883 -20.352  0.00  0.00    +0.054 C 
ATOM     29  C   UNL     1      33.962 -19.784 -21.009  0.00  0.00    +0.005 C 
ATOM     30  C   UNL     1      36.202 -18.964 -20.621  0.00  0.00    +0.005 C 
ATOM     31  C   UNL     1      34.763 -17.845 -22.208  0.00  0.00    +0.076 C 
ATOM     32  C   UNL     1      33.750 -18.765 -21.938  0.00  0.00    +0.007 C 
ATOM     33  C   UNL     1      35.989 -17.945 -21.550  0.00  0.00    +0.007 C 
BRANCH  31  35
ATOM     34  O   UNL     1      34.073 -16.952 -24.307  0.00  0.00    -0.245 OA
ATOM     35  C   UNL     1      34.541 -16.782 -23.174  0.00  0.00    +0.341 C 
BRANCH  35  36
ATOM     36  O   UNL     1      34.912 -15.562 -22.675  0.00  0.00    -0.441 OA
ATOM     37  C   UNL     1      33.862 -14.630 -22.398  0.00  0.00    +0.256 C 
ENDBRANCH  35  36
ENDBRANCH  31  35
ENDBRANCH  26  28
ENDBRANCH   3  25
TORSDOF 7
ENDMDL
MODEL 2
REMARK VINA RESULT:     -10.9      2.500      4.360
REMARK  Name = 24864553
REMARK  7 active torsions:
REMARK  status: ('A' for Active; 'I' for Inactive)
REMARK    1  A    between atoms: C_1  and  C_11
REMARK    2  A    between atoms: C_3  and  N_25
REMARK    3  A    between atoms: C_15  and  O_20
REMARK    4  A    between atoms: C_16  and  O_22
REMARK    5  A    between atoms: C_26  and  C_28
REMARK    6  A    between atoms: C_31  and  C_35
REMARK    7  A    between atoms: C_35  and  O_36
REMARK                            x       y       z     vdW  Elec       q    Type
REMARK                         _______ _______ _______ _____ _____    ______ ____
ROOT
ATOM      1  C   UNL     1      32.912 -22.937 -17.473  0.00  0.00    +0.032 C 
ATOM      2  C   UNL     1      33.059 -21.769 -18.221  0.00  0.00    +0.017 C 
ATOM      3  C   UNL     1      33.458 -21.841 -19.556  0.00  0.00    +0.051 C 
ATOM      4  C   UNL     1      33.163 -24.177 -18.058  0.00  0.00    +0.003 C 
ATOM      5  C   UNL     1      33.708 -23.082 -20.142  0.00  0.00    +0.015 C 
ATOM      6  C   UNL     1      33.562 -24.250 -19.394  0.00  0.00    +0.001 C 
ENDROOT
BRANCH   1  11
ATOM      7  N   UNL     1      31.178 -22.634 -15.949  0.00  0.00    -0.328 NA
ATOM      8  N   UNL     1      31.497 -22.684 -13.561  0.00  0.00    -0.332 NA
ATOM      9  N   UNL     1      29.373 -22.318 -14.488  0.00  0.00    -0.257 N 
ATOM     10  C   UNL     1      33.375 -23.010 -15.017  0.00  0.00    +0.060 C 
ATOM     11  C   UNL     1      32.497 -22.861 -16.086  0.00  0.00    +0.147 C 
ATOM     12  C   UNL     1      32.811 -22.911 -13.734  0.00  0.00    +0.133 C 
ATOM     13  C   UNL     1      34.751 -23.249 -15.185  0.00  0.00    +0.045 C 
ATOM     14  C   UNL     1      33.660 -23.054 -12.638  0.00  0.00    +0.127 C 
ATOM     15  C   UNL     1      35.574 -23.387 -14.072  0.00  0.00    +0.169 C 
ATOM     16  C   UNL     1      35.028 -23.291 -12.798  0.00  0.00    +0.157 C 
ATOM     17  C   UNL     1      30.752 -22.557 -14.678  0.00  0.00    +0.199 C 
ATOM     18  C   UNL     1      28.458 -22.160 -15.575  0.00  0.00    +0.121 C 
ATOM     19  H   UNL     1      29.029 -22.257 -13.568  0.00  0.00    +0.160 HD
BRANCH  15  20
ATOM     20  O   UNL     1      36.906 -23.618 -14.244  0.00  0.00    -0.469 OA
ATOM     21  C   UNL     1      37.309 -24.970 -14.453  0.00  0.00    +0.253 C 
ENDBRANCH  15  20
BRANCH  16  22
ATOM     22  O   UNL     1      35.815 -23.424 -11.694  0.00  0.00    -0.472 OA
ATOM     23  C   UNL     1      35.309 -24.229 -10.631  0.00  0.00    +0.252 C 
ENDBRANCH  16  22
ENDBRANCH   1  11
BRANCH   3  25
ATOM     24  O   UNL     1      35.825 -20.028 -19.869  0.00  0.00    -0.270 OA
ATOM     25  N   UNL     1      33.606 -20.674 -20.305  0.00  0.00    -0.280 N 
ATOM     26  C   UNL     1      34.741 -19.860 -20.417  0.00  0.00    +0.249 C 
ATOM     27  H   UNL     1      32.817 -20.387 -20.818  0.00  0.00    +0.155 HD
BRANCH  26  28
ATOM     28  C   UNL     1      34.597 -18.688 -21.322  0.00  0.00    +0.054 C 
ATOM     29  C   UNL     1      34.880 -17.406 -20.852  0.00  0.00    +0.005 C 
ATOM     30  C   UNL     1      34.180 -18.872 -22.640  0.00  0.00    +0.005 C 
ATOM     31  C   UNL     1      34.326 -16.490 -23.018  0.00  0.00    +0.076 C 
ATOM     32  C   UNL     1      34.744 -16.307 -21.700  0.00  0.00    +0.007 C 
ATOM     33  C   UNL     1      34.044 -17.773 -23.487  0.00  0.00    +0.007 C 
BRANCH  31  35
ATOM     34  O   UNL     1      33.932 -15.420 -25.111  0.00  0.00    -0.245 OA
ATOM     35  C   UNL     1      34.186 -15.344 -23.902  0.00  0.00    +0.341 C 
BRANCH  35  36
ATOM     36  O   UNL     1      34.369 -14.165 -23.230  0.00  0.00    -0.441 OA
ATOM     37  C   UNL     1      33.307 -13.209 -23.302  0.00  0.00    +0.256 C 
ENDBRANCH  35  36
ENDBRANCH  31  35
ENDBRANCH  26  28
ENDBRANCH   3  25
TORSDOF 7
ENDMDL
MODEL 3
REMARK VINA RESULT:      -9.6      9.426     16.861
REMARK  Name = 24864553
REMARK  7 active torsions:
REMARK  status: ('A' for Active; 'I' for Inactive)
REMARK    1  A    between atoms: C_1  and  C_11
REMARK    2  A    between atoms: C_3  and  N_25
REMARK    3  A    between atoms: C_15  and  O_20
REMARK    4  A    between atoms: C_16  and  O_22
REMARK    5  A    between atoms: C_26  and  C_28
REMARK    6  A    between atoms: C_31  and  C_35
REMARK    7  A    between atoms: C_35  and  O_36
REMARK                            x       y       z     vdW  Elec       q    Type
REMARK                         _______ _______ _______ _____ _____    ______ ____
ROOT
ATOM      1  C   UNL     1      31.663  -6.086 -21.571  0.00  0.00    +0.032 C 
ATOM      2  C   UNL     1      32.048  -7.401 -21.832  0.00  0.00    +0.017 C 
ATOM      3  C   UNL     1      31.917  -8.376 -20.842  0.00  0.00    +0.051 C 
ATOM      4  C   UNL     1      31.145  -5.745 -20.322  0.00  0.00    +0.003 C 
ATOM      5  C   UNL     1      31.399  -8.035 -19.593  0.00  0.00    +0.015 C 
ATOM      6  C   UNL     1      31.013  -6.720 -19.332  0.00  0.00    +0.001 C 
ENDROOT
BRANCH   1  11
ATOM      7  N   UNL     1      30.993  -4.015 -22.397  0.00  0.00    -0.328 NA
ATOM      8  N   UNL     1      31.890  -3.046 -24.413  0.00  0.00    -0.332 NA
ATOM      9  N   UNL     1      30.260  -1.922 -23.155  0.00  0.00    -0.257 N 
ATOM     10  C   UNL     1      32.670  -5.192 -23.678  0.00  0.00    +0.060 C 
ATOM     11  C   UNL     1      31.798  -5.074 -22.599  0.00  0.00    +0.147 C 
ATOM     12  C   UNL     1      32.681  -4.120 -24.585  0.00  0.00    +0.133 C 
ATOM     13  C   UNL     1      33.503  -6.309 -23.868  0.00  0.00    +0.045 C 
ATOM     14  C   UNL     1      33.542  -4.202 -25.678  0.00  0.00    +0.127 C 
ATOM     15  C   UNL     1      34.352  -6.364 -24.968  0.00  0.00    +0.169 C 
ATOM     16  C   UNL     1      34.371  -5.309 -25.874  0.00  0.00    +0.157 C 
ATOM     17  C   UNL     1      31.088  -3.053 -23.328  0.00  0.00    +0.199 C 
ATOM     18  C   UNL     1      29.356  -1.786 -22.055  0.00  0.00    +0.121 C 
ATOM     19  H   UNL     1      30.306  -1.198 -23.819  0.00  0.00    +0.160 HD
BRANCH  15  20
ATOM     20  O   UNL     1      35.155  -7.449 -25.146  0.00  0.00    -0.469 OA
ATOM     21  C   UNL     1      35.029  -8.511 -24.202  0.00  0.00    +0.253 C 
ENDBRANCH  15  20
BRANCH  16  22
ATOM     22  O   UNL     1      35.196  -5.342 -26.958  0.00  0.00    -0.472 OA
ATOM     23  C   UNL     1      34.825  -4.540 -28.078  0.00  0.00    +0.252 C 
ENDBRANCH  16  22
ENDBRANCH   1  11
BRANCH   3  25
ATOM     24  O   UNL     1      30.304 -10.724 -21.774  0.00  0.00    -0.270 OA
ATOM     25  N   UNL     1      32.305  -9.691 -21.102  0.00  0.00    -0.280 N 
ATOM     26  C   UNL     1      31.506 -10.755 -21.537  0.00  0.00    +0.249 C 
ATOM     27  H   UNL     1      33.258  -9.895 -20.961  0.00  0.00    +0.155 HD
BRANCH  26  28
ATOM     28  C   UNL     1      32.221 -12.041 -21.753  0.00  0.00    +0.054 C 
ATOM     29  C   UNL     1      32.521 -12.863 -20.666  0.00  0.00    +0.005 C 
ATOM     30  C   UNL     1      32.591 -12.425 -23.042  0.00  0.00    +0.005 C 
ATOM     31  C   UNL     1      33.564 -14.453 -22.157  0.00  0.00    +0.076 C 
ATOM     32  C   UNL     1      33.193 -14.068 -20.869  0.00  0.00    +0.007 C 
ATOM     33  C   UNL     1      33.263 -13.631 -23.244  0.00  0.00    +0.007 C 
BRANCH  31  35
ATOM     34  O   UNL     1      34.470 -16.219 -23.477  0.00  0.00    -0.245 OA
ATOM     35  C   UNL     1      34.262 -15.711 -22.367  0.00  0.00    +0.341 C 
BRANCH  35  36
ATOM     36  O   UNL     1      34.666 -16.266 -21.183  0.00  0.00    -0.441 OA
ATOM     37  C   UNL     1      35.376 -17.507 -21.259  0.00  0.00    +0.256 C 
ENDBRANCH  35  36
ENDBRANCH  31  35
ENDBRANCH  26  28
ENDBRANCH   3  25
TORSDOF 7
ENDMDL
