MODEL 1
REMARK VINA RESULT:     -13.4      0.000      0.000
REMARK  Name = 447731
REMARK  4 active torsions:
REMARK  status: ('A' for Active; 'I' for Inactive)
REMARK    1  A    between atoms: N_2  and  C_13
REMARK    2  A    between atoms: C_3  and  C_19
REMARK    3  A    between atoms: C_6  and  C_17
REMARK    4  A    between atoms: C_27  and  C_31
REMARK                            x       y       z     vdW  Elec       q    Type
REMARK                         _______ _______ _______ _____ _____    ______ ____
ROOT
ATOM      1  O   UNL     1      33.430 -23.530 -17.765  0.00  0.00    -0.270 OA
ATOM      2  N   UNL     1      34.718 -22.002 -16.527  0.00  0.00    -0.280 N 
ATOM      3  C   UNL     1      33.963 -22.435 -17.624  0.00  0.00    +0.249 C 
ATOM      4  H   UNL     1      35.074 -21.085 -16.582  0.00  0.00    +0.155 HD
ENDROOT
BRANCH   2  13
ATOM      5  N   UNL     1      36.946 -25.977 -11.968  0.00  0.00    +0.387 N 
ATOM      6  C   UNL     1      37.819 -24.999 -14.062  0.00  0.00    +0.001 C 
ATOM      7  C   UNL     1      36.550 -24.162 -14.135  0.00  0.00    -0.029 C 
ATOM      8  C   UNL     1      38.139 -25.439 -12.619  0.00  0.00    -0.077 C 
ATOM      9  C   UNL     1      35.649 -24.156 -13.051  0.00  0.00    -0.048 C 
ATOM     10  C   UNL     1      35.956 -24.913 -11.783  0.00  0.00    -0.055 C 
ATOM     11  C   UNL     1      36.212 -23.451 -15.297  0.00  0.00    +0.010 C 
ATOM     12  C   UNL     1      34.470 -23.399 -13.126  0.00  0.00    -0.005 C 
ATOM     13  C   UNL     1      35.029 -22.711 -15.365  0.00  0.00    +0.050 C 
ATOM     14  C   UNL     1      34.162 -22.680 -14.278  0.00  0.00    +0.014 C 
ATOM     15  H   UNL     1      37.202 -26.362 -11.059  0.00  0.00    -0.084 HD
ATOM     16  H   UNL     1      36.545 -26.710 -12.554  0.00  0.00    -0.084 HD
BRANCH   6  17
ATOM     17  C   UNL     1      39.053 -24.298 -14.643  0.00  0.00    +0.002 C 
ATOM     18  C   UNL     1      40.149 -25.292 -14.957  0.00  0.00    +0.000 C 
ENDBRANCH   6  17
ENDBRANCH   2  13
BRANCH   3  19
ATOM     19  C   UNL     1      33.830 -21.453 -18.733  0.00  0.00    +0.054 C 
ATOM     20  C   UNL     1      34.855 -19.905 -20.262  0.00  0.00    +0.000 C 
ATOM     21  C   UNL     1      33.579 -19.620 -20.804  0.00  0.00    +0.000 C 
ATOM     22  C   UNL     1      34.965 -20.835 -19.214  0.00  0.00    +0.005 C 
ATOM     23  C   UNL     1      32.578 -21.194 -19.242  0.00  0.00    +0.005 C 
ATOM     24  C   UNL     1      32.450 -20.274 -20.282  0.00  0.00    +0.000 C 
ATOM     25  C   UNL     1      33.468 -18.690 -21.850  0.00  0.00    +0.003 C 
ATOM     26  C   UNL     1      35.983 -19.251 -20.782  0.00  0.00    +0.000 C 
ATOM     27  C   UNL     1      34.600 -18.050 -22.355  0.00  0.00    +0.031 C 
ATOM     28  C   UNL     1      35.856 -18.331 -21.822  0.00  0.00    +0.003 C 
BRANCH  27  31
ATOM     29  N   UNL     1      34.967 -15.793 -23.322  0.00  0.00    -0.343 N 
ATOM     30  N   UNL     1      33.866 -17.440 -24.559  0.00  0.00    -0.285 NA
ATOM     31  C   UNL     1      34.469 -17.090 -23.439  0.00  0.00    +0.117 C 
ATOM     32  H   UNL     1      34.868 -15.159 -24.069  0.00  0.00    +0.144 HD
ATOM     33  H   UNL     1      35.418 -15.511 -22.494  0.00  0.00    +0.144 HD
ATOM     34  H   UNL     1      33.775 -16.791 -25.295  0.00  0.00    +0.188 HD
ENDBRANCH  27  31
ENDBRANCH   3  19
TORSDOF 4
ENDMDL
MODEL 2
REMARK VINA RESULT:     -12.9      8.029     14.935
REMARK  Name = 447731
REMARK  4 active torsions:
REMARK  status: ('A' for Active; 'I' for Inactive)
REMARK    1  A    between atoms: N_2  and  C_13
REMARK    2  A    between atoms: C_3  and  C_19
REMARK    3  A    between atoms: C_6  and  C_17
REMARK    4  A    between atoms: C_27  and  C_31
REMARK                            x       y       z     vdW  Elec       q    Type
REMARK                         _______ _______ _______ _____ _____    ______ ____
ROOT
ATOM      1  O   UNL     1      32.684 -11.542 -24.531  0.00  0.00    -0.270 OA
ATOM      2  N   UNL     1      32.545 -10.465 -22.445  0.00  0.00    -0.280 N 
ATOM      3  C   UNL     1      32.808 -11.535 -23.310  0.00  0.00    +0.249 C 
ATOM      4  H   UNL     1      32.701 -10.635 -21.488  0.00  0.00    +0.155 HD
ENDROOT
BRANCH   2  13
ATOM      5  N   UNL     1      31.717  -4.216 -23.792  0.00  0.00    +0.387 N 
ATOM      6  C   UNL     1      33.532  -5.871 -24.058  0.00  0.00    +0.001 C 
ATOM      7  C   UNL     1      32.554  -6.937 -23.584  0.00  0.00    -0.029 C 
ATOM      8  C   UNL     1      32.808  -4.651 -24.661  0.00  0.00    -0.077 C 
ATOM      9  C   UNL     1      31.193  -6.614 -23.408  0.00  0.00    -0.048 C 
ATOM     10  C   UNL     1      30.671  -5.242 -23.753  0.00  0.00    -0.055 C 
ATOM     11  C   UNL     1      32.991  -8.225 -23.237  0.00  0.00    +0.010 C 
ATOM     12  C   UNL     1      30.295  -7.592 -22.954  0.00  0.00    -0.005 C 
ATOM     13  C   UNL     1      32.090  -9.186 -22.773  0.00  0.00    +0.050 C 
ATOM     14  C   UNL     1      30.743  -8.871 -22.638  0.00  0.00    +0.014 C 
ATOM     15  H   UNL     1      31.324  -3.346 -24.151  0.00  0.00    -0.084 HD
ATOM     16  H   UNL     1      32.078  -4.069 -22.849  0.00  0.00    -0.084 HD
BRANCH   6  17
ATOM     17  C   UNL     1      34.555  -6.385 -25.077  0.00  0.00    +0.002 C 
ATOM     18  C   UNL     1      34.630  -5.474 -26.283  0.00  0.00    +0.000 C 
ENDBRANCH   6  17
ENDBRANCH   2  13
BRANCH   3  19
ATOM     19  C   UNL     1      33.259 -12.790 -22.654  0.00  0.00    +0.054 C 
ATOM     20  C   UNL     1      34.051 -15.053 -22.838  0.00  0.00    +0.000 C 
ATOM     21  C   UNL     1      34.101 -15.133 -21.425  0.00  0.00    +0.000 C 
ATOM     22  C   UNL     1      33.623 -13.860 -23.443  0.00  0.00    +0.005 C 
ATOM     23  C   UNL     1      33.298 -12.841 -21.279  0.00  0.00    +0.005 C 
ATOM     24  C   UNL     1      33.720 -14.018 -20.660  0.00  0.00    +0.000 C 
ATOM     25  C   UNL     1      34.529 -16.326 -20.819  0.00  0.00    +0.003 C 
ATOM     26  C   UNL     1      34.431 -16.168 -23.602  0.00  0.00    +0.000 C 
ATOM     27  C   UNL     1      34.902 -17.424 -21.594  0.00  0.00    +0.031 C 
ATOM     28  C   UNL     1      34.853 -17.344 -22.983  0.00  0.00    +0.003 C 
BRANCH  27  31
ATOM     29  N   UNL     1      34.540 -19.790 -20.938  0.00  0.00    -0.343 N 
ATOM     30  N   UNL     1      36.523 -18.698 -20.361  0.00  0.00    -0.285 NA
ATOM     31  C   UNL     1      35.343 -18.651 -20.951  0.00  0.00    +0.117 C 
ATOM     32  H   UNL     1      34.858 -20.611 -20.497  0.00  0.00    +0.144 HD
ATOM     33  H   UNL     1      33.656 -19.775 -21.370  0.00  0.00    +0.144 HD
ATOM     34  H   UNL     1      36.823 -19.528 -19.925  0.00  0.00    +0.188 HD
ENDBRANCH  27  31
ENDBRANCH   3  19
TORSDOF 4
ENDMDL
MODEL 3
REMARK VINA RESULT:     -12.8      1.077      2.488
REMARK  Name = 447731
REMARK  4 active torsions:
REMARK  status: ('A' for Active; 'I' for Inactive)
REMARK    1  A    between atoms: N_2  and  C_13
REMARK    2  A    between atoms: C_3  and  C_19
REMARK    3  A    between atoms: C_6  and  C_17
REMARK    4  A    between atoms: C_27  and  C_31
REMARK                            x       y       z     vdW  Elec       q    Type
REMARK                         _______ _______ _______ _____ _____    ______ ____
ROOT
ATOM      1  O   UNL     1      33.933 -23.036 -17.645  0.00  0.00    -0.270 OA
ATOM      2  N   UNL     1      35.680 -21.621 -16.955  0.00  0.00    -0.280 N 
ATOM      3  C   UNL     1      34.616 -22.025 -17.772  0.00  0.00    +0.249 C 
ATOM      4  H   UNL     1      36.120 -20.776 -17.204  0.00  0.00    +0.155 HD
ENDROOT
BRANCH   2  13
ATOM      5  N   UNL     1      36.973 -24.111 -11.152  0.00  0.00    +0.387 N 
ATOM      6  C   UNL     1      34.939 -23.538 -12.432  0.00  0.00    +0.001 C 
ATOM      7  C   UNL     1      35.841 -23.233 -13.620  0.00  0.00    -0.029 C 
ATOM      8  C   UNL     1      35.600 -24.519 -11.443  0.00  0.00    -0.077 C 
ATOM      9  C   UNL     1      37.214 -23.544 -13.558  0.00  0.00    -0.048 C 
ATOM     10  C   UNL     1      37.798 -24.243 -12.356  0.00  0.00    -0.055 C 
ATOM     11  C   UNL     1      35.350 -22.572 -14.757  0.00  0.00    +0.010 C 
ATOM     12  C   UNL     1      38.048 -23.247 -14.647  0.00  0.00    -0.005 C 
ATOM     13  C   UNL     1      36.192 -22.269 -15.829  0.00  0.00    +0.050 C 
ATOM     14  C   UNL     1      37.539 -22.612 -15.776  0.00  0.00    +0.014 C 
ATOM     15  H   UNL     1      37.353 -24.706 -10.415  0.00  0.00    -0.084 HD
ATOM     16  H   UNL     1      36.977 -23.138 -10.847  0.00  0.00    -0.084 HD
BRANCH   6  17
ATOM     17  C   UNL     1      33.567 -24.094 -12.828  0.00  0.00    +0.002 C 
ATOM     18  C   UNL     1      32.554 -22.982 -12.995  0.00  0.00    +0.000 C 
ENDBRANCH   6  17
ENDBRANCH   2  13
BRANCH   3  19
ATOM     19  C   UNL     1      34.321 -21.131 -18.922  0.00  0.00    +0.054 C 
ATOM     20  C   UNL     1      35.087 -19.547 -20.563  0.00  0.00    +0.000 C 
ATOM     21  C   UNL     1      33.768 -19.461 -21.070  0.00  0.00    +0.000 C 
ATOM     22  C   UNL     1      35.350 -20.398 -19.475  0.00  0.00    +0.005 C 
ATOM     23  C   UNL     1      33.031 -21.065 -19.396  0.00  0.00    +0.005 C 
ATOM     24  C   UNL     1      32.752 -20.226 -20.475  0.00  0.00    +0.000 C 
ATOM     25  C   UNL     1      33.505 -18.611 -22.157  0.00  0.00    +0.003 C 
ATOM     26  C   UNL     1      36.103 -18.782 -21.157  0.00  0.00    +0.000 C 
ATOM     27  C   UNL     1      34.526 -17.857 -22.735  0.00  0.00    +0.031 C 
ATOM     28  C   UNL     1      35.823 -17.944 -22.236  0.00  0.00    +0.003 C 
BRANCH  27  31
ATOM     29  N   UNL     1      34.763 -15.694 -23.929  0.00  0.00    -0.343 N 
ATOM     30  N   UNL     1      33.459 -17.404 -24.839  0.00  0.00    -0.285 NA
ATOM     31  C   UNL     1      34.237 -16.982 -23.860  0.00  0.00    +0.117 C 
ATOM     32  H   UNL     1      34.555 -15.118 -24.700  0.00  0.00    +0.144 HD
ATOM     33  H   UNL     1      35.344 -15.359 -23.208  0.00  0.00    +0.144 HD
ATOM     34  H   UNL     1      33.261 -16.813 -25.601  0.00  0.00    +0.188 HD
ENDBRANCH  27  31
ENDBRANCH   3  19
TORSDOF 4
ENDMDL
MODEL 4
REMARK VINA RESULT:     -12.5      8.549     15.456
REMARK  Name = 447731
REMARK  4 active torsions:
REMARK  status: ('A' for Active; 'I' for Inactive)
REMARK    1  A    between atoms: N_2  and  C_13
REMARK    2  A    between atoms: C_3  and  C_19
REMARK    3  A    between atoms: C_6  and  C_17
REMARK    4  A    between atoms: C_27  and  C_31
REMARK                            x       y       z     vdW  Elec       q    Type
REMARK                         _______ _______ _______ _____ _____    ______ ____
ROOT
ATOM      1  O   UNL     1      31.223 -10.682 -21.358  0.00  0.00    -0.270 OA
ATOM      2  N   UNL     1      32.339  -9.789 -23.226  0.00  0.00    -0.280 N 
ATOM      3  C   UNL     1      31.986 -10.791 -22.312  0.00  0.00    +0.249 C 
ATOM      4  H   UNL     1      32.969 -10.053 -23.935  0.00  0.00    +0.155 HD
ENDROOT
BRANCH   2  13
ATOM      5  N   UNL     1      31.647  -3.381 -23.298  0.00  0.00    +0.387 N 
ATOM      6  C   UNL     1      33.332  -5.001 -24.099  0.00  0.00    +0.001 C 
ATOM      7  C   UNL     1      32.372  -6.112 -23.699  0.00  0.00    -0.029 C 
ATOM      8  C   UNL     1      32.597  -3.673 -24.370  0.00  0.00    -0.077 C 
ATOM      9  C   UNL     1      31.061  -5.795 -23.288  0.00  0.00    -0.048 C 
ATOM     10  C   UNL     1      30.567  -4.371 -23.306  0.00  0.00    -0.055 C 
ATOM     11  C   UNL     1      32.787  -7.453 -23.652  0.00  0.00    +0.010 C 
ATOM     12  C   UNL     1      30.182  -6.819 -22.902  0.00  0.00    -0.005 C 
ATOM     13  C   UNL     1      31.907  -8.461 -23.254  0.00  0.00    +0.050 C 
ATOM     14  C   UNL     1      30.605  -8.145 -22.885  0.00  0.00    +0.014 C 
ATOM     15  H   UNL     1      31.254  -2.450 -23.439  0.00  0.00    -0.084 HD
ATOM     16  H   UNL     1      32.131  -3.420 -22.401  0.00  0.00    -0.084 HD
BRANCH   6  17
ATOM     17  C   UNL     1      34.192  -5.341 -25.321  0.00  0.00    +0.002 C 
ATOM     18  C   UNL     1      33.354  -5.400 -26.580  0.00  0.00    +0.000 C 
ENDBRANCH   6  17
ENDBRANCH   2  13
BRANCH   3  19
ATOM     19  C   UNL     1      32.638 -12.109 -22.529  0.00  0.00    +0.054 C 
ATOM     20  C   UNL     1      33.556 -14.139 -21.621  0.00  0.00    +0.000 C 
ATOM     21  C   UNL     1      33.857 -14.571 -22.935  0.00  0.00    +0.000 C 
ATOM     22  C   UNL     1      32.939 -12.891 -21.433  0.00  0.00    +0.005 C 
ATOM     23  C   UNL     1      32.921 -12.505 -23.816  0.00  0.00    +0.005 C 
ATOM     24  C   UNL     1      33.534 -13.741 -24.022  0.00  0.00    +0.000 C 
ATOM     25  C   UNL     1      34.475 -15.818 -23.124  0.00  0.00    +0.003 C 
ATOM     26  C   UNL     1      33.879 -14.968 -20.535  0.00  0.00    +0.000 C 
ATOM     27  C   UNL     1      34.789 -16.629 -22.033  0.00  0.00    +0.031 C 
ATOM     28  C   UNL     1      34.492 -16.203 -20.741  0.00  0.00    +0.003 C 
BRANCH  27  31
ATOM     29  N   UNL     1      36.786 -18.103 -21.994  0.00  0.00    -0.343 N 
ATOM     30  N   UNL     1      34.718 -18.938 -22.688  0.00  0.00    -0.285 NA
ATOM     31  C   UNL     1      35.428 -17.917 -22.245  0.00  0.00    +0.117 C 
ATOM     32  H   UNL     1      37.198 -18.984 -22.144  0.00  0.00    +0.144 HD
ATOM     33  H   UNL     1      37.333 -17.354 -21.665  0.00  0.00    +0.144 HD
ATOM     34  H   UNL     1      35.149 -19.812 -22.833  0.00  0.00    +0.188 HD
ENDBRANCH  27  31
ENDBRANCH   3  19
TORSDOF 4
ENDMDL
MODEL 5
REMARK VINA RESULT:     -12.4      8.494     15.405
REMARK  Name = 447731
REMARK  4 active torsions:
REMARK  status: ('A' for Active; 'I' for Inactive)
REMARK    1  A    between atoms: N_2  and  C_13
REMARK    2  A    between atoms: C_3  and  C_19
REMARK    3  A    between atoms: C_6  and  C_17
REMARK    4  A    between atoms: C_27  and  C_31
REMARK                            x       y       z     vdW  Elec       q    Type
REMARK                         _______ _______ _______ _____ _____    ______ ____
ROOT
ATOM      1  O   UNL     1      30.476 -10.727 -21.749  0.00  0.00    -0.270 OA
ATOM      2  N   UNL     1      32.372  -9.802 -22.787  0.00  0.00    -0.280 N 
ATOM      3  C   UNL     1      31.623 -10.814 -22.174  0.00  0.00    +0.249 C 
ATOM      4  H   UNL     1      33.283 -10.049 -23.069  0.00  0.00    +0.155 HD
ENDROOT
BRANCH   2  13
ATOM      5  N   UNL     1      31.888  -3.463 -23.849  0.00  0.00    +0.387 N 
ATOM      6  C   UNL     1      33.592  -5.209 -24.235  0.00  0.00    +0.001 C 
ATOM      7  C   UNL     1      32.564  -6.235 -23.778  0.00  0.00    -0.029 C 
ATOM      8  C   UNL     1      32.928  -3.924 -24.767  0.00  0.00    -0.077 C 
ATOM      9  C   UNL     1      31.230  -5.840 -23.551  0.00  0.00    -0.048 C 
ATOM     10  C   UNL     1      30.783  -4.426 -23.823  0.00  0.00    -0.055 C 
ATOM     11  C   UNL     1      32.932  -7.561 -23.498  0.00  0.00    +0.010 C 
ATOM     12  C   UNL     1      30.287  -6.782 -23.112  0.00  0.00    -0.005 C 
ATOM     13  C   UNL     1      31.986  -8.486 -23.049  0.00  0.00    +0.050 C 
ATOM     14  C   UNL     1      30.665  -8.098 -22.862  0.00  0.00    +0.014 C 
ATOM     15  H   UNL     1      31.539  -2.556 -24.160  0.00  0.00    -0.084 HD
ATOM     16  H   UNL     1      32.281  -3.378 -22.911  0.00  0.00    -0.084 HD
BRANCH   6  17
ATOM     17  C   UNL     1      34.556  -5.739 -25.303  0.00  0.00    +0.002 C 
ATOM     18  C   UNL     1      34.015  -5.495 -26.696  0.00  0.00    +0.000 C 
ENDBRANCH   6  17
ENDBRANCH   2  13
BRANCH   3  19
ATOM     19  C   UNL     1      32.324 -12.115 -22.008  0.00  0.00    +0.054 C 
ATOM     20  C   UNL     1      33.274 -14.094 -22.991  0.00  0.00    +0.000 C 
ATOM     21  C   UNL     1      33.633 -14.544 -21.697  0.00  0.00    +0.000 C 
ATOM     22  C   UNL     1      32.612 -12.862 -23.131  0.00  0.00    +0.005 C 
ATOM     23  C   UNL     1      32.661 -12.529 -20.740  0.00  0.00    +0.005 C 
ATOM     24  C   UNL     1      33.318 -13.749 -20.582  0.00  0.00    +0.000 C 
ATOM     25  C   UNL     1      34.293 -15.775 -21.557  0.00  0.00    +0.003 C 
ATOM     26  C   UNL     1      33.588 -14.888 -24.105  0.00  0.00    +0.000 C 
ATOM     27  C   UNL     1      34.597 -16.552 -22.676  0.00  0.00    +0.031 C 
ATOM     28  C   UNL     1      34.244 -16.108 -23.948  0.00  0.00    +0.003 C 
BRANCH  27  31
ATOM     29  N   UNL     1      36.593 -17.886 -22.045  0.00  0.00    -0.343 N 
ATOM     30  N   UNL     1      34.661 -18.949 -22.817  0.00  0.00    -0.285 NA
ATOM     31  C   UNL     1      35.282 -17.824 -22.514  0.00  0.00    +0.117 C 
ATOM     32  H   UNL     1      37.038 -18.758 -21.943  0.00  0.00    +0.144 HD
ATOM     33  H   UNL     1      37.074 -17.058 -21.816  0.00  0.00    +0.144 HD
ATOM     34  H   UNL     1      35.123 -19.811 -22.708  0.00  0.00    +0.188 HD
ENDBRANCH  27  31
ENDBRANCH   3  19
TORSDOF 4
ENDMDL
MODEL 6
REMARK VINA RESULT:     -12.1      2.222     10.214
REMARK  Name = 447731
REMARK  4 active torsions:
REMARK  status: ('A' for Active; 'I' for Inactive)
REMARK    1  A    between atoms: N_2  and  C_13
REMARK    2  A    between atoms: C_3  and  C_19
REMARK    3  A    between atoms: C_6  and  C_17
REMARK    4  A    between atoms: C_27  and  C_31
REMARK                            x       y       z     vdW  Elec       q    Type
REMARK                         _______ _______ _______ _____ _____    ______ ____
ROOT
ATOM      1  O   UNL     1      32.537 -20.644 -20.316  0.00  0.00    -0.270 OA
ATOM      2  N   UNL     1      34.604 -19.522 -20.303  0.00  0.00    -0.280 N 
ATOM      3  C   UNL     1      33.651 -20.440 -19.844  0.00  0.00    +0.249 C 
ATOM      4  H   UNL     1      35.451 -19.490 -19.802  0.00  0.00    +0.155 HD
ENDROOT
BRANCH   2  13
ATOM      5  N   UNL     1      33.321 -14.784 -24.481  0.00  0.00    +0.387 N 
ATOM      6  C   UNL     1      33.518 -14.991 -22.028  0.00  0.00    +0.001 C 
ATOM      7  C   UNL     1      33.992 -16.421 -22.243  0.00  0.00    -0.029 C 
ATOM      8  C   UNL     1      33.769 -14.107 -23.266  0.00  0.00    -0.077 C 
ATOM      9  C   UNL     1      34.261 -16.885 -23.546  0.00  0.00    -0.048 C 
ATOM     10  C   UNL     1      34.156 -15.961 -24.734  0.00  0.00    -0.055 C 
ATOM     11  C   UNL     1      34.093 -17.325 -21.172  0.00  0.00    +0.010 C 
ATOM     12  C   UNL     1      34.681 -18.208 -23.746  0.00  0.00    -0.005 C 
ATOM     13  C   UNL     1      34.499 -18.644 -21.385  0.00  0.00    +0.050 C 
ATOM     14  C   UNL     1      34.799 -19.083 -22.669  0.00  0.00    +0.014 C 
ATOM     15  H   UNL     1      33.393 -14.143 -25.272  0.00  0.00    -0.084 HD
ATOM     16  H   UNL     1      32.352 -15.079 -24.363  0.00  0.00    -0.084 HD
BRANCH   6  17
ATOM     17  C   UNL     1      34.149 -14.311 -20.807  0.00  0.00    +0.002 C 
ATOM     18  C   UNL     1      33.554 -12.938 -20.578  0.00  0.00    +0.000 C 
ENDBRANCH   6  17
ENDBRANCH   2  13
BRANCH   3  19
ATOM     19  C   UNL     1      34.047 -21.221 -18.643  0.00  0.00    +0.054 C 
ATOM     20  C   UNL     1      35.730 -21.849 -17.044  0.00  0.00    +0.000 C 
ATOM     21  C   UNL     1      34.783 -22.680 -16.398  0.00  0.00    +0.000 C 
ATOM     22  C   UNL     1      35.341 -21.117 -18.178  0.00  0.00    +0.005 C 
ATOM     23  C   UNL     1      33.107 -22.021 -18.033  0.00  0.00    +0.005 C 
ATOM     24  C   UNL     1      33.476 -22.755 -16.906  0.00  0.00    +0.000 C 
ATOM     25  C   UNL     1      35.172 -23.412 -15.264  0.00  0.00    +0.003 C 
ATOM     26  C   UNL     1      37.037 -21.775 -16.536  0.00  0.00    +0.000 C 
ATOM     27  C   UNL     1      36.475 -23.326 -14.774  0.00  0.00    +0.031 C 
ATOM     28  C   UNL     1      37.406 -22.508 -15.409  0.00  0.00    +0.003 C 
BRANCH  27  31
ATOM     29  N   UNL     1      36.014 -25.049 -13.047  0.00  0.00    -0.343 N 
ATOM     30  N   UNL     1      38.034 -23.878 -13.032  0.00  0.00    -0.285 NA
ATOM     31  C   UNL     1      36.861 -24.090 -13.599  0.00  0.00    +0.117 C 
ATOM     32  H   UNL     1      36.295 -25.556 -12.251  0.00  0.00    +0.144 HD
ATOM     33  H   UNL     1      35.134 -25.221 -13.454  0.00  0.00    +0.144 HD
ATOM     34  H   UNL     1      38.298 -24.394 -12.236  0.00  0.00    +0.188 HD
ENDBRANCH  27  31
ENDBRANCH   3  19
TORSDOF 4
ENDMDL
MODEL 7
REMARK VINA RESULT:     -11.9      8.807     15.348
REMARK  Name = 447731
REMARK  4 active torsions:
REMARK  status: ('A' for Active; 'I' for Inactive)
REMARK    1  A    between atoms: N_2  and  C_13
REMARK    2  A    between atoms: C_3  and  C_19
REMARK    3  A    between atoms: C_6  and  C_17
REMARK    4  A    between atoms: C_27  and  C_31
REMARK                            x       y       z     vdW  Elec       q    Type
REMARK                         _______ _______ _______ _____ _____    ______ ____
ROOT
ATOM      1  O   UNL     1      30.146 -10.530 -21.749  0.00  0.00    -0.270 OA
ATOM      2  N   UNL     1      32.113  -9.669 -22.707  0.00  0.00    -0.280 N 
ATOM      3  C   UNL     1      31.323 -10.638 -22.077  0.00  0.00    +0.249 C 
ATOM      4  H   UNL     1      33.043  -9.927 -22.900  0.00  0.00    +0.155 HD
ENDROOT
BRANCH   2  13
ATOM      5  N   UNL     1      29.942  -3.625 -23.257  0.00  0.00    +0.387 N 
ATOM      6  C   UNL     1      30.865  -5.029 -21.446  0.00  0.00    +0.001 C 
ATOM      7  C   UNL     1      31.151  -6.094 -22.494  0.00  0.00    -0.029 C 
ATOM      8  C   UNL     1      30.785  -3.618 -22.063  0.00  0.00    -0.077 C 
ATOM      9  C   UNL     1      30.977  -5.800 -23.862  0.00  0.00    -0.048 C 
ATOM     10  C   UNL     1      30.577  -4.418 -24.312  0.00  0.00    -0.055 C 
ATOM     11  C   UNL     1      31.513  -7.401 -22.127  0.00  0.00    +0.010 C 
ATOM     12  C   UNL     1      31.224  -6.788 -24.827  0.00  0.00    -0.005 C 
ATOM     13  C   UNL     1      31.743  -8.379 -23.096  0.00  0.00    +0.050 C 
ATOM     14  C   UNL     1      31.605  -8.071 -24.444  0.00  0.00    +0.014 C 
ATOM     15  H   UNL     1      29.812  -2.667 -23.585  0.00  0.00    -0.084 HD
ATOM     16  H   UNL     1      29.037  -4.036 -23.026  0.00  0.00    -0.084 HD
BRANCH   6  17
ATOM     17  C   UNL     1      31.883  -5.004 -20.300  0.00  0.00    +0.002 C 
ATOM     18  C   UNL     1      31.724  -6.211 -19.401  0.00  0.00    +0.000 C 
ENDBRANCH   6  17
ENDBRANCH   2  13
BRANCH   3  19
ATOM     19  C   UNL     1      32.013 -11.916 -21.762  0.00  0.00    +0.054 C 
ATOM     20  C   UNL     1      33.295 -13.814 -22.499  0.00  0.00    +0.000 C 
ATOM     21  C   UNL     1      33.303 -14.304 -21.171  0.00  0.00    +0.000 C 
ATOM     22  C   UNL     1      32.638 -12.604 -22.781  0.00  0.00    +0.005 C 
ATOM     23  C   UNL     1      32.007 -12.371 -20.463  0.00  0.00    +0.005 C 
ATOM     24  C   UNL     1      32.653 -13.570 -20.165  0.00  0.00    +0.000 C 
ATOM     25  C   UNL     1      33.959 -15.513 -20.889  0.00  0.00    +0.003 C 
ATOM     26  C   UNL     1      33.943 -14.547 -23.505  0.00  0.00    +0.000 C 
ATOM     27  C   UNL     1      34.598 -16.229 -21.901  0.00  0.00    +0.031 C 
ATOM     28  C   UNL     1      34.590 -15.746 -23.207  0.00  0.00    +0.003 C 
BRANCH  27  31
ATOM     29  N   UNL     1      36.550 -17.752 -22.079  0.00  0.00    -0.343 N 
ATOM     30  N   UNL     1      34.673 -18.383 -20.841  0.00  0.00    -0.285 NA
ATOM     31  C   UNL     1      35.273 -17.479 -21.592  0.00  0.00    +0.117 C 
ATOM     32  H   UNL     1      36.989 -18.605 -21.857  0.00  0.00    +0.144 HD
ATOM     33  H   UNL     1      37.014 -17.092 -22.643  0.00  0.00    +0.144 HD
ATOM     34  H   UNL     1      35.128 -19.231 -20.631  0.00  0.00    +0.188 HD
ENDBRANCH  27  31
ENDBRANCH   3  19
TORSDOF 4
ENDMDL
MODEL 8
REMARK VINA RESULT:     -11.9      2.192     10.413
REMARK  Name = 447731
REMARK  4 active torsions:
REMARK  status: ('A' for Active; 'I' for Inactive)
REMARK    1  A    between atoms: N_2  and  C_13
REMARK    2  A    between atoms: C_3  and  C_19
REMARK    3  A    between atoms: C_6  and  C_17
REMARK    4  A    between atoms: C_27  and  C_31
REMARK                            x       y       z     vdW  Elec       q    Type
REMARK                         _______ _______ _______ _____ _____    ______ ____
ROOT
ATOM      1  O   UNL     1      33.238 -20.918 -20.234  0.00  0.00    -0.270 OA
ATOM      2  N   UNL     1      35.029 -19.394 -20.216  0.00  0.00    -0.280 N 
ATOM      3  C   UNL     1      34.275 -20.477 -19.748  0.00  0.00    +0.249 C 
ATOM      4  H   UNL     1      35.839 -19.176 -19.700  0.00  0.00    +0.155 HD
ENDROOT
BRANCH   2  13
ATOM      5  N   UNL     1      33.083 -14.975 -24.486  0.00  0.00    +0.387 N 
ATOM      6  C   UNL     1      33.512 -15.035 -22.054  0.00  0.00    +0.001 C 
ATOM      7  C   UNL     1      34.053 -16.445 -22.241  0.00  0.00    -0.029 C 
ATOM      8  C   UNL     1      33.595 -14.208 -23.352  0.00  0.00    -0.077 C 
ATOM      9  C   UNL     1      34.233 -16.963 -23.540  0.00  0.00    -0.048 C 
ATOM     10  C   UNL     1      33.965 -16.114 -24.757  0.00  0.00    -0.055 C 
ATOM     11  C   UNL     1      34.306 -17.281 -21.141  0.00  0.00    +0.010 C 
ATOM     12  C   UNL     1      34.715 -18.270 -23.712  0.00  0.00    -0.005 C 
ATOM     13  C   UNL     1      34.773 -18.584 -21.325  0.00  0.00    +0.050 C 
ATOM     14  C   UNL     1      34.983 -19.076 -22.608  0.00  0.00    +0.014 C 
ATOM     15  H   UNL     1      33.044 -14.375 -25.311  0.00  0.00    -0.084 HD
ATOM     16  H   UNL     1      32.149 -15.319 -24.265  0.00  0.00    -0.084 HD
BRANCH   6  17
ATOM     17  C   UNL     1      34.205 -14.254 -20.932  0.00  0.00    +0.002 C 
ATOM     18  C   UNL     1      33.419 -13.014 -20.563  0.00  0.00    +0.000 C 
ENDBRANCH   6  17
ENDBRANCH   2  13
BRANCH   3  19
ATOM     19  C   UNL     1      34.792 -21.129 -18.516  0.00  0.00    +0.054 C 
ATOM     20  C   UNL     1      34.400 -22.501 -16.579  0.00  0.00    +0.000 C 
ATOM     21  C   UNL     1      35.759 -22.345 -16.215  0.00  0.00    +0.000 C 
ATOM     22  C   UNL     1      33.927 -21.879 -17.747  0.00  0.00    +0.005 C 
ATOM     23  C   UNL     1      36.117 -20.961 -18.183  0.00  0.00    +0.005 C 
ATOM     24  C   UNL     1      36.604 -21.571 -17.028  0.00  0.00    +0.000 C 
ATOM     25  C   UNL     1      36.233 -22.965 -15.047  0.00  0.00    +0.003 C 
ATOM     26  C   UNL     1      33.556 -23.274 -15.767  0.00  0.00    +0.000 C 
ATOM     27  C   UNL     1      35.380 -23.730 -14.251  0.00  0.00    +0.031 C 
ATOM     28  C   UNL     1      34.044 -23.883 -14.611  0.00  0.00    +0.003 C 
BRANCH  27  31
ATOM     29  N   UNL     1      37.239 -24.664 -12.897  0.00  0.00    -0.343 N 
ATOM     30  N   UNL     1      35.056 -24.677 -12.068  0.00  0.00    -0.285 NA
ATOM     31  C   UNL     1      35.886 -24.366 -13.046  0.00  0.00    +0.117 C 
ATOM     32  H   UNL     1      37.561 -25.095 -12.073  0.00  0.00    +0.144 HD
ATOM     33  H   UNL     1      37.875 -24.442 -13.617  0.00  0.00    +0.144 HD
ATOM     34  H   UNL     1      35.396 -25.109 -11.251  0.00  0.00    +0.188 HD
ENDBRANCH  27  31
ENDBRANCH   3  19
TORSDOF 4
ENDMDL
MODEL 9
REMARK VINA RESULT:     -11.8      8.101     15.047
REMARK  Name = 447731
REMARK  4 active torsions:
REMARK  status: ('A' for Active; 'I' for Inactive)
REMARK    1  A    between atoms: N_2  and  C_13
REMARK    2  A    between atoms: C_3  and  C_19
REMARK    3  A    between atoms: C_6  and  C_17
REMARK    4  A    between atoms: C_27  and  C_31
REMARK                            x       y       z     vdW  Elec       q    Type
REMARK                         _______ _______ _______ _____ _____    ______ ____
ROOT
ATOM      1  O   UNL     1      32.064 -11.314 -24.047  0.00  0.00    -0.270 OA
ATOM      2  N   UNL     1      33.854 -10.224 -22.981  0.00  0.00    -0.280 N 
ATOM      3  C   UNL     1      33.047 -11.319 -23.314  0.00  0.00    +0.249 C 
ATOM      4  H   UNL     1      34.607 -10.410 -22.375  0.00  0.00    +0.155 HD
ENDROOT
BRANCH   2  13
ATOM      5  N   UNL     1      31.947  -4.304 -24.674  0.00  0.00    +0.387 N 
ATOM      6  C   UNL     1      31.215  -6.016 -23.050  0.00  0.00    +0.001 C 
ATOM      7  C   UNL     1      32.449  -6.822 -23.428  0.00  0.00    -0.029 C 
ATOM      8  C   UNL     1      31.398  -4.512 -23.336  0.00  0.00    -0.077 C 
ATOM      9  C   UNL     1      33.431  -6.254 -24.266  0.00  0.00    -0.048 C 
ATOM     10  C   UNL     1      33.314  -4.827 -24.739  0.00  0.00    -0.055 C 
ATOM     11  C   UNL     1      32.599  -8.159 -23.025  0.00  0.00    +0.010 C 
ATOM     12  C   UNL     1      34.560  -7.004 -24.629  0.00  0.00    -0.005 C 
ATOM     13  C   UNL     1      33.721  -8.899 -23.404  0.00  0.00    +0.050 C 
ATOM     14  C   UNL     1      34.703  -8.321 -24.200  0.00  0.00    +0.014 C 
ATOM     15  H   UNL     1      31.957  -3.306 -24.885  0.00  0.00    -0.084 HD
ATOM     16  H   UNL     1      31.367  -4.795 -25.355  0.00  0.00    -0.084 HD
BRANCH   6  17
ATOM     17  C   UNL     1      30.793  -6.187 -21.586  0.00  0.00    +0.002 C 
ATOM     18  C   UNL     1      31.739  -5.458 -20.656  0.00  0.00    +0.000 C 
ENDBRANCH   6  17
ENDBRANCH   2  13
BRANCH   3  19
ATOM     19  C   UNL     1      33.429 -12.608 -22.678  0.00  0.00    +0.054 C 
ATOM     20  C   UNL     1      34.088 -14.911 -22.900  0.00  0.00    +0.000 C 
ATOM     21  C   UNL     1      34.142 -15.014 -21.489  0.00  0.00    +0.000 C 
ATOM     22  C   UNL     1      33.725 -13.686 -23.485  0.00  0.00    +0.005 C 
ATOM     23  C   UNL     1      33.474 -12.682 -21.304  0.00  0.00    +0.005 C 
ATOM     24  C   UNL     1      33.831 -13.890 -20.706  0.00  0.00    +0.000 C 
ATOM     25  C   UNL     1      34.503 -16.238 -20.903  0.00  0.00    +0.003 C 
ATOM     26  C   UNL     1      34.397 -16.034 -23.683  0.00  0.00    +0.000 C 
ATOM     27  C   UNL     1      34.808 -17.344 -21.696  0.00  0.00    +0.031 C 
ATOM     28  C   UNL     1      34.755 -17.242 -23.084  0.00  0.00    +0.003 C 
BRANCH  27  31
ATOM     29  N   UNL     1      34.317 -19.698 -21.078  0.00  0.00    -0.343 N 
ATOM     30  N   UNL     1      36.356 -18.726 -20.487  0.00  0.00    -0.285 NA
ATOM     31  C   UNL     1      35.180 -18.604 -21.074  0.00  0.00    +0.117 C 
ATOM     32  H   UNL     1      34.589 -20.542 -20.652  0.00  0.00    +0.144 HD
ATOM     33  H   UNL     1      33.434 -19.627 -21.509  0.00  0.00    +0.144 HD
ATOM     34  H   UNL     1      36.611 -19.578 -20.065  0.00  0.00    +0.188 HD
ENDBRANCH  27  31
ENDBRANCH   3  19
TORSDOF 4
ENDMDL
