MODEL 1
REMARK VINA RESULT:     -12.2      0.000      0.000
REMARK  Name = 445579
REMARK  10 active torsions:
REMARK  status: ('A' for Active; 'I' for Inactive)
REMARK    1  A    between atoms: C_1  and  O_18
REMARK    2  A    between atoms: C_4  and  C_9
REMARK    3  A    between atoms: N_8  and  C_11
REMARK    4  A    between atoms: C_11  and  C_12
REMARK    5  A    between atoms: O_18  and  C_24
REMARK    6  A    between atoms: C_20  and  O_27
REMARK    7  A    between atoms: C_21  and  O_25
REMARK    8  A    between atoms: C_22  and  C_31
REMARK    9  A    between atoms: C_23  and  O_29
REMARK   10  A    between atoms: C_31  and  O_32
REMARK                            x       y       z     vdW  Elec       q    Type
REMARK                         _______ _______ _______ _____ _____    ______ ____
ROOT
ATOM      1  C   UNL     1      34.274 -22.014 -17.894  0.00  0.00    +0.142 C 
ATOM      2  C   UNL     1      35.000 -21.182 -18.741  0.00  0.00    +0.042 C 
ATOM      3  C   UNL     1      32.887 -22.078 -17.986  0.00  0.00    +0.037 C 
ATOM      4  C   UNL     1      34.331 -20.405 -19.688  0.00  0.00    +0.056 C 
ATOM      5  C   UNL     1      32.219 -21.302 -18.933  0.00  0.00    +0.003 C 
ATOM      6  C   UNL     1      32.941 -20.466 -19.784  0.00  0.00    +0.005 C 
ENDROOT
BRANCH   4   9
ATOM      7  O   UNL     1      36.260 -19.220 -20.343  0.00  0.00    -0.270 OA
ATOM      8  N   UNL     1      34.417 -19.100 -21.723  0.00  0.00    -0.297 N 
ATOM      9  C   UNL     1      35.085 -19.534 -20.576  0.00  0.00    +0.246 C 
ATOM     10  H   UNL     1      33.483 -19.380 -21.860  0.00  0.00    +0.150 HD
BRANCH   8  11
ATOM     11  C   UNL     1      35.041 -18.257 -22.717  0.00  0.00    +0.117 C 
BRANCH  11  12
ATOM     12  C   UNL     1      34.583 -16.831 -22.612  0.00  0.00    -0.003 C 
ATOM     13  C   UNL     1      34.252 -16.128 -23.765  0.00  0.00    -0.003 C 
ATOM     14  C   UNL     1      34.497 -16.226 -21.363  0.00  0.00    -0.003 C 
ATOM     15  C   UNL     1      33.827 -14.803 -23.667  0.00  0.00    -0.000 C 
ATOM     16  C   UNL     1      34.071 -14.902 -21.266  0.00  0.00    -0.000 C 
ATOM     17  C   UNL     1      33.737 -14.190 -22.418  0.00  0.00    -0.000 C 
ENDBRANCH  11  12
ENDBRANCH   8  11
ENDBRANCH   4   9
BRANCH   1  18
ATOM     18  O   UNL     1      34.929 -22.776 -16.966  0.00  0.00    -0.451 OA
BRANCH  18  24
ATOM     19  O   UNL     1      34.131 -22.462 -14.760  0.00  0.00    -0.316 OA
ATOM     20  C   UNL     1      35.321 -24.387 -13.839  0.00  0.00    +0.169 C 
ATOM     21  C   UNL     1      36.497 -24.100 -14.779  0.00  0.00    +0.173 C 
ATOM     22  C   UNL     1      34.015 -23.858 -14.445  0.00  0.00    +0.177 C 
ATOM     23  C   UNL     1      36.527 -22.617 -15.148  0.00  0.00    +0.210 C 
ATOM     24  C   UNL     1      35.171 -22.169 -15.697  0.00  0.00    +0.318 C 
BRANCH  21  25
ATOM     25  O   UNL     1      37.723 -24.453 -14.147  0.00  0.00    -0.379 OA
ATOM     26  H   UNL     1      37.552 -25.104 -13.448  0.00  0.00    +0.211 HD
ENDBRANCH  21  25
BRANCH  20  27
ATOM     27  O   UNL     1      35.544 -23.740 -12.584  0.00  0.00    -0.379 OA
ATOM     28  H   UNL     1      34.948 -22.979 -12.502  0.00  0.00    +0.211 HD
ENDBRANCH  20  27
BRANCH  23  29
ATOM     29  O   UNL     1      37.535 -22.371 -16.124  0.00  0.00    -0.377 OA
ATOM     30  H   UNL     1      38.406 -22.566 -15.745  0.00  0.00    +0.211 HD
ENDBRANCH  23  29
BRANCH  22  31
ATOM     31  C   UNL     1      32.831 -24.010 -13.497  0.00  0.00    +0.169 C 
BRANCH  31  32
ATOM     32  O   UNL     1      32.762 -22.861 -12.672  0.00  0.00    -0.379 OA
ATOM     33  H   UNL     1      32.344 -22.136 -13.160  0.00  0.00    +0.211 HD
ENDBRANCH  31  32
ENDBRANCH  22  31
ENDBRANCH  18  24
ENDBRANCH   1  18
TORSDOF 10
ENDMDL
MODEL 2
REMARK VINA RESULT:     -11.8      1.197      2.179
REMARK  Name = 445579
REMARK  10 active torsions:
REMARK  status: ('A' for Active; 'I' for Inactive)
REMARK    1  A    between atoms: C_1  and  O_18
REMARK    2  A    between atoms: C_4  and  C_9
REMARK    3  A    between atoms: N_8  and  C_11
REMARK    4  A    between atoms: C_11  and  C_12
REMARK    5  A    between atoms: O_18  and  C_24
REMARK    6  A    between atoms: C_20  and  O_27
REMARK    7  A    between atoms: C_21  and  O_25
REMARK    8  A    between atoms: C_22  and  C_31
REMARK    9  A    between atoms: C_23  and  O_29
REMARK   10  A    between atoms: C_31  and  O_32
REMARK                            x       y       z     vdW  Elec       q    Type
REMARK                         _______ _______ _______ _____ _____    ______ ____
ROOT
ATOM      1  C   UNL     1      34.647 -22.155 -17.454  0.00  0.00    +0.142 C 
ATOM      2  C   UNL     1      35.330 -21.291 -18.305  0.00  0.00    +0.042 C 
ATOM      3  C   UNL     1      33.292 -22.408 -17.642  0.00  0.00    +0.037 C 
ATOM      4  C   UNL     1      34.649 -20.673 -19.355  0.00  0.00    +0.056 C 
ATOM      5  C   UNL     1      32.613 -21.791 -18.692  0.00  0.00    +0.003 C 
ATOM      6  C   UNL     1      33.291 -20.924 -19.548  0.00  0.00    +0.005 C 
ENDROOT
BRANCH   4   9
ATOM      7  O   UNL     1      36.507 -19.378 -20.006  0.00  0.00    -0.270 OA
ATOM      8  N   UNL     1      34.678 -19.397 -21.409  0.00  0.00    -0.297 N 
ATOM      9  C   UNL     1      35.357 -19.770 -20.248  0.00  0.00    +0.246 C 
ATOM     10  H   UNL     1      33.765 -19.739 -21.553  0.00  0.00    +0.150 HD
BRANCH   8  11
ATOM     11  C   UNL     1      35.259 -18.532 -22.410  0.00  0.00    +0.117 C 
BRANCH  11  12
ATOM     12  C   UNL     1      34.762 -17.121 -22.291  0.00  0.00    -0.003 C 
ATOM     13  C   UNL     1      34.494 -16.386 -23.440  0.00  0.00    -0.003 C 
ATOM     14  C   UNL     1      34.574 -16.561 -21.031  0.00  0.00    -0.003 C 
ATOM     15  C   UNL     1      34.033 -15.074 -23.329  0.00  0.00    -0.000 C 
ATOM     16  C   UNL     1      34.112 -15.250 -20.921  0.00  0.00    -0.000 C 
ATOM     17  C   UNL     1      33.841 -14.507 -22.070  0.00  0.00    -0.000 C 
ENDBRANCH  11  12
ENDBRANCH   8  11
ENDBRANCH   4   9
BRANCH   1  18
ATOM     18  O   UNL     1      35.315 -22.761 -16.424  0.00  0.00    -0.451 OA
BRANCH  18  24
ATOM     19  O   UNL     1      35.180 -24.942 -15.516  0.00  0.00    -0.316 OA
ATOM     20  C   UNL     1      36.345 -24.371 -13.446  0.00  0.00    +0.169 C 
ATOM     21  C   UNL     1      35.672 -22.994 -13.456  0.00  0.00    +0.173 C 
ATOM     22  C   UNL     1      36.464 -24.914 -14.875  0.00  0.00    +0.177 C 
ATOM     23  C   UNL     1      34.349 -23.059 -14.219  0.00  0.00    +0.210 C 
ATOM     24  C   UNL     1      34.559 -23.657 -15.612  0.00  0.00    +0.318 C 
BRANCH  21  25
ATOM     25  O   UNL     1      35.424 -22.563 -12.121  0.00  0.00    -0.379 OA
ATOM     26  H   UNL     1      34.935 -21.725 -12.136  0.00  0.00    +0.211 HD
ENDBRANCH  21  25
BRANCH  20  27
ATOM     27  O   UNL     1      35.561 -25.280 -12.669  0.00  0.00    -0.379 OA
ATOM     28  H   UNL     1      36.079 -26.079 -12.487  0.00  0.00    +0.211 HD
ENDBRANCH  20  27
BRANCH  23  29
ATOM     29  O   UNL     1      33.787 -21.757 -14.346  0.00  0.00    -0.377 OA
ATOM     30  H   UNL     1      34.082 -21.357 -15.179  0.00  0.00    +0.211 HD
ENDBRANCH  23  29
BRANCH  22  31
ATOM     31  C   UNL     1      37.018 -26.334 -14.912  0.00  0.00    +0.169 C 
BRANCH  31  32
ATOM     32  O   UNL     1      36.428 -27.022 -16.001  0.00  0.00    -0.379 OA
ATOM     33  H   UNL     1      36.491 -26.477 -16.800  0.00  0.00    +0.211 HD
ENDBRANCH  31  32
ENDBRANCH  22  31
ENDBRANCH  18  24
ENDBRANCH   1  18
TORSDOF 10
ENDMDL
MODEL 3
REMARK VINA RESULT:     -11.8      2.268      4.257
REMARK  Name = 445579
REMARK  10 active torsions:
REMARK  status: ('A' for Active; 'I' for Inactive)
REMARK    1  A    between atoms: C_1  and  O_18
REMARK    2  A    between atoms: C_4  and  C_9
REMARK    3  A    between atoms: N_8  and  C_11
REMARK    4  A    between atoms: C_11  and  C_12
REMARK    5  A    between atoms: O_18  and  C_24
REMARK    6  A    between atoms: C_20  and  O_27
REMARK    7  A    between atoms: C_21  and  O_25
REMARK    8  A    between atoms: C_22  and  C_31
REMARK    9  A    between atoms: C_23  and  O_29
REMARK   10  A    between atoms: C_31  and  O_32
REMARK                            x       y       z     vdW  Elec       q    Type
REMARK                         _______ _______ _______ _____ _____    ______ ____
ROOT
ATOM      1  C   UNL     1      33.981 -22.971 -14.990  0.00  0.00    +0.142 C 
ATOM      2  C   UNL     1      34.093 -22.691 -16.348  0.00  0.00    +0.042 C 
ATOM      3  C   UNL     1      32.729 -23.079 -14.392  0.00  0.00    +0.037 C 
ATOM      4  C   UNL     1      32.941 -22.517 -17.116  0.00  0.00    +0.056 C 
ATOM      5  C   UNL     1      31.578 -22.905 -15.160  0.00  0.00    +0.003 C 
ATOM      6  C   UNL     1      31.684 -22.624 -16.522  0.00  0.00    +0.005 C 
ENDROOT
BRANCH   4   9
ATOM      7  O   UNL     1      33.387 -23.089 -19.359  0.00  0.00    -0.270 OA
ATOM      8  N   UNL     1      32.727 -20.924 -18.924  0.00  0.00    -0.297 N 
ATOM      9  C   UNL     1      33.052 -22.225 -18.537  0.00  0.00    +0.246 C 
ATOM     10  H   UNL     1      32.466 -20.275 -18.229  0.00  0.00    +0.150 HD
BRANCH   8  11
ATOM     11  C   UNL     1      32.757 -20.488 -20.301  0.00  0.00    +0.117 C 
BRANCH  11  12
ATOM     12  C   UNL     1      34.017 -19.740 -20.627  0.00  0.00    -0.003 C 
ATOM     13  C   UNL     1      35.202 -20.073 -19.979  0.00  0.00    -0.003 C 
ATOM     14  C   UNL     1      33.988 -18.721 -21.573  0.00  0.00    -0.003 C 
ATOM     15  C   UNL     1      36.373 -19.377 -20.281  0.00  0.00    -0.000 C 
ATOM     16  C   UNL     1      35.160 -18.027 -21.875  0.00  0.00    -0.000 C 
ATOM     17  C   UNL     1      36.352 -18.355 -21.229  0.00  0.00    -0.000 C 
ENDBRANCH  11  12
ENDBRANCH   8  11
ENDBRANCH   4   9
BRANCH   1  18
ATOM     18  O   UNL     1      35.110 -23.142 -14.237  0.00  0.00    -0.451 OA
BRANCH  18  24
ATOM     19  O   UNL     1      36.746 -24.801 -14.651  0.00  0.00    -0.316 OA
ATOM     20  C   UNL     1      38.094 -24.248 -12.689  0.00  0.00    +0.169 C 
ATOM     21  C   UNL     1      36.814 -23.946 -11.904  0.00  0.00    +0.173 C 
ATOM     22  C   UNL     1      37.863 -24.025 -14.189  0.00  0.00    +0.177 C 
ATOM     23  C   UNL     1      35.641 -24.733 -12.485  0.00  0.00    +0.210 C 
ATOM     24  C   UNL     1      35.517 -24.487 -13.990  0.00  0.00    +0.318 C 
BRANCH  21  25
ATOM     25  O   UNL     1      36.987 -24.300 -10.535  0.00  0.00    -0.379 OA
ATOM     26  H   UNL     1      36.214 -24.012 -10.025  0.00  0.00    +0.211 HD
ENDBRANCH  21  25
BRANCH  20  27
ATOM     27  O   UNL     1      38.475 -25.610 -12.477  0.00  0.00    -0.379 OA
ATOM     28  H   UNL     1      38.600 -26.047 -13.334  0.00  0.00    +0.211 HD
ENDBRANCH  20  27
BRANCH  23  29
ATOM     29  O   UNL     1      34.426 -24.355 -11.845  0.00  0.00    -0.377 OA
ATOM     30  H   UNL     1      33.726 -24.261 -12.510  0.00  0.00    +0.211 HD
ENDBRANCH  23  29
BRANCH  22  31
ATOM     31  C   UNL     1      39.069 -24.428 -15.029  0.00  0.00    +0.169 C 
BRANCH  31  32
ATOM     32  O   UNL     1      40.246 -24.162 -14.287  0.00  0.00    -0.379 OA
ATOM     33  H   UNL     1      40.634 -24.998 -13.985  0.00  0.00    +0.211 HD
ENDBRANCH  31  32
ENDBRANCH  22  31
ENDBRANCH  18  24
ENDBRANCH   1  18
TORSDOF 10
ENDMDL
MODEL 4
REMARK VINA RESULT:     -11.6      2.271      3.694
REMARK  Name = 445579
REMARK  10 active torsions:
REMARK  status: ('A' for Active; 'I' for Inactive)
REMARK    1  A    between atoms: C_1  and  O_18
REMARK    2  A    between atoms: C_4  and  C_9
REMARK    3  A    between atoms: N_8  and  C_11
REMARK    4  A    between atoms: C_11  and  C_12
REMARK    5  A    between atoms: O_18  and  C_24
REMARK    6  A    between atoms: C_20  and  O_27
REMARK    7  A    between atoms: C_21  and  O_25
REMARK    8  A    between atoms: C_22  and  C_31
REMARK    9  A    between atoms: C_23  and  O_29
REMARK   10  A    between atoms: C_31  and  O_32
REMARK                            x       y       z     vdW  Elec       q    Type
REMARK                         _______ _______ _______ _____ _____    ______ ____
ROOT
ATOM      1  C   UNL     1      33.741 -23.359 -15.052  0.00  0.00    +0.142 C 
ATOM      2  C   UNL     1      33.865 -23.030 -16.398  0.00  0.00    +0.042 C 
ATOM      3  C   UNL     1      32.506 -23.273 -14.415  0.00  0.00    +0.037 C 
ATOM      4  C   UNL     1      32.744 -22.610 -17.115  0.00  0.00    +0.056 C 
ATOM      5  C   UNL     1      31.386 -22.854 -15.132  0.00  0.00    +0.003 C 
ATOM      6  C   UNL     1      31.504 -22.523 -16.482  0.00  0.00    +0.005 C 
ENDROOT
BRANCH   4   9
ATOM      7  O   UNL     1      33.240 -23.091 -19.368  0.00  0.00    -0.270 OA
ATOM      8  N   UNL     1      32.513 -20.961 -18.869  0.00  0.00    -0.297 N 
ATOM      9  C   UNL     1      32.868 -22.266 -18.522  0.00  0.00    +0.246 C 
ATOM     10  H   UNL     1      32.224 -20.345 -18.157  0.00  0.00    +0.150 HD
BRANCH   8  11
ATOM     11  C   UNL     1      32.552 -20.477 -20.230  0.00  0.00    +0.117 C 
BRANCH  11  12
ATOM     12  C   UNL     1      33.855 -19.804 -20.551  0.00  0.00    -0.003 C 
ATOM     13  C   UNL     1      35.013 -20.196 -19.887  0.00  0.00    -0.003 C 
ATOM     14  C   UNL     1      33.893 -18.795 -21.507  0.00  0.00    -0.003 C 
ATOM     15  C   UNL     1      36.224 -19.570 -20.185  0.00  0.00    -0.000 C 
ATOM     16  C   UNL     1      35.104 -18.171 -21.804  0.00  0.00    -0.000 C 
ATOM     17  C   UNL     1      36.269 -18.559 -21.143  0.00  0.00    -0.000 C 
ENDBRANCH  11  12
ENDBRANCH   8  11
ENDBRANCH   4   9
BRANCH   1  18
ATOM     18  O   UNL     1      34.840 -23.770 -14.349  0.00  0.00    -0.451 OA
BRANCH  18  24
ATOM     19  O   UNL     1      35.562 -22.689 -12.371  0.00  0.00    -0.316 OA
ATOM     20  C   UNL     1      37.497 -24.145 -12.041  0.00  0.00    +0.169 C 
ATOM     21  C   UNL     1      37.700 -24.207 -13.558  0.00  0.00    +0.173 C 
ATOM     22  C   UNL     1      36.022 -23.880 -11.712  0.00  0.00    +0.177 C 
ATOM     23  C   UNL     1      37.121 -22.956 -14.219  0.00  0.00    +0.210 C 
ATOM     24  C   UNL     1      35.665 -22.746 -13.796  0.00  0.00    +0.318 C 
BRANCH  21  25
ATOM     25  O   UNL     1      39.089 -24.299 -13.860  0.00  0.00    -0.379 OA
ATOM     26  H   UNL     1      39.386 -25.215 -13.742  0.00  0.00    +0.211 HD
ENDBRANCH  21  25
BRANCH  20  27
ATOM     27  O   UNL     1      38.290 -23.088 -11.495  0.00  0.00    -0.379 OA
ATOM     28  H   UNL     1      38.936 -23.457 -10.873  0.00  0.00    +0.211 HD
ENDBRANCH  20  27
BRANCH  23  29
ATOM     29  O   UNL     1      37.188 -23.070 -15.637  0.00  0.00    -0.377 OA
ATOM     30  H   UNL     1      36.373 -22.718 -16.028  0.00  0.00    +0.211 HD
ENDBRANCH  23  29
BRANCH  22  31
ATOM     31  C   UNL     1      35.785 -23.689 -10.219  0.00  0.00    +0.169 C 
BRANCH  31  32
ATOM     32  O   UNL     1      34.936 -24.726  -9.759  0.00  0.00    -0.379 OA
ATOM     33  H   UNL     1      34.044 -24.595 -10.114  0.00  0.00    +0.211 HD
ENDBRANCH  31  32
ENDBRANCH  22  31
ENDBRANCH  18  24
ENDBRANCH   1  18
TORSDOF 10
ENDMDL
MODEL 5
REMARK VINA RESULT:     -11.4      2.813      4.652
REMARK  Name = 445579
REMARK  10 active torsions:
REMARK  status: ('A' for Active; 'I' for Inactive)
REMARK    1  A    between atoms: C_1  and  O_18
REMARK    2  A    between atoms: C_4  and  C_9
REMARK    3  A    between atoms: N_8  and  C_11
REMARK    4  A    between atoms: C_11  and  C_12
REMARK    5  A    between atoms: O_18  and  C_24
REMARK    6  A    between atoms: C_20  and  O_27
REMARK    7  A    between atoms: C_21  and  O_25
REMARK    8  A    between atoms: C_22  and  C_31
REMARK    9  A    between atoms: C_23  and  O_29
REMARK   10  A    between atoms: C_31  and  O_32
REMARK                            x       y       z     vdW  Elec       q    Type
REMARK                         _______ _______ _______ _____ _____    ______ ____
ROOT
ATOM      1  C   UNL     1      33.417 -23.939 -14.243  0.00  0.00    +0.142 C 
ATOM      2  C   UNL     1      33.087 -23.242 -15.401  0.00  0.00    +0.042 C 
ATOM      3  C   UNL     1      32.420 -24.401 -13.389  0.00  0.00    +0.037 C 
ATOM      4  C   UNL     1      31.747 -23.003 -15.708  0.00  0.00    +0.056 C 
ATOM      5  C   UNL     1      31.081 -24.163 -13.696  0.00  0.00    +0.003 C 
ATOM      6  C   UNL     1      30.744 -23.464 -14.855  0.00  0.00    +0.005 C 
ENDROOT
BRANCH   4   9
ATOM      7  O   UNL     1      30.264 -21.804 -17.093  0.00  0.00    -0.270 OA
ATOM      8  N   UNL     1      32.419 -22.111 -17.853  0.00  0.00    -0.297 N 
ATOM      9  C   UNL     1      31.396 -22.275 -16.917  0.00  0.00    +0.246 C 
ATOM     10  H   UNL     1      33.302 -22.505 -17.663  0.00  0.00    +0.150 HD
BRANCH   8  11
ATOM     11  C   UNL     1      32.237 -21.384 -19.089  0.00  0.00    +0.117 C 
BRANCH  11  12
ATOM     12  C   UNL     1      33.516 -20.763 -19.570  0.00  0.00    -0.003 C 
ATOM     13  C   UNL     1      33.472 -19.741 -20.512  0.00  0.00    -0.003 C 
ATOM     14  C   UNL     1      34.732 -21.216 -19.070  0.00  0.00    -0.003 C 
ATOM     15  C   UNL     1      34.661 -19.164 -20.959  0.00  0.00    -0.000 C 
ATOM     16  C   UNL     1      35.920 -20.638 -19.517  0.00  0.00    -0.000 C 
ATOM     17  C   UNL     1      35.884 -19.612 -20.462  0.00  0.00    -0.000 C 
ENDBRANCH  11  12
ENDBRANCH   8  11
ENDBRANCH   4   9
BRANCH   1  18
ATOM     18  O   UNL     1      34.731 -24.172 -13.942  0.00  0.00    -0.451 OA
BRANCH  18  24
ATOM     19  O   UNL     1      35.537 -22.793 -12.197  0.00  0.00    -0.316 OA
ATOM     20  C   UNL     1      37.596 -24.067 -11.868  0.00  0.00    +0.169 C 
ATOM     21  C   UNL     1      37.672 -24.319 -13.377  0.00  0.00    +0.173 C 
ATOM     22  C   UNL     1      36.139 -23.852 -11.437  0.00  0.00    +0.177 C 
ATOM     23  C   UNL     1      36.948 -23.208 -14.135  0.00  0.00    +0.210 C 
ATOM     24  C   UNL     1      35.522 -23.034 -13.607  0.00  0.00    +0.318 C 
BRANCH  21  25
ATOM     25  O   UNL     1      39.033 -24.365 -13.795  0.00  0.00    -0.379 OA
ATOM     26  H   UNL     1      39.429 -25.206 -13.517  0.00  0.00    +0.211 HD
ENDBRANCH  21  25
BRANCH  20  27
ATOM     27  O   UNL     1      38.352 -22.899 -11.540  0.00  0.00    -0.379 OA
ATOM     28  H   UNL     1      39.247 -22.981 -11.904  0.00  0.00    +0.211 HD
ENDBRANCH  20  27
BRANCH  23  29
ATOM     29  O   UNL     1      36.901 -23.507 -15.526  0.00  0.00    -0.377 OA
ATOM     30  H   UNL     1      35.977 -23.611 -15.804  0.00  0.00    +0.211 HD
ENDBRANCH  23  29
BRANCH  22  31
ATOM     31  C   UNL     1      36.017 -23.477  -9.965  0.00  0.00    +0.169 C 
BRANCH  31  32
ATOM     32  O   UNL     1      34.989 -24.259  -9.383  0.00  0.00    -0.379 OA
ATOM     33  H   UNL     1      34.967 -24.103  -8.426  0.00  0.00    +0.211 HD
ENDBRANCH  31  32
ENDBRANCH  22  31
ENDBRANCH  18  24
ENDBRANCH   1  18
TORSDOF 10
ENDMDL
MODEL 6
REMARK VINA RESULT:     -11.2      2.696      5.091
REMARK  Name = 445579
REMARK  10 active torsions:
REMARK  status: ('A' for Active; 'I' for Inactive)
REMARK    1  A    between atoms: C_1  and  O_18
REMARK    2  A    between atoms: C_4  and  C_9
REMARK    3  A    between atoms: N_8  and  C_11
REMARK    4  A    between atoms: C_11  and  C_12
REMARK    5  A    between atoms: O_18  and  C_24
REMARK    6  A    between atoms: C_20  and  O_27
REMARK    7  A    between atoms: C_21  and  O_25
REMARK    8  A    between atoms: C_22  and  C_31
REMARK    9  A    between atoms: C_23  and  O_29
REMARK   10  A    between atoms: C_31  and  O_32
REMARK                            x       y       z     vdW  Elec       q    Type
REMARK                         _______ _______ _______ _____ _____    ______ ____
ROOT
ATOM      1  C   UNL     1      32.948 -23.848 -14.016  0.00  0.00    +0.142 C 
ATOM      2  C   UNL     1      32.596 -23.110 -15.142  0.00  0.00    +0.042 C 
ATOM      3  C   UNL     1      31.989 -24.582 -13.324  0.00  0.00    +0.037 C 
ATOM      4  C   UNL     1      31.271 -23.105 -15.580  0.00  0.00    +0.056 C 
ATOM      5  C   UNL     1      30.665 -24.577 -13.763  0.00  0.00    +0.003 C 
ATOM      6  C   UNL     1      30.306 -23.840 -14.891  0.00  0.00    +0.005 C 
ENDROOT
BRANCH   4   9
ATOM      7  O   UNL     1      29.733 -21.961 -16.952  0.00  0.00    -0.270 OA
ATOM      8  N   UNL     1      31.933 -22.018 -17.636  0.00  0.00    -0.297 N 
ATOM      9  C   UNL     1      30.897 -22.336 -16.757  0.00  0.00    +0.246 C 
ATOM     10  H   UNL     1      32.842 -22.341 -17.434  0.00  0.00    +0.150 HD
BRANCH   8  11
ATOM     11  C   UNL     1      31.728 -21.233 -18.833  0.00  0.00    +0.117 C 
BRANCH  11  12
ATOM     12  C   UNL     1      33.026 -20.794 -19.446  0.00  0.00    -0.003 C 
ATOM     13  C   UNL     1      34.214 -21.398 -19.049  0.00  0.00    -0.003 C 
ATOM     14  C   UNL     1      33.028 -19.786 -20.404  0.00  0.00    -0.003 C 
ATOM     15  C   UNL     1      35.420 -20.989 -19.618  0.00  0.00    -0.000 C 
ATOM     16  C   UNL     1      34.234 -19.379 -20.974  0.00  0.00    -0.000 C 
ATOM     17  C   UNL     1      35.430 -19.980 -20.581  0.00  0.00    -0.000 C 
ENDBRANCH  11  12
ENDBRANCH   8  11
ENDBRANCH   4   9
BRANCH   1  18
ATOM     18  O   UNL     1      34.246 -23.853 -13.586  0.00  0.00    -0.451 OA
BRANCH  18  24
ATOM     19  O   UNL     1      35.552 -23.683 -15.553  0.00  0.00    -0.316 OA
ATOM     20  C   UNL     1      37.501 -22.741 -14.420  0.00  0.00    +0.169 C 
ATOM     21  C   UNL     1      37.212 -23.626 -13.203  0.00  0.00    +0.173 C 
ATOM     22  C   UNL     1      36.205 -22.457 -15.190  0.00  0.00    +0.177 C 
ATOM     23  C   UNL     1      36.445 -24.877 -13.631  0.00  0.00    +0.210 C 
ATOM     24  C   UNL     1      35.197 -24.498 -14.432  0.00  0.00    +0.318 C 
BRANCH  21  25
ATOM     25  O   UNL     1      38.433 -24.013 -12.580  0.00  0.00    -0.379 OA
ATOM     26  H   UNL     1      38.679 -24.904 -12.875  0.00  0.00    +0.211 HD
ENDBRANCH  21  25
BRANCH  20  27
ATOM     27  O   UNL     1      38.419 -23.409 -15.289  0.00  0.00    -0.379 OA
ATOM     28  H   UNL     1      39.239 -22.894 -15.351  0.00  0.00    +0.211 HD
ENDBRANCH  20  27
BRANCH  23  29
ATOM     29  O   UNL     1      36.058 -25.634 -12.489  0.00  0.00    -0.377 OA
ATOM     30  H   UNL     1      36.025 -26.576 -12.721  0.00  0.00    +0.211 HD
ENDBRANCH  23  29
BRANCH  22  31
ATOM     31  C   UNL     1      36.454 -21.680 -16.478  0.00  0.00    +0.169 C 
BRANCH  31  32
ATOM     32  O   UNL     1      37.207 -20.521 -16.170  0.00  0.00    -0.379 OA
ATOM     33  H   UNL     1      37.061 -20.277 -15.243  0.00  0.00    +0.211 HD
ENDBRANCH  31  32
ENDBRANCH  22  31
ENDBRANCH  18  24
ENDBRANCH   1  18
TORSDOF 10
ENDMDL
MODEL 7
REMARK VINA RESULT:     -11.2      1.914      3.806
REMARK  Name = 445579
REMARK  10 active torsions:
REMARK  status: ('A' for Active; 'I' for Inactive)
REMARK    1  A    between atoms: C_1  and  O_18
REMARK    2  A    between atoms: C_4  and  C_9
REMARK    3  A    between atoms: N_8  and  C_11
REMARK    4  A    between atoms: C_11  and  C_12
REMARK    5  A    between atoms: O_18  and  C_24
REMARK    6  A    between atoms: C_20  and  O_27
REMARK    7  A    between atoms: C_21  and  O_25
REMARK    8  A    between atoms: C_22  and  C_31
REMARK    9  A    between atoms: C_23  and  O_29
REMARK   10  A    between atoms: C_31  and  O_32
REMARK                            x       y       z     vdW  Elec       q    Type
REMARK                         _______ _______ _______ _____ _____    ______ ____
ROOT
ATOM      1  C   UNL     1      35.553 -22.198 -15.202  0.00  0.00    +0.142 C 
ATOM      2  C   UNL     1      34.739 -22.197 -16.330  0.00  0.00    +0.042 C 
ATOM      3  C   UNL     1      36.852 -21.704 -15.267  0.00  0.00    +0.037 C 
ATOM      4  C   UNL     1      35.230 -21.697 -17.537  0.00  0.00    +0.056 C 
ATOM      5  C   UNL     1      37.342 -21.204 -16.474  0.00  0.00    +0.003 C 
ATOM      6  C   UNL     1      36.531 -21.200 -17.608  0.00  0.00    +0.005 C 
ENDROOT
BRANCH   4   9
ATOM      7  O   UNL     1      33.689 -22.670 -19.032  0.00  0.00    -0.270 OA
ATOM      8  N   UNL     1      34.373 -20.512 -19.463  0.00  0.00    -0.297 N 
ATOM      9  C   UNL     1      34.383 -21.693 -18.720  0.00  0.00    +0.246 C 
ATOM     10  H   UNL     1      34.943 -19.763 -19.170  0.00  0.00    +0.150 HD
BRANCH   8  11
ATOM     11  C   UNL     1      33.559 -20.340 -20.646  0.00  0.00    +0.117 C 
BRANCH  11  12
ATOM     12  C   UNL     1      34.002 -19.165 -21.467  0.00  0.00    -0.003 C 
ATOM     13  C   UNL     1      33.574 -19.046 -22.785  0.00  0.00    -0.003 C 
ATOM     14  C   UNL     1      34.837 -18.206 -20.904  0.00  0.00    -0.003 C 
ATOM     15  C   UNL     1      33.986 -17.953 -23.549  0.00  0.00    -0.000 C 
ATOM     16  C   UNL     1      35.248 -17.114 -21.668  0.00  0.00    -0.000 C 
ATOM     17  C   UNL     1      34.823 -16.988 -22.990  0.00  0.00    -0.000 C 
ENDBRANCH  11  12
ENDBRANCH   8  11
ENDBRANCH   4   9
BRANCH   1  18
ATOM     18  O   UNL     1      35.072 -22.688 -14.018  0.00  0.00    -0.451 OA
BRANCH  18  24
ATOM     19  O   UNL     1      36.175 -24.777 -14.162  0.00  0.00    -0.316 OA
ATOM     20  C   UNL     1      36.735 -24.873 -11.785  0.00  0.00    +0.169 C 
ATOM     21  C   UNL     1      35.399 -24.203 -11.451  0.00  0.00    +0.173 C 
ATOM     22  C   UNL     1      37.192 -24.474 -13.195  0.00  0.00    +0.177 C 
ATOM     23  C   UNL     1      34.376 -24.489 -12.550  0.00  0.00    +0.210 C 
ATOM     24  C   UNL     1      34.936 -24.105 -13.922  0.00  0.00    +0.318 C 
BRANCH  21  25
ATOM     25  O   UNL     1      34.905 -24.695 -10.209  0.00  0.00    -0.379 OA
ATOM     26  H   UNL     1      34.516 -23.964  -9.702  0.00  0.00    +0.211 HD
ENDBRANCH  21  25
BRANCH  20  27
ATOM     27  O   UNL     1      36.584 -26.293 -11.733  0.00  0.00    -0.379 OA
ATOM     28  H   UNL     1      37.459 -26.710 -11.693  0.00  0.00    +0.211 HD
ENDBRANCH  20  27
BRANCH  23  29
ATOM     29  O   UNL     1      33.176 -23.761 -12.311  0.00  0.00    -0.377 OA
ATOM     30  H   UNL     1      32.650 -23.727 -13.126  0.00  0.00    +0.211 HD
ENDBRANCH  23  29
BRANCH  22  31
ATOM     31  C   UNL     1      38.457 -25.207 -13.625  0.00  0.00    +0.169 C 
BRANCH  31  32
ATOM     32  O   UNL     1      38.084 -26.416 -14.262  0.00  0.00    -0.379 OA
ATOM     33  H   UNL     1      37.859 -27.079 -13.592  0.00  0.00    +0.211 HD
ENDBRANCH  31  32
ENDBRANCH  22  31
ENDBRANCH  18  24
ENDBRANCH   1  18
TORSDOF 10
ENDMDL
MODEL 8
REMARK VINA RESULT:     -10.7      3.020      4.973
REMARK  Name = 445579
REMARK  10 active torsions:
REMARK  status: ('A' for Active; 'I' for Inactive)
REMARK    1  A    between atoms: C_1  and  O_18
REMARK    2  A    between atoms: C_4  and  C_9
REMARK    3  A    between atoms: N_8  and  C_11
REMARK    4  A    between atoms: C_11  and  C_12
REMARK    5  A    between atoms: O_18  and  C_24
REMARK    6  A    between atoms: C_20  and  O_27
REMARK    7  A    between atoms: C_21  and  O_25
REMARK    8  A    between atoms: C_22  and  C_31
REMARK    9  A    between atoms: C_23  and  O_29
REMARK   10  A    between atoms: C_31  and  O_32
REMARK                            x       y       z     vdW  Elec       q    Type
REMARK                         _______ _______ _______ _____ _____    ______ ____
ROOT
ATOM      1  C   UNL     1      33.573 -23.287 -13.917  0.00  0.00    +0.142 C 
ATOM      2  C   UNL     1      33.208 -22.718 -15.133  0.00  0.00    +0.042 C 
ATOM      3  C   UNL     1      32.640 -23.982 -13.153  0.00  0.00    +0.037 C 
ATOM      4  C   UNL     1      31.896 -22.845 -15.590  0.00  0.00    +0.056 C 
ATOM      5  C   UNL     1      31.329 -24.109 -13.611  0.00  0.00    +0.003 C 
ATOM      6  C   UNL     1      30.957 -23.541 -14.829  0.00  0.00    +0.005 C 
ENDROOT
BRANCH   4   9
ATOM      7  O   UNL     1      30.331 -21.969 -17.119  0.00  0.00    -0.270 OA
ATOM      8  N   UNL     1      32.545 -21.995 -17.759  0.00  0.00    -0.297 N 
ATOM      9  C   UNL     1      31.509 -22.254 -16.861  0.00  0.00    +0.246 C 
ATOM     10  H   UNL     1      33.465 -22.240 -17.503  0.00  0.00    +0.150 HD
BRANCH   8  11
ATOM     11  C   UNL     1      32.326 -21.381 -19.049  0.00  0.00    +0.117 C 
BRANCH  11  12
ATOM     12  C   UNL     1      33.569 -20.729 -19.580  0.00  0.00    -0.003 C 
ATOM     13  C   UNL     1      34.813 -21.132 -19.107  0.00  0.00    -0.003 C 
ATOM     14  C   UNL     1      33.465 -19.726 -20.538  0.00  0.00    -0.003 C 
ATOM     15  C   UNL     1      35.969 -20.525 -19.600  0.00  0.00    -0.000 C 
ATOM     16  C   UNL     1      34.621 -19.121 -21.031  0.00  0.00    -0.000 C 
ATOM     17  C   UNL     1      35.872 -19.520 -20.562  0.00  0.00    -0.000 C 
ENDBRANCH  11  12
ENDBRANCH   8  11
ENDBRANCH   4   9
BRANCH   1  18
ATOM     18  O   UNL     1      34.860 -23.162 -13.468  0.00  0.00    -0.451 OA
BRANCH  18  24
ATOM     19  O   UNL     1      35.574 -25.380 -13.054  0.00  0.00    -0.316 OA
ATOM     20  C   UNL     1      37.952 -24.878 -13.313  0.00  0.00    +0.169 C 
ATOM     21  C   UNL     1      37.726 -23.511 -12.659  0.00  0.00    +0.173 C 
ATOM     22  C   UNL     1      36.663 -25.362 -13.990  0.00  0.00    +0.177 C 
ATOM     23  C   UNL     1      36.510 -23.562 -11.736  0.00  0.00    +0.210 C 
ATOM     24  C   UNL     1      35.287 -24.101 -12.482  0.00  0.00    +0.318 C 
BRANCH  21  25
ATOM     25  O   UNL     1      38.875 -23.137 -11.904  0.00  0.00    -0.379 OA
ATOM     26  H   UNL     1      39.168 -23.889 -11.365  0.00  0.00    +0.211 HD
ENDBRANCH  21  25
BRANCH  20  27
ATOM     27  O   UNL     1      38.335 -25.827 -12.316  0.00  0.00    -0.379 OA
ATOM     28  H   UNL     1      37.712 -25.786 -11.574  0.00  0.00    +0.211 HD
ENDBRANCH  20  27
BRANCH  23  29
ATOM     29  O   UNL     1      36.218 -22.264 -11.230  0.00  0.00    -0.377 OA
ATOM     30  H   UNL     1      36.744 -22.102 -10.431  0.00  0.00    +0.211 HD
ENDBRANCH  23  29
BRANCH  22  31
ATOM     31  C   UNL     1      36.797 -26.772 -14.554  0.00  0.00    +0.169 C 
BRANCH  31  32
ATOM     32  O   UNL     1      36.403 -26.754 -15.915  0.00  0.00    -0.379 OA
ATOM     33  H   UNL     1      35.642 -26.164 -16.024  0.00  0.00    +0.211 HD
ENDBRANCH  31  32
ENDBRANCH  22  31
ENDBRANCH  18  24
ENDBRANCH   1  18
TORSDOF 10
ENDMDL
MODEL 9
REMARK VINA RESULT:     -10.7      5.117     11.355
REMARK  Name = 445579
REMARK  10 active torsions:
REMARK  status: ('A' for Active; 'I' for Inactive)
REMARK    1  A    between atoms: C_1  and  O_18
REMARK    2  A    between atoms: C_4  and  C_9
REMARK    3  A    between atoms: N_8  and  C_11
REMARK    4  A    between atoms: C_11  and  C_12
REMARK    5  A    between atoms: O_18  and  C_24
REMARK    6  A    between atoms: C_20  and  O_27
REMARK    7  A    between atoms: C_21  and  O_25
REMARK    8  A    between atoms: C_22  and  C_31
REMARK    9  A    between atoms: C_23  and  O_29
REMARK   10  A    between atoms: C_31  and  O_32
REMARK                            x       y       z     vdW  Elec       q    Type
REMARK                         _______ _______ _______ _____ _____    ______ ____
ROOT
ATOM      1  C   UNL     1      33.074 -13.904 -23.609  0.00  0.00    +0.142 C 
ATOM      2  C   UNL     1      33.654 -14.589 -22.545  0.00  0.00    +0.042 C 
ATOM      3  C   UNL     1      33.041 -14.471 -24.880  0.00  0.00    +0.037 C 
ATOM      4  C   UNL     1      34.208 -15.852 -22.755  0.00  0.00    +0.056 C 
ATOM      5  C   UNL     1      33.594 -15.734 -25.088  0.00  0.00    +0.003 C 
ATOM      6  C   UNL     1      34.177 -16.424 -24.027  0.00  0.00    +0.005 C 
ENDROOT
BRANCH   4   9
ATOM      7  O   UNL     1      34.704 -16.186 -20.476  0.00  0.00    -0.270 OA
ATOM      8  N   UNL     1      35.502 -17.742 -21.978  0.00  0.00    -0.297 N 
ATOM      9  C   UNL     1      34.815 -16.572 -21.647  0.00  0.00    +0.246 C 
ATOM     10  H   UNL     1      35.559 -18.005 -22.926  0.00  0.00    +0.150 HD
BRANCH   8  11
ATOM     11  C   UNL     1      36.132 -18.584 -20.986  0.00  0.00    +0.117 C 
BRANCH  11  12
ATOM     12  C   UNL     1      35.169 -19.569 -20.391  0.00  0.00    -0.003 C 
ATOM     13  C   UNL     1      35.642 -20.578 -19.560  0.00  0.00    -0.003 C 
ATOM     14  C   UNL     1      33.812 -19.465 -20.678  0.00  0.00    -0.003 C 
ATOM     15  C   UNL     1      34.747 -21.494 -19.007  0.00  0.00    -0.000 C 
ATOM     16  C   UNL     1      32.918 -20.381 -20.124  0.00  0.00    -0.000 C 
ATOM     17  C   UNL     1      33.385 -21.395 -19.289  0.00  0.00    -0.000 C 
ENDBRANCH  11  12
ENDBRANCH   8  11
ENDBRANCH   4   9
BRANCH   1  18
ATOM     18  O   UNL     1      32.531 -12.665 -23.403  0.00  0.00    -0.451 OA
BRANCH  18  24
ATOM     19  O   UNL     1      33.585 -10.703 -22.604  0.00  0.00    -0.316 OA
ATOM     20  C   UNL     1      31.500  -9.463 -22.303  0.00  0.00    +0.169 C 
ATOM     21  C   UNL     1      30.804 -10.756 -21.865  0.00  0.00    +0.173 C 
ATOM     22  C   UNL     1      32.679  -9.783 -23.232  0.00  0.00    +0.177 C 
ATOM     23  C   UNL     1      31.824 -11.732 -21.279  0.00  0.00    +0.210 C 
ATOM     24  C   UNL     1      32.983 -11.952 -22.254  0.00  0.00    +0.318 C 
BRANCH  21  25
ATOM     25  O   UNL     1      29.812 -10.467 -20.885  0.00  0.00    -0.379 OA
ATOM     26  H   UNL     1      29.543  -9.538 -20.960  0.00  0.00    +0.211 HD
ENDBRANCH  21  25
BRANCH  20  27
ATOM     27  O   UNL     1      31.993  -8.773 -21.152  0.00  0.00    -0.379 OA
ATOM     28  H   UNL     1      32.262  -9.418 -20.479  0.00  0.00    +0.211 HD
ENDBRANCH  20  27
BRANCH  23  29
ATOM     29  O   UNL     1      31.204 -12.982 -20.995  0.00  0.00    -0.377 OA
ATOM     30  H   UNL     1      30.265 -12.840 -20.798  0.00  0.00    +0.211 HD
ENDBRANCH  23  29
BRANCH  22  31
ATOM     31  C   UNL     1      33.481  -8.540 -23.601  0.00  0.00    +0.169 C 
BRANCH  31  32
ATOM     32  O   UNL     1      34.856  -8.880 -23.627  0.00  0.00    -0.379 OA
ATOM     33  H   UNL     1      35.072  -9.288 -24.479  0.00  0.00    +0.211 HD
ENDBRANCH  31  32
ENDBRANCH  22  31
ENDBRANCH  18  24
ENDBRANCH   1  18
TORSDOF 10
ENDMDL
