MODEL 1
REMARK VINA RESULT:     -10.2      0.000      0.000
REMARK  Name = 45270264
REMARK  5 active torsions:
REMARK  status: ('A' for Active; 'I' for Inactive)
REMARK    1  A    between atoms: N_2  and  C_20
REMARK    2  A    between atoms: N_3  and  C_7
REMARK    3  A    between atoms: N_3  and  O_18
REMARK    4  A    between atoms: C_8  and  C_12
REMARK    5  A    between atoms: C_20  and  C_24
REMARK                            x       y       z     vdW  Elec       q    Type
REMARK                         _______ _______ _______ _____ _____    ______ ____
ROOT
ATOM      1  O   UNL     1      34.249 -22.229 -17.946  0.00  0.00    -0.273 OA
ATOM      2  N   UNL     1      34.203 -22.650 -15.608  0.00  0.00    -0.253 N 
ATOM      3  C   UNL     1      33.158 -22.887 -14.694  0.00  0.00    +0.052 C 
ATOM      4  C   UNL     1      31.924 -22.857 -15.345  0.00  0.00    +0.018 C 
ATOM      5  C   UNL     1      33.707 -22.457 -16.886  0.00  0.00    +0.252 C 
ATOM      6  C   UNL     1      32.210 -22.588 -16.742  0.00  0.00    +0.202 C 
ATOM      7  C   UNL     1      30.726 -23.058 -14.694  0.00  0.00    -0.001 C 
ATOM      8  C   UNL     1      33.228 -23.125 -13.333  0.00  0.00    +0.015 C 
ATOM      9  C   UNL     1      30.788 -23.300 -13.320  0.00  0.00    -0.000 C 
ATOM     10  C   UNL     1      32.025 -23.332 -12.647  0.00  0.00    +0.001 C 
ENDROOT
BRANCH   7  11
ATOM     11  C   UNL     1      29.450 -23.028 -15.369  0.00  0.00    -0.000 C 
ATOM     12  C   UNL     1      28.955 -24.180 -15.979  0.00  0.00    -0.000 C 
ATOM     13  C   UNL     1      28.711 -21.845 -15.412  0.00  0.00    -0.000 C 
ATOM     14  C   UNL     1      27.722 -24.151 -16.630  0.00  0.00    -0.000 C 
ATOM     15  C   UNL     1      27.478 -21.815 -16.064  0.00  0.00    -0.000 C 
ATOM     16  C   UNL     1      26.984 -22.968 -16.673  0.00  0.00    -0.000 C 
ENDBRANCH   7  11
BRANCH   6  17
ATOM     17  N   UNL     1      31.388 -22.471 -17.722  0.00  0.00    -0.075 NA
BRANCH  17  18
ATOM     18  O   UNL     1      31.746 -21.346 -18.471  0.00  0.00    -0.294 OA
ATOM     19  H   UNL     1      31.117 -20.937 -19.031  0.00  0.00    +0.238 HD
ENDBRANCH  17  18
ENDBRANCH   6  17
BRANCH   2  20
ATOM     20  C   UNL     1      35.596 -22.620 -15.231  0.00  0.00    +0.128 C 
BRANCH  20  24
ATOM     21  F   UNL     1      36.249 -27.418 -15.672  0.00  0.00    -0.204 F 
ATOM     22  O   UNL     1      36.680 -22.839 -12.663  0.00  0.00    -0.448 OA
ATOM     23  O   UNL     1      37.181 -24.157 -10.720  0.00  0.00    -0.311 OA
ATOM     24  C   UNL     1      36.051 -23.930 -14.658  0.00  0.00    +0.034 C 
ATOM     25  C   UNL     1      36.592 -24.008 -13.374  0.00  0.00    +0.138 C 
ATOM     26  C   UNL     1      36.998 -25.241 -12.849  0.00  0.00    +0.043 C 
ATOM     27  C   UNL     1      35.936 -25.084 -15.433  0.00  0.00    +0.030 C 
ATOM     28  C   UNL     1      37.574 -25.307 -11.467  0.00  0.00    +0.176 C 
ATOM     29  C   UNL     1      36.889 -26.392 -13.637  0.00  0.00    +0.031 C 
ATOM     30  C   UNL     1      36.357 -26.312 -14.925  0.00  0.00    +0.140 C 
ATOM     31  C   UNL     1      37.449 -22.969 -11.462  0.00  0.00    +0.361 C 
ENDBRANCH  20  24
ENDBRANCH   2  20
TORSDOF 5
ENDMDL
MODEL 2
REMARK VINA RESULT:     -10.0     12.803     15.636
REMARK  Name = 45270264
REMARK  5 active torsions:
REMARK  status: ('A' for Active; 'I' for Inactive)
REMARK    1  A    between atoms: N_2  and  C_20
REMARK    2  A    between atoms: N_3  and  C_7
REMARK    3  A    between atoms: N_3  and  O_18
REMARK    4  A    between atoms: C_8  and  C_12
REMARK    5  A    between atoms: C_20  and  C_24
REMARK                            x       y       z     vdW  Elec       q    Type
REMARK                         _______ _______ _______ _____ _____    ______ ____
ROOT
ATOM      1  O   UNL     1      31.970 -11.713 -20.145  0.00  0.00    -0.273 OA
ATOM      2  N   UNL     1      31.971 -11.605 -22.519  0.00  0.00    -0.253 N 
ATOM      3  C   UNL     1      32.400 -12.496 -23.522  0.00  0.00    +0.052 C 
ATOM      4  C   UNL     1      32.918 -13.659 -22.952  0.00  0.00    +0.018 C 
ATOM      5  C   UNL     1      32.187 -12.137 -21.259  0.00  0.00    +0.252 C 
ATOM      6  C   UNL     1      32.810 -13.490 -21.515  0.00  0.00    +0.202 C 
ATOM      7  C   UNL     1      33.412 -14.707 -23.700  0.00  0.00    -0.001 C 
ATOM      8  C   UNL     1      32.360 -12.346 -24.896  0.00  0.00    +0.015 C 
ATOM      9  C   UNL     1      33.375 -14.562 -25.087  0.00  0.00    -0.000 C 
ATOM     10  C   UNL     1      32.856 -13.394 -25.680  0.00  0.00    +0.001 C 
ENDROOT
BRANCH   7  11
ATOM     11  C   UNL     1      33.949 -15.910 -23.109  0.00  0.00    -0.000 C 
ATOM     12  C   UNL     1      34.661 -15.842 -21.912  0.00  0.00    -0.000 C 
ATOM     13  C   UNL     1      33.755 -17.142 -23.736  0.00  0.00    -0.000 C 
ATOM     14  C   UNL     1      35.178 -17.005 -21.341  0.00  0.00    -0.000 C 
ATOM     15  C   UNL     1      34.273 -18.304 -23.165  0.00  0.00    -0.000 C 
ATOM     16  C   UNL     1      34.985 -18.235 -21.967  0.00  0.00    -0.000 C 
ENDBRANCH   7  11
BRANCH   6  17
ATOM     17  N   UNL     1      33.159 -14.300 -20.581  0.00  0.00    -0.075 NA
BRANCH  17  18
ATOM     18  O   UNL     1      32.095 -14.429 -19.684  0.00  0.00    -0.294 OA
ATOM     19  H   UNL     1      32.238 -14.300 -18.767  0.00  0.00    +0.238 HD
ENDBRANCH  17  18
ENDBRANCH   6  17
BRANCH   2  20
ATOM     20  C   UNL     1      31.388 -10.315 -22.800  0.00  0.00    +0.128 C 
BRANCH  20  24
ATOM     21  F   UNL     1      35.759  -8.951 -24.435  0.00  0.00    -0.204 F 
ATOM     22  O   UNL     1      31.026  -7.677 -21.948  0.00  0.00    -0.448 OA
ATOM     23  O   UNL     1      31.942  -5.562 -21.278  0.00  0.00    -0.311 OA
ATOM     24  C   UNL     1      32.433  -9.256 -22.994  0.00  0.00    +0.034 C 
ATOM     25  C   UNL     1      32.222  -7.946 -22.562  0.00  0.00    +0.138 C 
ATOM     26  C   UNL     1      33.214  -6.973 -22.737  0.00  0.00    +0.043 C 
ATOM     27  C   UNL     1      33.629  -9.594 -23.627  0.00  0.00    +0.030 C 
ATOM     28  C   UNL     1      32.973  -5.572 -22.264  0.00  0.00    +0.176 C 
ATOM     29  C   UNL     1      34.407  -7.317 -23.382  0.00  0.00    +0.031 C 
ATOM     30  C   UNL     1      34.613  -8.625 -23.823  0.00  0.00    +0.140 C 
ATOM     31  C   UNL     1      30.801  -6.276 -21.747  0.00  0.00    +0.361 C 
ENDBRANCH  20  24
ENDBRANCH   2  20
TORSDOF 5
ENDMDL
MODEL 3
REMARK VINA RESULT:      -9.8      2.402      4.505
REMARK  Name = 45270264
REMARK  5 active torsions:
REMARK  status: ('A' for Active; 'I' for Inactive)
REMARK    1  A    between atoms: N_2  and  C_20
REMARK    2  A    between atoms: N_3  and  C_7
REMARK    3  A    between atoms: N_3  and  O_18
REMARK    4  A    between atoms: C_8  and  C_12
REMARK    5  A    between atoms: C_20  and  C_24
REMARK                            x       y       z     vdW  Elec       q    Type
REMARK                         _______ _______ _______ _____ _____    ______ ____
ROOT
ATOM      1  O   UNL     1      31.321 -23.476 -16.089  0.00  0.00    -0.273 OA
ATOM      2  N   UNL     1      33.591 -23.178 -15.452  0.00  0.00    -0.253 N 
ATOM      3  C   UNL     1      34.679 -22.516 -16.053  0.00  0.00    +0.052 C 
ATOM      4  C   UNL     1      34.290 -21.937 -17.262  0.00  0.00    +0.018 C 
ATOM      5  C   UNL     1      32.452 -23.064 -16.231  0.00  0.00    +0.252 C 
ATOM      6  C   UNL     1      32.884 -22.251 -17.428  0.00  0.00    +0.202 C 
ATOM      7  C   UNL     1      35.155 -21.223 -18.065  0.00  0.00    -0.001 C 
ATOM      8  C   UNL     1      35.981 -22.393 -15.603  0.00  0.00    +0.015 C 
ATOM      9  C   UNL     1      36.470 -21.095 -17.617  0.00  0.00    -0.000 C 
ATOM     10  C   UNL     1      36.880 -21.674 -16.400  0.00  0.00    +0.001 C 
ENDROOT
BRANCH   7  11
ATOM     11  C   UNL     1      34.751 -20.624 -19.315  0.00  0.00    -0.000 C 
ATOM     12  C   UNL     1      33.397 -20.477 -19.615  0.00  0.00    -0.000 C 
ATOM     13  C   UNL     1      35.717 -20.192 -20.225  0.00  0.00    -0.000 C 
ATOM     14  C   UNL     1      33.008 -19.898 -20.822  0.00  0.00    -0.000 C 
ATOM     15  C   UNL     1      35.327 -19.613 -21.434  0.00  0.00    -0.000 C 
ATOM     16  C   UNL     1      33.973 -19.466 -21.731  0.00  0.00    -0.000 C 
ENDBRANCH   7  11
BRANCH   6  17
ATOM     17  N   UNL     1      32.097 -21.929 -18.391  0.00  0.00    -0.075 NA
BRANCH  17  18
ATOM     18  O   UNL     1      30.888 -21.484 -17.846  0.00  0.00    -0.294 OA
ATOM     19  H   UNL     1      30.601 -21.809 -17.016  0.00  0.00    +0.238 HD
ENDBRANCH  17  18
ENDBRANCH   6  17
BRANCH   2  20
ATOM     20  C   UNL     1      33.684 -23.873 -14.191  0.00  0.00    +0.128 C 
BRANCH  20  24
ATOM     21  F   UNL     1      36.699 -27.297 -15.874  0.00  0.00    -0.204 F 
ATOM     22  O   UNL     1      35.516 -23.459 -12.120  0.00  0.00    -0.448 OA
ATOM     23  O   UNL     1      37.305 -24.259 -10.733  0.00  0.00    -0.311 OA
ATOM     24  C   UNL     1      34.957 -24.659 -14.074  0.00  0.00    +0.034 C 
ATOM     25  C   UNL     1      35.855 -24.427 -13.031  0.00  0.00    +0.138 C 
ATOM     26  C   UNL     1      37.031 -25.180 -12.927  0.00  0.00    +0.043 C 
ATOM     27  C   UNL     1      35.244 -25.629 -15.034  0.00  0.00    +0.030 C 
ATOM     28  C   UNL     1      37.982 -24.921 -11.799  0.00  0.00    +0.176 C 
ATOM     29  C   UNL     1      37.317 -26.143 -13.900  0.00  0.00    +0.031 C 
ATOM     30  C   UNL     1      36.423 -26.368 -14.949  0.00  0.00    +0.140 C 
ATOM     31  C   UNL     1      36.587 -23.131 -11.227  0.00  0.00    +0.361 C 
ENDBRANCH  20  24
ENDBRANCH   2  20
TORSDOF 5
ENDMDL
MODEL 4
REMARK VINA RESULT:      -9.7     11.184     14.233
REMARK  Name = 45270264
REMARK  5 active torsions:
REMARK  status: ('A' for Active; 'I' for Inactive)
REMARK    1  A    between atoms: N_2  and  C_20
REMARK    2  A    between atoms: N_3  and  C_7
REMARK    3  A    between atoms: N_3  and  O_18
REMARK    4  A    between atoms: C_8  and  C_12
REMARK    5  A    between atoms: C_20  and  C_24
REMARK                            x       y       z     vdW  Elec       q    Type
REMARK                         _______ _______ _______ _____ _____    ______ ____
ROOT
ATOM      1  O   UNL     1      33.821 -12.586 -21.013  0.00  0.00    -0.273 OA
ATOM      2  N   UNL     1      33.493 -13.434 -23.209  0.00  0.00    -0.253 N 
ATOM      3  C   UNL     1      33.603 -14.721 -23.769  0.00  0.00    +0.052 C 
ATOM      4  C   UNL     1      33.983 -15.646 -22.795  0.00  0.00    +0.018 C 
ATOM      5  C   UNL     1      33.793 -13.455 -21.857  0.00  0.00    +0.252 C 
ATOM      6  C   UNL     1      34.119 -14.900 -21.559  0.00  0.00    +0.202 C 
ATOM      7  C   UNL     1      34.166 -16.986 -23.063  0.00  0.00    -0.001 C 
ATOM      8  C   UNL     1      33.390 -15.125 -25.074  0.00  0.00    +0.015 C 
ATOM      9  C   UNL     1      33.953 -17.401 -24.378  0.00  0.00    -0.000 C 
ATOM     10  C   UNL     1      33.569 -16.481 -25.374  0.00  0.00    +0.001 C 
ENDROOT
BRANCH   7  11
ATOM     11  C   UNL     1      34.560 -17.942 -22.054  0.00  0.00    -0.000 C 
ATOM     12  C   UNL     1      35.887 -18.002 -21.629  0.00  0.00    -0.000 C 
ATOM     13  C   UNL     1      33.612 -18.806 -21.505  0.00  0.00    -0.000 C 
ATOM     14  C   UNL     1      36.266 -18.925 -20.654  0.00  0.00    -0.000 C 
ATOM     15  C   UNL     1      33.992 -19.730 -20.531  0.00  0.00    -0.000 C 
ATOM     16  C   UNL     1      35.319 -19.789 -20.106  0.00  0.00    -0.000 C 
ENDBRANCH   7  11
BRANCH   6  17
ATOM     17  N   UNL     1      34.451 -15.327 -20.394  0.00  0.00    -0.075 NA
BRANCH  17  18
ATOM     18  O   UNL     1      33.442 -14.982 -19.489  0.00  0.00    -0.294 OA
ATOM     19  H   UNL     1      32.578 -15.325 -19.599  0.00  0.00    +0.238 HD
ENDBRANCH  17  18
ENDBRANCH   6  17
BRANCH   2  20
ATOM     20  C   UNL     1      33.115 -12.267 -23.970  0.00  0.00    +0.128 C 
BRANCH  20  24
ATOM     21  F   UNL     1      29.673 -11.021 -20.769  0.00  0.00    -0.204 F 
ATOM     22  O   UNL     1      33.981  -9.610 -23.878  0.00  0.00    -0.448 OA
ATOM     23  O   UNL     1      33.538  -7.291 -23.447  0.00  0.00    -0.311 OA
ATOM     24  C   UNL     1      32.446 -11.231 -23.114  0.00  0.00    +0.034 C 
ATOM     25  C   UNL     1      32.903  -9.913 -23.086  0.00  0.00    +0.138 C 
ATOM     26  C   UNL     1      32.257  -8.955 -22.296  0.00  0.00    +0.043 C 
ATOM     27  C   UNL     1      31.354 -11.604 -22.331  0.00  0.00    +0.030 C 
ATOM     28  C   UNL     1      32.759  -7.544 -22.280  0.00  0.00    +0.176 C 
ATOM     29  C   UNL     1      31.170  -9.339 -21.504  0.00  0.00    +0.031 C 
ATOM     30  C   UNL     1      30.719 -10.660 -21.524  0.00  0.00    +0.140 C 
ATOM     31  C   UNL     1      34.521  -8.309 -23.617  0.00  0.00    +0.361 C 
ENDBRANCH  20  24
ENDBRANCH   2  20
TORSDOF 5
ENDMDL
MODEL 5
REMARK VINA RESULT:      -9.7      2.917      5.142
REMARK  Name = 45270264
REMARK  5 active torsions:
REMARK  status: ('A' for Active; 'I' for Inactive)
REMARK    1  A    between atoms: N_2  and  C_20
REMARK    2  A    between atoms: N_3  and  C_7
REMARK    3  A    between atoms: N_3  and  O_18
REMARK    4  A    between atoms: C_8  and  C_12
REMARK    5  A    between atoms: C_20  and  C_24
REMARK                            x       y       z     vdW  Elec       q    Type
REMARK                         _______ _______ _______ _____ _____    ______ ____
ROOT
ATOM      1  O   UNL     1      36.936 -21.756 -15.265  0.00  0.00    -0.273 OA
ATOM      2  N   UNL     1      34.736 -22.477 -15.801  0.00  0.00    -0.253 N 
ATOM      3  C   UNL     1      33.890 -22.245 -16.903  0.00  0.00    +0.052 C 
ATOM      4  C   UNL     1      34.519 -21.420 -17.836  0.00  0.00    +0.018 C 
ATOM      5  C   UNL     1      35.945 -21.822 -15.960  0.00  0.00    +0.252 C 
ATOM      6  C   UNL     1      35.830 -21.119 -17.292  0.00  0.00    +0.202 C 
ATOM      7  C   UNL     1      33.922 -21.028 -19.015  0.00  0.00    -0.001 C 
ATOM      8  C   UNL     1      32.608 -22.713 -17.131  0.00  0.00    +0.015 C 
ATOM      9  C   UNL     1      32.629 -21.496 -19.253  0.00  0.00    -0.000 C 
ATOM     10  C   UNL     1      31.978 -22.330 -18.321  0.00  0.00    +0.001 C 
ENDROOT
BRANCH   7  11
ATOM     11  C   UNL     1      34.574 -20.174 -19.980  0.00  0.00    -0.000 C 
ATOM     12  C   UNL     1      35.966 -20.094 -20.013  0.00  0.00    -0.000 C 
ATOM     13  C   UNL     1      33.812 -19.429 -20.880  0.00  0.00    -0.000 C 
ATOM     14  C   UNL     1      36.596 -19.271 -20.946  0.00  0.00    -0.000 C 
ATOM     15  C   UNL     1      34.442 -18.604 -21.813  0.00  0.00    -0.000 C 
ATOM     16  C   UNL     1      35.834 -18.525 -21.845  0.00  0.00    -0.000 C 
ENDBRANCH   7  11
BRANCH   6  17
ATOM     17  N   UNL     1      36.763 -20.396 -17.798  0.00  0.00    -0.075 NA
BRANCH  17  18
ATOM     18  O   UNL     1      37.265 -19.555 -16.799  0.00  0.00    -0.294 OA
ATOM     19  H   UNL     1      36.995 -19.673 -15.909  0.00  0.00    +0.238 HD
ENDBRANCH  17  18
ENDBRANCH   6  17
BRANCH   2  20
ATOM     20  C   UNL     1      34.363 -23.295 -14.672  0.00  0.00    +0.128 C 
BRANCH  20  24
ATOM     21  F   UNL     1      36.553 -27.434 -15.980  0.00  0.00    -0.204 F 
ATOM     22  O   UNL     1      35.999 -23.296 -12.405  0.00  0.00    -0.448 OA
ATOM     23  O   UNL     1      37.354 -24.480 -10.817  0.00  0.00    -0.311 OA
ATOM     24  C   UNL     1      35.368 -24.377 -14.405  0.00  0.00    +0.034 C 
ATOM     25  C   UNL     1      36.174 -24.349 -13.267  0.00  0.00    +0.138 C 
ATOM     26  C   UNL     1      37.095 -25.375 -13.024  0.00  0.00    +0.043 C 
ATOM     27  C   UNL     1      35.497 -25.421 -15.321  0.00  0.00    +0.030 C 
ATOM     28  C   UNL     1      37.951 -25.330 -11.795  0.00  0.00    +0.176 C 
ATOM     29  C   UNL     1      37.227 -26.412 -13.953  0.00  0.00    +0.031 C 
ATOM     30  C   UNL     1      36.427 -26.435 -15.097  0.00  0.00    +0.140 C 
ATOM     31  C   UNL     1      37.013 -23.223 -11.396  0.00  0.00    +0.361 C 
ENDBRANCH  20  24
ENDBRANCH   2  20
TORSDOF 5
ENDMDL
MODEL 6
REMARK VINA RESULT:      -9.2     13.458     15.670
REMARK  Name = 45270264
REMARK  5 active torsions:
REMARK  status: ('A' for Active; 'I' for Inactive)
REMARK    1  A    between atoms: N_2  and  C_20
REMARK    2  A    between atoms: N_3  and  C_7
REMARK    3  A    between atoms: N_3  and  O_18
REMARK    4  A    between atoms: C_8  and  C_12
REMARK    5  A    between atoms: C_20  and  C_24
REMARK                            x       y       z     vdW  Elec       q    Type
REMARK                         _______ _______ _______ _____ _____    ______ ____
ROOT
ATOM      1  O   UNL     1      30.762 -11.942 -22.339  0.00  0.00    -0.273 OA
ATOM      2  N   UNL     1      32.729 -11.128 -23.396  0.00  0.00    -0.253 N 
ATOM      3  C   UNL     1      33.324  -9.853 -23.468  0.00  0.00    +0.052 C 
ATOM      4  C   UNL     1      32.565  -8.920 -22.760  0.00  0.00    +0.018 C 
ATOM      5  C   UNL     1      31.566 -11.088 -22.645  0.00  0.00    +0.252 C 
ATOM      6  C   UNL     1      31.435  -9.646 -22.214  0.00  0.00    +0.202 C 
ATOM      7  C   UNL     1      32.913  -7.589 -22.661  0.00  0.00    -0.001 C 
ATOM      8  C   UNL     1      34.485  -9.469 -24.114  0.00  0.00    +0.015 C 
ATOM      9  C   UNL     1      34.083  -7.194 -23.310  0.00  0.00    -0.000 C 
ATOM     10  C   UNL     1      34.861  -8.123 -24.030  0.00  0.00    +0.001 C 
ENDROOT
BRANCH   7  11
ATOM     11  C   UNL     1      32.128  -6.624 -21.928  0.00  0.00    -0.000 C 
ATOM     12  C   UNL     1      31.058  -5.979 -22.548  0.00  0.00    -0.000 C 
ATOM     13  C   UNL     1      32.439  -6.337 -20.598  0.00  0.00    -0.000 C 
ATOM     14  C   UNL     1      30.299  -5.048 -21.839  0.00  0.00    -0.000 C 
ATOM     15  C   UNL     1      31.680  -5.404 -19.890  0.00  0.00    -0.000 C 
ATOM     16  C   UNL     1      30.610  -4.760 -20.511  0.00  0.00    -0.000 C 
ENDBRANCH   7  11
BRANCH   6  17
ATOM     17  N   UNL     1      30.468  -9.205 -21.492  0.00  0.00    -0.075 NA
BRANCH  17  18
ATOM     18  O   UNL     1      30.608  -9.720 -20.199  0.00  0.00    -0.294 OA
ATOM     19  H   UNL     1      31.462  -9.854 -19.839  0.00  0.00    +0.238 HD
ENDBRANCH  17  18
ENDBRANCH   6  17
BRANCH   2  20
ATOM     20  C   UNL     1      33.283 -12.299 -24.030  0.00  0.00    +0.128 C 
BRANCH  20  24
ATOM     21  F   UNL     1      34.213 -13.691 -19.465  0.00  0.00    -0.204 F 
ATOM     22  O   UNL     1      33.546 -14.984 -24.765  0.00  0.00    -0.448 OA
ATOM     23  O   UNL     1      34.413 -17.182 -24.343  0.00  0.00    -0.311 OA
ATOM     24  C   UNL     1      33.601 -13.379 -23.037  0.00  0.00    +0.034 C 
ATOM     25  C   UNL     1      33.722 -14.711 -23.433  0.00  0.00    +0.138 C 
ATOM     26  C   UNL     1      34.036 -15.704 -22.496  0.00  0.00    +0.043 C 
ATOM     27  C   UNL     1      33.767 -13.036 -21.695  0.00  0.00    +0.030 C 
ATOM     28  C   UNL     1      34.165 -17.129 -22.939  0.00  0.00    +0.176 C 
ATOM     29  C   UNL     1      34.190 -15.353 -21.151  0.00  0.00    +0.031 C 
ATOM     30  C   UNL     1      34.058 -14.022 -20.753  0.00  0.00    +0.140 C 
ATOM     31  C   UNL     1      33.461 -16.386 -25.044  0.00  0.00    +0.361 C 
ENDBRANCH  20  24
ENDBRANCH   2  20
TORSDOF 5
ENDMDL
MODEL 7
REMARK VINA RESULT:      -9.2      3.474      5.699
REMARK  Name = 45270264
REMARK  5 active torsions:
REMARK  status: ('A' for Active; 'I' for Inactive)
REMARK    1  A    between atoms: N_2  and  C_20
REMARK    2  A    between atoms: N_3  and  C_7
REMARK    3  A    between atoms: N_3  and  O_18
REMARK    4  A    between atoms: C_8  and  C_12
REMARK    5  A    between atoms: C_20  and  C_24
REMARK                            x       y       z     vdW  Elec       q    Type
REMARK                         _______ _______ _______ _____ _____    ______ ____
ROOT
ATOM      1  O   UNL     1      37.049 -21.956 -15.451  0.00  0.00    -0.273 OA
ATOM      2  N   UNL     1      34.865 -22.678 -16.050  0.00  0.00    -0.253 N 
ATOM      3  C   UNL     1      34.011 -22.368 -17.126  0.00  0.00    +0.052 C 
ATOM      4  C   UNL     1      34.619 -21.448 -17.981  0.00  0.00    +0.018 C 
ATOM      5  C   UNL     1      36.059 -21.983 -16.150  0.00  0.00    +0.252 C 
ATOM      6  C   UNL     1      35.923 -21.166 -17.413  0.00  0.00    +0.202 C 
ATOM      7  C   UNL     1      34.010 -20.966 -19.120  0.00  0.00    -0.001 C 
ATOM      8  C   UNL     1      32.741 -22.844 -17.395  0.00  0.00    +0.015 C 
ATOM      9  C   UNL     1      32.728 -21.442 -19.399  0.00  0.00    -0.000 C 
ATOM     10  C   UNL     1      32.099 -22.371 -18.546  0.00  0.00    +0.001 C 
ENDROOT
BRANCH   7  11
ATOM     11  C   UNL     1      34.639 -20.014 -20.005  0.00  0.00    -0.000 C 
ATOM     12  C   UNL     1      36.030 -19.945 -20.080  0.00  0.00    -0.000 C 
ATOM     13  C   UNL     1      33.856 -19.163 -20.785  0.00  0.00    -0.000 C 
ATOM     14  C   UNL     1      36.638 -19.026 -20.935  0.00  0.00    -0.000 C 
ATOM     15  C   UNL     1      34.464 -18.243 -21.640  0.00  0.00    -0.000 C 
ATOM     16  C   UNL     1      35.855 -18.174 -21.714  0.00  0.00    -0.000 C 
ENDBRANCH   7  11
BRANCH   6  17
ATOM     17  N   UNL     1      36.838 -20.378 -17.852  0.00  0.00    -0.075 NA
BRANCH  17  18
ATOM     18  O   UNL     1      37.240 -19.539 -16.807  0.00  0.00    -0.294 OA
ATOM     19  H   UNL     1      37.974 -19.774 -16.275  0.00  0.00    +0.238 HD
ENDBRANCH  17  18
ENDBRANCH   6  17
BRANCH   2  20
ATOM     20  C   UNL     1      34.514 -23.603 -14.999  0.00  0.00    +0.128 C 
BRANCH  20  24
ATOM     21  F   UNL     1      36.480 -21.956 -10.867  0.00  0.00    -0.204 F 
ATOM     22  O   UNL     1      36.558 -25.510 -15.060  0.00  0.00    -0.448 OA
ATOM     23  O   UNL     1      38.758 -26.224 -14.420  0.00  0.00    -0.311 OA
ATOM     24  C   UNL     1      35.576 -23.680 -13.940  0.00  0.00    +0.034 C 
ATOM     25  C   UNL     1      36.581 -24.645 -13.995  0.00  0.00    +0.138 C 
ATOM     26  C   UNL     1      37.574 -24.693 -13.008  0.00  0.00    +0.043 C 
ATOM     27  C   UNL     1      35.543 -22.771 -12.882  0.00  0.00    +0.030 C 
ATOM     28  C   UNL     1      38.648 -25.735 -13.084  0.00  0.00    +0.176 C 
ATOM     29  C   UNL     1      37.527 -23.786 -11.945  0.00  0.00    +0.031 C 
ATOM     30  C   UNL     1      36.516 -22.826 -11.885  0.00  0.00    +0.140 C 
ATOM     31  C   UNL     1      37.477 -26.599 -14.918  0.00  0.00    +0.361 C 
ENDBRANCH  20  24
ENDBRANCH   2  20
TORSDOF 5
ENDMDL
MODEL 8
REMARK VINA RESULT:      -9.1     12.241     15.012
REMARK  Name = 45270264
REMARK  5 active torsions:
REMARK  status: ('A' for Active; 'I' for Inactive)
REMARK    1  A    between atoms: N_2  and  C_20
REMARK    2  A    between atoms: N_3  and  C_7
REMARK    3  A    between atoms: N_3  and  O_18
REMARK    4  A    between atoms: C_8  and  C_12
REMARK    5  A    between atoms: C_20  and  C_24
REMARK                            x       y       z     vdW  Elec       q    Type
REMARK                         _______ _______ _______ _____ _____    ______ ____
ROOT
ATOM      1  O   UNL     1      32.622 -12.894 -25.774  0.00  0.00    -0.273 OA
ATOM      2  N   UNL     1      32.477 -12.456 -23.442  0.00  0.00    -0.253 N 
ATOM      3  C   UNL     1      32.868 -13.185 -22.302  0.00  0.00    +0.052 C 
ATOM      4  C   UNL     1      33.450 -14.397 -22.673  0.00  0.00    +0.018 C 
ATOM      5  C   UNL     1      32.783 -13.151 -24.601  0.00  0.00    +0.252 C 
ATOM      6  C   UNL     1      33.425 -14.432 -24.123  0.00  0.00    +0.202 C 
ATOM      7  C   UNL     1      33.926 -15.312 -21.758  0.00  0.00    -0.001 C 
ATOM      8  C   UNL     1      32.742 -12.846 -20.967  0.00  0.00    +0.015 C 
ATOM      9  C   UNL     1      33.803 -14.977 -20.409  0.00  0.00    -0.000 C 
ATOM     10  C   UNL     1      33.216 -13.757 -20.017  0.00  0.00    +0.001 C 
ENDROOT
BRANCH   7  11
ATOM     11  C   UNL     1      34.529 -16.567 -22.143  0.00  0.00    -0.000 C 
ATOM     12  C   UNL     1      33.827 -17.460 -22.952  0.00  0.00    -0.000 C 
ATOM     13  C   UNL     1      35.815 -16.886 -21.705  0.00  0.00    -0.000 C 
ATOM     14  C   UNL     1      34.411 -18.671 -23.325  0.00  0.00    -0.000 C 
ATOM     15  C   UNL     1      36.397 -18.098 -22.076  0.00  0.00    -0.000 C 
ATOM     16  C   UNL     1      35.695 -18.990 -22.886  0.00  0.00    -0.000 C 
ENDBRANCH   7  11
BRANCH   6  17
ATOM     17  N   UNL     1      33.852 -15.351 -24.912  0.00  0.00    -0.075 NA
BRANCH  17  18
ATOM     18  O   UNL     1      32.748 -15.988 -25.490  0.00  0.00    -0.294 OA
ATOM     19  H   UNL     1      32.535 -16.867 -25.246  0.00  0.00    +0.238 HD
ENDBRANCH  17  18
ENDBRANCH   6  17
BRANCH   2  20
ATOM     20  C   UNL     1      31.845 -11.161 -23.379  0.00  0.00    +0.128 C 
BRANCH  20  24
ATOM     21  F   UNL     1      36.057  -9.398 -25.052  0.00  0.00    -0.204 F 
ATOM     22  O   UNL     1      31.460  -8.693 -22.122  0.00  0.00    -0.448 OA
ATOM     23  O   UNL     1      32.354  -6.666 -21.198  0.00  0.00    -0.311 OA
ATOM     24  C   UNL     1      32.843 -10.044 -23.475  0.00  0.00    +0.034 C 
ATOM     25  C   UNL     1      32.622  -8.821 -22.840  0.00  0.00    +0.138 C 
ATOM     26  C   UNL     1      33.570  -7.795 -22.926  0.00  0.00    +0.043 C 
ATOM     27  C   UNL     1      34.005 -10.237 -24.223  0.00  0.00    +0.030 C 
ATOM     28  C   UNL     1      33.318  -6.490 -22.235  0.00  0.00    +0.176 C 
ATOM     29  C   UNL     1      34.728  -7.993 -23.687  0.00  0.00    +0.031 C 
ATOM     30  C   UNL     1      34.944  -9.212 -24.330  0.00  0.00    +0.140 C 
ATOM     31  C   UNL     1      31.207  -7.348 -21.699  0.00  0.00    +0.361 C 
ENDBRANCH  20  24
ENDBRANCH   2  20
TORSDOF 5
ENDMDL
MODEL 9
REMARK VINA RESULT:      -9.0      2.969      4.970
REMARK  Name = 45270264
REMARK  5 active torsions:
REMARK  status: ('A' for Active; 'I' for Inactive)
REMARK    1  A    between atoms: N_2  and  C_20
REMARK    2  A    between atoms: N_3  and  C_7
REMARK    3  A    between atoms: N_3  and  O_18
REMARK    4  A    between atoms: C_8  and  C_12
REMARK    5  A    between atoms: C_20  and  C_24
REMARK                            x       y       z     vdW  Elec       q    Type
REMARK                         _______ _______ _______ _____ _____    ______ ____
ROOT
ATOM      1  O   UNL     1      31.365 -23.682 -15.816  0.00  0.00    -0.273 OA
ATOM      2  N   UNL     1      33.668 -23.471 -15.269  0.00  0.00    -0.253 N 
ATOM      3  C   UNL     1      34.747 -22.810 -15.889  0.00  0.00    +0.052 C 
ATOM      4  C   UNL     1      34.322 -22.167 -17.052  0.00  0.00    +0.018 C 
ATOM      5  C   UNL     1      32.500 -23.293 -15.990  0.00  0.00    +0.252 C 
ATOM      6  C   UNL     1      32.902 -22.438 -17.169  0.00  0.00    +0.202 C 
ATOM      7  C   UNL     1      35.169 -21.441 -17.861  0.00  0.00    -0.001 C 
ATOM      8  C   UNL     1      36.070 -22.742 -15.492  0.00  0.00    +0.015 C 
ATOM      9  C   UNL     1      36.506 -21.367 -17.467  0.00  0.00    -0.000 C 
ATOM     10  C   UNL     1      36.953 -22.010 -16.296  0.00  0.00    +0.001 C 
ENDROOT
BRANCH   7  11
ATOM     11  C   UNL     1      34.729 -20.775 -19.064  0.00  0.00    -0.000 C 
ATOM     12  C   UNL     1      33.368 -20.703 -19.364  0.00  0.00    -0.000 C 
ATOM     13  C   UNL     1      35.664 -20.204 -19.928  0.00  0.00    -0.000 C 
ATOM     14  C   UNL     1      32.943 -20.060 -20.526  0.00  0.00    -0.000 C 
ATOM     15  C   UNL     1      35.238 -19.562 -21.091  0.00  0.00    -0.000 C 
ATOM     16  C   UNL     1      33.877 -19.490 -21.390  0.00  0.00    -0.000 C 
ENDBRANCH   7  11
BRANCH   6  17
ATOM     17  N   UNL     1      32.082 -22.053 -18.080  0.00  0.00    -0.075 NA
BRANCH  17  18
ATOM     18  O   UNL     1      30.902 -21.624 -17.464  0.00  0.00    -0.294 OA
ATOM     19  H   UNL     1      30.918 -21.336 -16.573  0.00  0.00    +0.238 HD
ENDBRANCH  17  18
ENDBRANCH   6  17
BRANCH   2  20
ATOM     20  C   UNL     1      33.797 -24.225 -14.045  0.00  0.00    +0.128 C 
BRANCH  20  24
ATOM     21  F   UNL     1      36.722 -21.725 -11.072  0.00  0.00    -0.204 F 
ATOM     22  O   UNL     1      35.956 -25.935 -14.522  0.00  0.00    -0.448 OA
ATOM     23  O   UNL     1      38.322 -26.340 -14.561  0.00  0.00    -0.311 OA
ATOM     24  C   UNL     1      35.138 -24.027 -13.401  0.00  0.00    +0.034 C 
ATOM     25  C   UNL     1      36.196 -24.900 -13.655  0.00  0.00    +0.138 C 
ATOM     26  C   UNL     1      37.446 -24.692 -13.059  0.00  0.00    +0.043 C 
ATOM     27  C   UNL     1      35.317 -22.955 -12.528  0.00  0.00    +0.030 C 
ATOM     28  C   UNL     1      38.573 -25.637 -13.345  0.00  0.00    +0.176 C 
ATOM     29  C   UNL     1      37.614 -23.620 -12.175  0.00  0.00    +0.031 C 
ATOM     30  C   UNL     1      36.552 -22.753 -11.914  0.00  0.00    +0.140 C 
ATOM     31  C   UNL     1      37.013 -26.902 -14.547  0.00  0.00    +0.361 C 
ENDBRANCH  20  24
ENDBRANCH   2  20
TORSDOF 5
ENDMDL
