MODEL 1
REMARK VINA RESULT:     -12.2      0.000      0.000
REMARK  Name = 444746
REMARK  6 active torsions:
REMARK  status: ('A' for Active; 'I' for Inactive)
REMARK    1  A    between atoms: C_1  and  C_9
REMARK    2  A    between atoms: C_1  and  N_13
REMARK    3  A    between atoms: C_1  and  C_27
REMARK    4  A    between atoms: C_4  and  O_10
REMARK    5  A    between atoms: C_14  and  C_18
REMARK    6  A    between atoms: C_27  and  C_29
REMARK                            x       y       z     vdW  Elec       q    Type
REMARK                         _______ _______ _______ _____ _____    ______ ____
ROOT
ATOM      1  C   UNL     1      33.393 -22.901 -16.483  0.00  0.00    +0.153 C 
ENDROOT
BRANCH   1   9
ATOM      2  O   UNL     1      31.301 -21.979 -17.106  0.00  0.00    -0.273 OA
ATOM      3  N   UNL     1      31.252 -23.691 -15.537  0.00  0.00    -0.278 N 
ATOM      4  C   UNL     1      29.987 -24.567 -13.087  0.00  0.00    +0.114 C 
ATOM      5  C   UNL     1      29.335 -23.525 -13.999  0.00  0.00    +0.051 C 
ATOM      6  C   UNL     1      31.508 -24.538 -13.236  0.00  0.00    +0.051 C 
ATOM      7  C   UNL     1      29.790 -23.696 -15.444  0.00  0.00    +0.096 C 
ATOM      8  C   UNL     1      31.926 -24.690 -14.696  0.00  0.00    +0.096 C 
ATOM      9  C   UNL     1      31.889 -22.810 -16.410  0.00  0.00    +0.244 C 
BRANCH   4  10
ATOM     10  O   UNL     1      29.653 -24.297 -11.732  0.00  0.00    -0.384 OA
ATOM     11  H   UNL     1      28.695 -24.392 -11.609  0.00  0.00    +0.210 HD
ENDBRANCH   4  10
ENDBRANCH   1   9
BRANCH   1  13
ATOM     12  O   UNL     1      33.564 -23.297 -19.269  0.00  0.00    -0.269 OA
ATOM     13  N   UNL     1      33.742 -21.903 -17.451  0.00  0.00    -0.294 N 
ATOM     14  C   UNL     1      33.807 -22.175 -18.822  0.00  0.00    +0.260 C 
ATOM     15  H   UNL     1      33.945 -20.991 -17.140  0.00  0.00    +0.150 HD
BRANCH  14  18
ATOM     16 CL   UNL     1      34.542 -16.289 -23.679  0.00  0.00    -0.082 Cl
ATOM     17  N   UNL     1      35.384 -20.509 -19.729  0.00  0.00    -0.309 N 
ATOM     18  C   UNL     1      34.147 -21.041 -19.692  0.00  0.00    +0.102 C 
ATOM     19  C   UNL     1      33.321 -20.390 -20.540  0.00  0.00    +0.020 C 
ATOM     20  C   UNL     1      34.101 -19.372 -21.156  0.00  0.00    +0.016 C 
ATOM     21  C   UNL     1      35.391 -19.468 -20.630  0.00  0.00    +0.048 C 
ATOM     22  C   UNL     1      33.833 -18.374 -22.115  0.00  0.00    +0.013 C 
ATOM     23  C   UNL     1      36.430 -18.614 -21.016  0.00  0.00    +0.015 C 
ATOM     24  C   UNL     1      34.862 -17.511 -22.509  0.00  0.00    +0.058 C 
ATOM     25  C   UNL     1      36.139 -17.632 -21.967  0.00  0.00    +0.013 C 
ATOM     26  H   UNL     1      36.156 -20.814 -19.200  0.00  0.00    +0.152 HD
ENDBRANCH  14  18
ENDBRANCH   1  13
BRANCH   1  27
ATOM     27  C   UNL     1      34.002 -22.648 -15.110  0.00  0.00    +0.055 C 
BRANCH  27  29
ATOM     28  F   UNL     1      39.125 -24.907 -14.616  0.00  0.00    -0.204 F 
ATOM     29  C   UNL     1      35.377 -23.254 -14.978  0.00  0.00    -0.020 C 
ATOM     30  C   UNL     1      35.501 -24.582 -14.600  0.00  0.00    -0.002 C 
ATOM     31  C   UNL     1      36.493 -22.472 -15.236  0.00  0.00    -0.002 C 
ATOM     32  C   UNL     1      36.773 -25.142 -14.476  0.00  0.00    +0.029 C 
ATOM     33  C   UNL     1      37.765 -23.033 -15.113  0.00  0.00    +0.029 C 
ATOM     34  C   UNL     1      37.904 -24.368 -14.732  0.00  0.00    +0.140 C 
ENDBRANCH  27  29
ENDBRANCH   1  27
TORSDOF 6
ENDMDL
MODEL 2
REMARK VINA RESULT:     -12.2      2.893      4.818
REMARK  Name = 444746
REMARK  6 active torsions:
REMARK  status: ('A' for Active; 'I' for Inactive)
REMARK    1  A    between atoms: C_1  and  C_9
REMARK    2  A    between atoms: C_1  and  N_13
REMARK    3  A    between atoms: C_1  and  C_27
REMARK    4  A    between atoms: C_4  and  O_10
REMARK    5  A    between atoms: C_14  and  C_18
REMARK    6  A    between atoms: C_27  and  C_29
REMARK                            x       y       z     vdW  Elec       q    Type
REMARK                         _______ _______ _______ _____ _____    ______ ____
ROOT
ATOM      1  C   UNL     1      34.693 -22.266 -15.556  0.00  0.00    +0.153 C 
ENDROOT
BRANCH   1   9
ATOM      2  O   UNL     1      36.880 -22.829 -16.272  0.00  0.00    -0.273 OA
ATOM      3  N   UNL     1      36.415 -23.146 -14.018  0.00  0.00    -0.278 N 
ATOM      4  C   UNL     1      36.827 -24.940 -11.788  0.00  0.00    +0.114 C 
ATOM      5  C   UNL     1      37.742 -24.962 -13.014  0.00  0.00    +0.051 C 
ATOM      6  C   UNL     1      35.433 -24.437 -12.163  0.00  0.00    +0.051 C 
ATOM      7  C   UNL     1      37.771 -23.602 -13.703  0.00  0.00    +0.096 C 
ATOM      8  C   UNL     1      35.502 -23.086 -12.869  0.00  0.00    +0.096 C 
ATOM      9  C   UNL     1      36.095 -22.770 -15.322  0.00  0.00    +0.244 C 
BRANCH   4  10
ATOM     10  O   UNL     1      36.712 -26.251 -11.249  0.00  0.00    -0.384 OA
ATOM     11  H   UNL     1      36.751 -26.901 -11.969  0.00  0.00    +0.210 HD
ENDBRANCH   4  10
ENDBRANCH   1   9
BRANCH   1  13
ATOM     12  O   UNL     1      33.937 -23.020 -18.165  0.00  0.00    -0.269 OA
ATOM     13  N   UNL     1      34.819 -21.456 -16.732  0.00  0.00    -0.294 N 
ATOM     14  C   UNL     1      34.421 -21.900 -17.998  0.00  0.00    +0.260 C 
ATOM     15  H   UNL     1      35.201 -20.552 -16.647  0.00  0.00    +0.150 HD
BRANCH  14  18
ATOM     16 CL   UNL     1      34.226 -17.105 -23.978  0.00  0.00    -0.082 Cl
ATOM     17  N   UNL     1      35.750 -20.311 -19.337  0.00  0.00    -0.309 N 
ATOM     18  C   UNL     1      34.584 -20.943 -19.100  0.00  0.00    +0.102 C 
ATOM     19  C   UNL     1      33.646 -20.567 -19.996  0.00  0.00    +0.020 C 
ATOM     20  C   UNL     1      34.271 -19.627 -20.862  0.00  0.00    +0.016 C 
ATOM     21  C   UNL     1      35.591 -19.484 -20.427  0.00  0.00    +0.048 C 
ATOM     22  C   UNL     1      33.841 -18.881 -21.977  0.00  0.00    +0.013 C 
ATOM     23  C   UNL     1      36.505 -18.630 -21.054  0.00  0.00    +0.015 C 
ATOM     24  C   UNL     1      34.744 -18.021 -22.614  0.00  0.00    +0.058 C 
ATOM     25  C   UNL     1      36.054 -17.900 -22.158  0.00  0.00    +0.013 C 
ATOM     26  H   UNL     1      36.579 -20.422 -18.818  0.00  0.00    +0.152 HD
ENDBRANCH  14  18
ENDBRANCH   1  13
BRANCH   1  27
ATOM     27  C   UNL     1      33.736 -23.437 -15.732  0.00  0.00    +0.055 C 
BRANCH  27  29
ATOM     28  F   UNL     1      28.457 -22.086 -14.353  0.00  0.00    -0.204 F 
ATOM     29  C   UNL     1      32.319 -23.074 -15.362  0.00  0.00    -0.020 C 
ATOM     30  C   UNL     1      31.956 -23.028 -14.025  0.00  0.00    -0.002 C 
ATOM     31  C   UNL     1      31.404 -22.795 -16.366  0.00  0.00    -0.002 C 
ATOM     32  C   UNL     1      30.646 -22.694 -13.683  0.00  0.00    +0.029 C 
ATOM     33  C   UNL     1      30.094 -22.459 -16.024  0.00  0.00    +0.029 C 
ATOM     34  C   UNL     1      29.715 -22.409 -14.682  0.00  0.00    +0.140 C 
ENDBRANCH  27  29
ENDBRANCH   1  27
TORSDOF 6
ENDMDL
MODEL 3
REMARK VINA RESULT:     -11.6     11.720     16.806
REMARK  Name = 444746
REMARK  6 active torsions:
REMARK  status: ('A' for Active; 'I' for Inactive)
REMARK    1  A    between atoms: C_1  and  C_9
REMARK    2  A    between atoms: C_1  and  N_13
REMARK    3  A    between atoms: C_1  and  C_27
REMARK    4  A    between atoms: C_4  and  O_10
REMARK    5  A    between atoms: C_14  and  C_18
REMARK    6  A    between atoms: C_27  and  C_29
REMARK                            x       y       z     vdW  Elec       q    Type
REMARK                         _______ _______ _______ _____ _____    ______ ____
ROOT
ATOM      1  C   UNL     1      32.569  -8.289 -23.160  0.00  0.00    +0.153 C 
ENDROOT
BRANCH   1   9
ATOM      2  O   UNL     1      34.880  -7.835 -23.415  0.00  0.00    -0.273 OA
ATOM      3  N   UNL     1      33.431  -6.607 -24.751  0.00  0.00    -0.278 N 
ATOM      4  C   UNL     1      32.932  -3.969 -25.827  0.00  0.00    +0.114 C 
ATOM      5  C   UNL     1      34.318  -4.383 -25.330  0.00  0.00    +0.051 C 
ATOM      6  C   UNL     1      31.841  -4.757 -25.102  0.00  0.00    +0.051 C 
ATOM      7  C   UNL     1      34.513  -5.892 -25.434  0.00  0.00    +0.096 C 
ATOM      8  C   UNL     1      32.078  -6.260 -25.208  0.00  0.00    +0.096 C 
ATOM      9  C   UNL     1      33.735  -7.563 -23.782  0.00  0.00    +0.244 C 
BRANCH   4  10
ATOM     10  O   UNL     1      32.729  -2.582 -25.591  0.00  0.00    -0.384 OA
ATOM     11  H   UNL     1      33.541  -2.095 -25.805  0.00  0.00    +0.210 HD
ENDBRANCH   4  10
ENDBRANCH   1   9
BRANCH   1  13
ATOM     12  O   UNL     1      31.053 -10.475 -22.226  0.00  0.00    -0.269 OA
ATOM     13  N   UNL     1      32.969  -9.665 -23.202  0.00  0.00    -0.294 N 
ATOM     14  C   UNL     1      32.161 -10.699 -22.718  0.00  0.00    +0.260 C 
ATOM     15  H   UNL     1      33.847  -9.892 -23.585  0.00  0.00    +0.150 HD
BRANCH  14  18
ATOM     16 CL   UNL     1      35.239 -17.714 -22.409  0.00  0.00    -0.082 Cl
ATOM     17  N   UNL     1      32.623 -12.744 -24.017  0.00  0.00    -0.309 N 
ATOM     18  C   UNL     1      32.696 -12.060 -22.859  0.00  0.00    +0.102 C 
ATOM     19  C   UNL     1      33.308 -12.796 -21.906  0.00  0.00    +0.020 C 
ATOM     20  C   UNL     1      33.645 -14.038 -22.514  0.00  0.00    +0.016 C 
ATOM     21  C   UNL     1      33.204 -13.980 -23.838  0.00  0.00    +0.048 C 
ATOM     22  C   UNL     1      34.285 -15.210 -22.064  0.00  0.00    +0.013 C 
ATOM     23  C   UNL     1      33.372 -15.038 -24.737  0.00  0.00    +0.015 C 
ATOM     24  C   UNL     1      34.458 -16.278 -22.951  0.00  0.00    +0.058 C 
ATOM     25  C   UNL     1      34.008 -16.190 -24.267  0.00  0.00    +0.013 C 
ATOM     26  H   UNL     1      32.221 -12.416 -24.853  0.00  0.00    +0.152 HD
ENDBRANCH  14  18
ENDBRANCH   1  13
BRANCH   1  27
ATOM     27  C   UNL     1      32.323  -7.776 -21.747  0.00  0.00    +0.055 C 
BRANCH  27  29
ATOM     28  F   UNL     1      29.744  -2.782 -21.728  0.00  0.00    -0.204 F 
ATOM     29  C   UNL     1      31.630  -6.436 -21.742  0.00  0.00    -0.020 C 
ATOM     30  C   UNL     1      30.301  -6.355 -22.126  0.00  0.00    -0.002 C 
ATOM     31  C   UNL     1      32.336  -5.307 -21.353  0.00  0.00    -0.002 C 
ATOM     32  C   UNL     1      29.661  -5.116 -22.122  0.00  0.00    +0.029 C 
ATOM     33  C   UNL     1      31.696  -4.067 -21.348  0.00  0.00    +0.029 C 
ATOM     34  C   UNL     1      30.359  -3.972 -21.734  0.00  0.00    +0.140 C 
ENDBRANCH  27  29
ENDBRANCH   1  27
TORSDOF 6
ENDMDL
MODEL 4
REMARK VINA RESULT:     -11.3      3.088      5.135
REMARK  Name = 444746
REMARK  6 active torsions:
REMARK  status: ('A' for Active; 'I' for Inactive)
REMARK    1  A    between atoms: C_1  and  C_9
REMARK    2  A    between atoms: C_1  and  N_13
REMARK    3  A    between atoms: C_1  and  C_27
REMARK    4  A    between atoms: C_4  and  O_10
REMARK    5  A    between atoms: C_14  and  C_18
REMARK    6  A    between atoms: C_27  and  C_29
REMARK                            x       y       z     vdW  Elec       q    Type
REMARK                         _______ _______ _______ _____ _____    ______ ____
ROOT
ATOM      1  C   UNL     1      33.655 -23.226 -15.337  0.00  0.00    +0.153 C 
ENDROOT
BRANCH   1   9
ATOM      2  O   UNL     1      34.971 -25.103 -15.938  0.00  0.00    -0.273 OA
ATOM      3  N   UNL     1      35.841 -23.713 -14.293  0.00  0.00    -0.278 N 
ATOM      4  C   UNL     1      37.255 -23.697 -11.770  0.00  0.00    +0.114 C 
ATOM      5  C   UNL     1      37.301 -24.905 -12.707  0.00  0.00    +0.051 C 
ATOM      6  C   UNL     1      35.959 -22.911 -11.965  0.00  0.00    +0.051 C 
ATOM      7  C   UNL     1      37.078 -24.486 -14.157  0.00  0.00    +0.096 C 
ATOM      8  C   UNL     1      35.757 -22.528 -13.428  0.00  0.00    +0.096 C 
ATOM      9  C   UNL     1      34.878 -24.102 -15.223  0.00  0.00    +0.244 C 
BRANCH   4  10
ATOM     10  O   UNL     1      37.328 -24.133 -10.418  0.00  0.00    -0.384 OA
ATOM     11  H   UNL     1      38.085 -24.731 -10.311  0.00  0.00    +0.210 HD
ENDBRANCH   4  10
ENDBRANCH   1   9
BRANCH   1  13
ATOM     12  O   UNL     1      33.105 -23.646 -18.070  0.00  0.00    -0.269 OA
ATOM     13  N   UNL     1      33.984 -22.328 -16.405  0.00  0.00    -0.294 N 
ATOM     14  C   UNL     1      33.678 -22.606 -17.742  0.00  0.00    +0.260 C 
ATOM     15  H   UNL     1      34.444 -21.484 -16.191  0.00  0.00    +0.150 HD
BRANCH  14  18
ATOM     16 CL   UNL     1      34.579 -17.250 -23.154  0.00  0.00    -0.082 Cl
ATOM     17  N   UNL     1      35.303 -21.086 -18.808  0.00  0.00    -0.309 N 
ATOM     18  C   UNL     1      34.051 -21.574 -18.719  0.00  0.00    +0.102 C 
ATOM     19  C   UNL     1      33.243 -20.985 -19.627  0.00  0.00    +0.020 C 
ATOM     20  C   UNL     1      34.051 -20.056 -20.341  0.00  0.00    +0.016 C 
ATOM     21  C   UNL     1      35.339 -20.139 -19.807  0.00  0.00    +0.048 C 
ATOM     22  C   UNL     1      33.811 -19.149 -21.393  0.00  0.00    +0.013 C 
ATOM     23  C   UNL     1      36.403 -19.359 -20.274  0.00  0.00    +0.015 C 
ATOM     24  C   UNL     1      34.865 -18.361 -21.869  0.00  0.00    +0.058 C 
ATOM     25  C   UNL     1      36.139 -18.467 -21.318  0.00  0.00    +0.013 C 
ATOM     26  H   UNL     1      36.067 -21.361 -18.251  0.00  0.00    +0.152 HD
ENDBRANCH  14  18
ENDBRANCH   1  13
BRANCH   1  27
ATOM     27  C   UNL     1      32.424 -24.077 -15.622  0.00  0.00    +0.055 C 
BRANCH  27  29
ATOM     28  F   UNL     1      27.648 -21.317 -14.543  0.00  0.00    -0.204 F 
ATOM     29  C   UNL     1      31.142 -23.336 -15.333  0.00  0.00    -0.020 C 
ATOM     30  C   UNL     1      30.144 -23.302 -16.293  0.00  0.00    -0.002 C 
ATOM     31  C   UNL     1      30.985 -22.701 -14.110  0.00  0.00    -0.002 C 
ATOM     32  C   UNL     1      28.960 -22.616 -16.026  0.00  0.00    +0.029 C 
ATOM     33  C   UNL     1      29.800 -22.016 -13.842  0.00  0.00    +0.029 C 
ATOM     34  C   UNL     1      28.787 -21.973 -14.800  0.00  0.00    +0.140 C 
ENDBRANCH  27  29
ENDBRANCH   1  27
TORSDOF 6
ENDMDL
MODEL 5
REMARK VINA RESULT:     -10.6      1.425      1.600
REMARK  Name = 444746
REMARK  6 active torsions:
REMARK  status: ('A' for Active; 'I' for Inactive)
REMARK    1  A    between atoms: C_1  and  C_9
REMARK    2  A    between atoms: C_1  and  N_13
REMARK    3  A    between atoms: C_1  and  C_27
REMARK    4  A    between atoms: C_4  and  O_10
REMARK    5  A    between atoms: C_14  and  C_18
REMARK    6  A    between atoms: C_27  and  C_29
REMARK                            x       y       z     vdW  Elec       q    Type
REMARK                         _______ _______ _______ _____ _____    ______ ____
ROOT
ATOM      1  C   UNL     1      33.130 -23.023 -15.042  0.00  0.00    +0.153 C 
ENDROOT
BRANCH   1   9
ATOM      2  O   UNL     1      31.806 -21.353 -14.007  0.00  0.00    -0.273 OA
ATOM      3  N   UNL     1      30.662 -23.124 -14.981  0.00  0.00    -0.278 N 
ATOM      4  C   UNL     1      28.427 -24.926 -14.627  0.00  0.00    +0.114 C 
ATOM      5  C   UNL     1      28.509 -23.593 -13.879  0.00  0.00    +0.051 C 
ATOM      6  C   UNL     1      29.826 -25.442 -14.965  0.00  0.00    +0.051 C 
ATOM      7  C   UNL     1      29.342 -22.577 -14.654  0.00  0.00    +0.096 C 
ATOM      8  C   UNL     1      30.637 -24.394 -15.719  0.00  0.00    +0.096 C 
ATOM      9  C   UNL     1      31.811 -22.418 -14.628  0.00  0.00    +0.244 C 
BRANCH   4  10
ATOM     10  O   UNL     1      27.764 -25.891 -13.820  0.00  0.00    -0.384 OA
ATOM     11  H   UNL     1      26.808 -25.846 -13.982  0.00  0.00    +0.210 HD
ENDBRANCH   4  10
ENDBRANCH   1   9
BRANCH   1  13
ATOM     12  O   UNL     1      32.969 -23.711 -17.772  0.00  0.00    -0.269 OA
ATOM     13  N   UNL     1      33.546 -22.199 -16.140  0.00  0.00    -0.294 N 
ATOM     14  C   UNL     1      33.435 -22.610 -17.473  0.00  0.00    +0.260 C 
ATOM     15  H   UNL     1      33.925 -21.311 -15.949  0.00  0.00    +0.150 HD
BRANCH  14  18
ATOM     16 CL   UNL     1      34.684 -17.526 -23.074  0.00  0.00    -0.082 Cl
ATOM     17  N   UNL     1      35.158 -21.251 -18.599  0.00  0.00    -0.309 N 
ATOM     18  C   UNL     1      33.874 -21.643 -18.487  0.00  0.00    +0.102 C 
ATOM     19  C   UNL     1      33.105 -21.028 -19.412  0.00  0.00    +0.020 C 
ATOM     20  C   UNL     1      33.973 -20.186 -20.161  0.00  0.00    +0.016 C 
ATOM     21  C   UNL     1      35.256 -20.345 -19.631  0.00  0.00    +0.048 C 
ATOM     22  C   UNL     1      33.792 -19.302 -21.243  0.00  0.00    +0.013 C 
ATOM     23  C   UNL     1      36.370 -19.661 -20.130  0.00  0.00    +0.015 C 
ATOM     24  C   UNL     1      34.897 -18.610 -21.753  0.00  0.00    +0.058 C 
ATOM     25  C   UNL     1      36.164 -18.789 -21.203  0.00  0.00    +0.013 C 
ATOM     26  H   UNL     1      35.904 -21.562 -18.036  0.00  0.00    +0.152 HD
ENDBRANCH  14  18
ENDBRANCH   1  13
BRANCH   1  27
ATOM     27  C   UNL     1      34.106 -23.007 -13.873  0.00  0.00    +0.055 C 
BRANCH  27  29
ATOM     28  F   UNL     1      38.738 -26.007 -14.941  0.00  0.00    -0.204 F 
ATOM     29  C   UNL     1      35.349 -23.812 -14.160  0.00  0.00    -0.020 C 
ATOM     30  C   UNL     1      35.225 -25.112 -14.624  0.00  0.00    -0.002 C 
ATOM     31  C   UNL     1      36.594 -23.237 -13.954  0.00  0.00    -0.002 C 
ATOM     32  C   UNL     1      36.375 -25.857 -14.887  0.00  0.00    +0.029 C 
ATOM     33  C   UNL     1      37.744 -23.982 -14.219  0.00  0.00    +0.029 C 
ATOM     34  C   UNL     1      37.634 -25.292 -14.685  0.00  0.00    +0.140 C 
ENDBRANCH  27  29
ENDBRANCH   1  27
TORSDOF 6
ENDMDL
MODEL 6
REMARK VINA RESULT:     -10.6      1.615      2.220
REMARK  Name = 444746
REMARK  6 active torsions:
REMARK  status: ('A' for Active; 'I' for Inactive)
REMARK    1  A    between atoms: C_1  and  C_9
REMARK    2  A    between atoms: C_1  and  N_13
REMARK    3  A    between atoms: C_1  and  C_27
REMARK    4  A    between atoms: C_4  and  O_10
REMARK    5  A    between atoms: C_14  and  C_18
REMARK    6  A    between atoms: C_27  and  C_29
REMARK                            x       y       z     vdW  Elec       q    Type
REMARK                         _______ _______ _______ _____ _____    ______ ____
ROOT
ATOM      1  C   UNL     1      33.066 -23.173 -14.887  0.00  0.00    +0.153 C 
ENDROOT
BRANCH   1   9
ATOM      2  O   UNL     1      31.760 -21.467 -13.888  0.00  0.00    -0.273 OA
ATOM      3  N   UNL     1      30.595 -23.209 -14.890  0.00  0.00    -0.278 N 
ATOM      4  C   UNL     1      28.305 -24.951 -14.593  0.00  0.00    +0.114 C 
ATOM      5  C   UNL     1      28.403 -23.620 -13.845  0.00  0.00    +0.051 C 
ATOM      6  C   UNL     1      29.698 -25.505 -14.893  0.00  0.00    +0.051 C 
ATOM      7  C   UNL     1      29.282 -22.628 -14.599  0.00  0.00    +0.096 C 
ATOM      8  C   UNL     1      30.557 -24.479 -15.627  0.00  0.00    +0.096 C 
ATOM      9  C   UNL     1      31.754 -22.534 -14.508  0.00  0.00    +0.244 C 
BRANCH   4  10
ATOM     10  O   UNL     1      27.597 -25.897 -13.803  0.00  0.00    -0.384 OA
ATOM     11  H   UNL     1      27.011 -25.429 -13.186  0.00  0.00    +0.210 HD
ENDBRANCH   4  10
ENDBRANCH   1   9
BRANCH   1  13
ATOM     12  O   UNL     1      33.092 -23.901 -17.611  0.00  0.00    -0.269 OA
ATOM     13  N   UNL     1      33.537 -22.357 -15.967  0.00  0.00    -0.294 N 
ATOM     14  C   UNL     1      33.519 -22.788 -17.299  0.00  0.00    +0.260 C 
ATOM     15  H   UNL     1      33.888 -21.460 -15.766  0.00  0.00    +0.150 HD
BRANCH  14  18
ATOM     16 CL   UNL     1      37.051 -17.967 -22.102  0.00  0.00    -0.082 Cl
ATOM     17  N   UNL     1      33.179 -21.205 -19.160  0.00  0.00    -0.309 N 
ATOM     18  C   UNL     1      34.005 -21.826 -18.296  0.00  0.00    +0.102 C 
ATOM     19  C   UNL     1      35.284 -21.437 -18.494  0.00  0.00    +0.020 C 
ATOM     20  C   UNL     1      35.256 -20.499 -19.565  0.00  0.00    +0.016 C 
ATOM     21  C   UNL     1      33.924 -20.372 -19.964  0.00  0.00    +0.048 C 
ATOM     22  C   UNL     1      36.240 -19.744 -20.235  0.00  0.00    +0.013 C 
ATOM     23  C   UNL     1      33.524 -19.525 -21.003  0.00  0.00    +0.015 C 
ATOM     24  C   UNL     1      35.855 -18.893 -21.277  0.00  0.00    +0.058 C 
ATOM     25  C   UNL     1      34.518 -18.787 -21.653  0.00  0.00    +0.013 C 
ATOM     26  H   UNL     1      32.203 -21.326 -19.208  0.00  0.00    +0.152 HD
ENDBRANCH  14  18
ENDBRANCH   1  13
BRANCH   1  27
ATOM     27  C   UNL     1      34.008 -23.191 -13.690  0.00  0.00    +0.055 C 
BRANCH  27  29
ATOM     28  F   UNL     1      38.827 -25.851 -14.827  0.00  0.00    -0.204 F 
ATOM     29  C   UNL     1      35.301 -23.905 -13.995  0.00  0.00    -0.020 C 
ATOM     30  C   UNL     1      36.505 -23.290 -13.691  0.00  0.00    -0.002 C 
ATOM     31  C   UNL     1      35.263 -25.164 -14.575  0.00  0.00    -0.002 C 
ATOM     32  C   UNL     1      37.701 -23.949 -13.974  0.00  0.00    +0.029 C 
ATOM     33  C   UNL     1      36.459 -25.824 -14.857  0.00  0.00    +0.029 C 
ATOM     34  C   UNL     1      37.678 -25.216 -14.557  0.00  0.00    +0.140 C 
ENDBRANCH  27  29
ENDBRANCH   1  27
TORSDOF 6
ENDMDL
MODEL 7
REMARK VINA RESULT:     -10.0     11.170     16.067
REMARK  Name = 444746
REMARK  6 active torsions:
REMARK  status: ('A' for Active; 'I' for Inactive)
REMARK    1  A    between atoms: C_1  and  C_9
REMARK    2  A    between atoms: C_1  and  N_13
REMARK    3  A    between atoms: C_1  and  C_27
REMARK    4  A    between atoms: C_4  and  O_10
REMARK    5  A    between atoms: C_14  and  C_18
REMARK    6  A    between atoms: C_27  and  C_29
REMARK                            x       y       z     vdW  Elec       q    Type
REMARK                         _______ _______ _______ _____ _____    ______ ____
ROOT
ATOM      1  C   UNL     1      31.531  -8.768 -23.547  0.00  0.00    +0.153 C 
ENDROOT
BRANCH   1   9
ATOM      2  O   UNL     1      33.650  -8.032 -22.781  0.00  0.00    -0.273 OA
ATOM      3  N   UNL     1      32.606  -6.702 -24.374  0.00  0.00    -0.278 N 
ATOM      4  C   UNL     1      32.077  -3.961 -25.129  0.00  0.00    +0.114 C 
ATOM      5  C   UNL     1      33.229  -4.326 -24.192  0.00  0.00    +0.051 C 
ATOM      6  C   UNL     1      30.955  -4.995 -25.035  0.00  0.00    +0.051 C 
ATOM      7  C   UNL     1      33.716  -5.749 -24.446  0.00  0.00    +0.096 C 
ATOM      8  C   UNL     1      31.482  -6.407 -25.273  0.00  0.00    +0.096 C 
ATOM      9  C   UNL     1      32.694  -7.807 -23.528  0.00  0.00    +0.244 C 
BRANCH   4  10
ATOM     10  O   UNL     1      31.555  -2.685 -24.778  0.00  0.00    -0.384 OA
ATOM     11  H   UNL     1      31.548  -2.112 -25.561  0.00  0.00    +0.210 HD
ENDBRANCH   4  10
ENDBRANCH   1   9
BRANCH   1  13
ATOM     12  O   UNL     1      30.628 -10.793 -21.806  0.00  0.00    -0.269 OA
ATOM     13  N   UNL     1      32.150 -10.047 -23.358  0.00  0.00    -0.294 N 
ATOM     14  C   UNL     1      31.642 -11.004 -22.473  0.00  0.00    +0.260 C 
ATOM     15  H   UNL     1      32.963 -10.261 -23.869  0.00  0.00    +0.150 HD
BRANCH  14  18
ATOM     16 CL   UNL     1      35.431 -17.522 -21.077  0.00  0.00    -0.082 Cl
ATOM     17  N   UNL     1      32.679 -12.983 -23.518  0.00  0.00    -0.309 N 
ATOM     18  C   UNL     1      32.368 -12.280 -22.413  0.00  0.00    +0.102 C 
ATOM     19  C   UNL     1      32.811 -12.911 -21.304  0.00  0.00    +0.020 C 
ATOM     20  C   UNL     1      33.449 -14.103 -21.749  0.00  0.00    +0.016 C 
ATOM     21  C   UNL     1      33.353 -14.124 -23.142  0.00  0.00    +0.048 C 
ATOM     22  C   UNL     1      34.102 -15.169 -21.099  0.00  0.00    +0.013 C 
ATOM     23  C   UNL     1      33.879 -15.161 -23.920  0.00  0.00    +0.015 C 
ATOM     24  C   UNL     1      34.632 -16.215 -21.864  0.00  0.00    +0.058 C 
ATOM     25  C   UNL     1      34.521 -16.208 -23.252  0.00  0.00    +0.013 C 
ATOM     26  H   UNL     1      32.462 -12.725 -24.443  0.00  0.00    +0.152 HD
ENDBRANCH  14  18
ENDBRANCH   1  13
BRANCH   1  27
ATOM     27  C   UNL     1      30.537  -8.411 -22.450  0.00  0.00    +0.055 C 
BRANCH  27  29
ATOM     28  F   UNL     1      32.528  -4.455 -18.989  0.00  0.00    -0.204 F 
ATOM     29  C   UNL     1      31.072  -7.350 -21.521  0.00  0.00    -0.020 C 
ATOM     30  C   UNL     1      31.866  -7.722 -20.449  0.00  0.00    -0.002 C 
ATOM     31  C   UNL     1      30.758  -6.019 -21.756  0.00  0.00    -0.002 C 
ATOM     32  C   UNL     1      32.359  -6.740 -19.589  0.00  0.00    +0.029 C 
ATOM     33  C   UNL     1      31.252  -5.037 -20.897  0.00  0.00    +0.029 C 
ATOM     34  C   UNL     1      32.052  -5.398 -19.813  0.00  0.00    +0.140 C 
ENDBRANCH  27  29
ENDBRANCH   1  27
TORSDOF 6
ENDMDL
MODEL 8
REMARK VINA RESULT:      -9.9      9.639     14.426
REMARK  Name = 444746
REMARK  6 active torsions:
REMARK  status: ('A' for Active; 'I' for Inactive)
REMARK    1  A    between atoms: C_1  and  C_9
REMARK    2  A    between atoms: C_1  and  N_13
REMARK    3  A    between atoms: C_1  and  C_27
REMARK    4  A    between atoms: C_4  and  O_10
REMARK    5  A    between atoms: C_14  and  C_18
REMARK    6  A    between atoms: C_27  and  C_29
REMARK                            x       y       z     vdW  Elec       q    Type
REMARK                         _______ _______ _______ _____ _____    ______ ____
ROOT
ATOM      1  C   UNL     1      31.947  -9.995 -23.741  0.00  0.00    +0.153 C 
ENDROOT
BRANCH   1   9
ATOM      2  O   UNL     1      34.152  -9.564 -22.990  0.00  0.00    -0.273 OA
ATOM      3  N   UNL     1      32.941  -7.733 -23.748  0.00  0.00    -0.278 N 
ATOM      4  C   UNL     1      32.361  -4.949 -23.223  0.00  0.00    +0.114 C 
ATOM      5  C   UNL     1      33.614  -5.626 -22.664  0.00  0.00    +0.051 C 
ATOM      6  C   UNL     1      31.245  -5.971 -23.440  0.00  0.00    +0.051 C 
ATOM      7  C   UNL     1      34.047  -6.794 -23.544  0.00  0.00    +0.096 C 
ATOM      8  C   UNL     1      31.719  -7.135 -24.304  0.00  0.00    +0.096 C 
ATOM      9  C   UNL     1      33.116  -9.086 -23.457  0.00  0.00    +0.244 C 
BRANCH   4  10
ATOM     10  O   UNL     1      31.903  -3.957 -22.313  0.00  0.00    -0.384 OA
ATOM     11  H   UNL     1      30.950  -3.820 -22.437  0.00  0.00    +0.210 HD
ENDBRANCH   4  10
ENDBRANCH   1   9
BRANCH   1  13
ATOM     12  O   UNL     1      32.369 -12.119 -25.546  0.00  0.00    -0.269 OA
ATOM     13  N   UNL     1      32.444 -11.296 -23.402  0.00  0.00    -0.294 N 
ATOM     14  C   UNL     1      32.628 -12.304 -24.356  0.00  0.00    +0.260 C 
ATOM     15  H   UNL     1      32.664 -11.490 -22.462  0.00  0.00    +0.150 HD
BRANCH  14  18
ATOM     16 CL   UNL     1      35.749 -18.374 -20.865  0.00  0.00    -0.082 Cl
ATOM     17  N   UNL     1      33.128 -14.708 -24.582  0.00  0.00    -0.309 N 
ATOM     18  C   UNL     1      33.175 -13.573 -23.859  0.00  0.00    +0.102 C 
ATOM     19  C   UNL     1      33.775 -13.789 -22.668  0.00  0.00    +0.020 C 
ATOM     20  C   UNL     1      34.132 -15.167 -22.643  0.00  0.00    +0.016 C 
ATOM     21  C   UNL     1      33.715 -15.720 -23.856  0.00  0.00    +0.048 C 
ATOM     22  C   UNL     1      34.772 -15.999 -21.703  0.00  0.00    +0.013 C 
ATOM     23  C   UNL     1      33.906 -17.069 -24.176  0.00  0.00    +0.015 C 
ATOM     24  C   UNL     1      34.968 -17.350 -22.009  0.00  0.00    +0.058 C 
ATOM     25  C   UNL     1      34.542 -17.874 -23.227  0.00  0.00    +0.013 C 
ATOM     26  H   UNL     1      32.739 -14.800 -25.482  0.00  0.00    +0.152 HD
ENDBRANCH  14  18
ENDBRANCH   1  13
BRANCH   1  27
ATOM     27  C   UNL     1      30.741  -9.576 -22.910  0.00  0.00    +0.055 C 
BRANCH  27  29
ATOM     28  F   UNL     1      31.844  -9.629 -17.398  0.00  0.00    -0.204 F 
ATOM     29  C   UNL     1      31.037  -9.590 -21.431  0.00  0.00    -0.020 C 
ATOM     30  C   UNL     1      31.191 -10.804 -20.780  0.00  0.00    -0.002 C 
ATOM     31  C   UNL     1      31.150  -8.388 -20.748  0.00  0.00    -0.002 C 
ATOM     32  C   UNL     1      31.463 -10.817 -19.412  0.00  0.00    +0.029 C 
ATOM     33  C   UNL     1      31.423  -8.401 -19.380  0.00  0.00    +0.029 C 
ATOM     34  C   UNL     1      31.579  -9.616 -18.712  0.00  0.00    +0.140 C 
ENDBRANCH  27  29
ENDBRANCH   1  27
TORSDOF 6
ENDMDL
MODEL 9
REMARK VINA RESULT:      -9.5     12.075     17.022
REMARK  Name = 444746
REMARK  6 active torsions:
REMARK  status: ('A' for Active; 'I' for Inactive)
REMARK    1  A    between atoms: C_1  and  C_9
REMARK    2  A    between atoms: C_1  and  N_13
REMARK    3  A    between atoms: C_1  and  C_27
REMARK    4  A    between atoms: C_4  and  O_10
REMARK    5  A    between atoms: C_14  and  C_18
REMARK    6  A    between atoms: C_27  and  C_29
REMARK                            x       y       z     vdW  Elec       q    Type
REMARK                         _______ _______ _______ _____ _____    ______ ____
ROOT
ATOM      1  C   UNL     1      32.725  -7.253 -23.073  0.00  0.00    +0.153 C 
ENDROOT
BRANCH   1   9
ATOM      2  O   UNL     1      31.357  -7.718 -21.195  0.00  0.00    -0.273 OA
ATOM      3  N   UNL     1      31.691  -5.477 -21.702  0.00  0.00    -0.278 N 
ATOM      4  C   UNL     1      30.376  -2.905 -21.856  0.00  0.00    +0.114 C 
ATOM      5  C   UNL     1      29.804  -4.049 -21.016  0.00  0.00    +0.051 C 
ATOM      6  C   UNL     1      31.205  -3.450 -23.019  0.00  0.00    +0.051 C 
ATOM      7  C   UNL     1      30.906  -5.001 -20.561  0.00  0.00    +0.096 C 
ATOM      8  C   UNL     1      32.281  -4.415 -22.530  0.00  0.00    +0.096 C 
ATOM      9  C   UNL     1      31.863  -6.845 -21.904  0.00  0.00    +0.244 C 
BRANCH   4  10
ATOM     10  O   UNL     1      29.316  -2.115 -22.379  0.00  0.00    -0.384 OA
ATOM     11  H   UNL     1      29.439  -2.001 -23.335  0.00  0.00    +0.210 HD
ENDBRANCH   4  10
ENDBRANCH   1   9
BRANCH   1  13
ATOM     12  O   UNL     1      31.109  -9.468 -23.730  0.00  0.00    -0.269 OA
ATOM     13  N   UNL     1      33.034  -8.626 -22.799  0.00  0.00    -0.294 N 
ATOM     14  C   UNL     1      32.180  -9.675 -23.156  0.00  0.00    +0.260 C 
ATOM     15  H   UNL     1      33.879  -8.840 -22.341  0.00  0.00    +0.150 HD
BRANCH  14  18
ATOM     16 CL   UNL     1      34.969 -16.789 -22.523  0.00  0.00    -0.082 Cl
ATOM     17  N   UNL     1      32.509 -11.569 -21.610  0.00  0.00    -0.309 N 
ATOM     18  C   UNL     1      32.650 -11.030 -22.836  0.00  0.00    +0.102 C 
ATOM     19  C   UNL     1      33.263 -11.896 -23.672  0.00  0.00    +0.020 C 
ATOM     20  C   UNL     1      33.526 -13.069 -22.911  0.00  0.00    +0.016 C 
ATOM     21  C   UNL     1      33.043 -12.838 -21.621  0.00  0.00    +0.048 C 
ATOM     22  C   UNL     1      34.131 -14.310 -23.196  0.00  0.00    +0.013 C 
ATOM     23  C   UNL     1      33.134 -13.789 -20.598  0.00  0.00    +0.015 C 
ATOM     24  C   UNL     1      34.231 -15.270 -22.183  0.00  0.00    +0.058 C 
ATOM     25  C   UNL     1      33.739 -15.011 -20.905  0.00  0.00    +0.013 C 
ATOM     26  H   UNL     1      32.092 -11.129 -20.834  0.00  0.00    +0.152 HD
ENDBRANCH  14  18
ENDBRANCH   1  13
BRANCH   1  27
ATOM     27  C   UNL     1      31.968  -7.056 -24.379  0.00  0.00    +0.055 C 
BRANCH  27  29
ATOM     28  F   UNL     1      35.072  -4.411 -28.248  0.00  0.00    -0.204 F 
ATOM     29  C   UNL     1      32.801  -6.346 -25.417  0.00  0.00    -0.020 C 
ATOM     30  C   UNL     1      32.211  -5.947 -26.606  0.00  0.00    -0.002 C 
ATOM     31  C   UNL     1      34.143  -6.105 -25.164  0.00  0.00    -0.002 C 
ATOM     32  C   UNL     1      32.982  -5.292 -27.567  0.00  0.00    +0.029 C 
ATOM     33  C   UNL     1      34.914  -5.448 -26.124  0.00  0.00    +0.029 C 
ATOM     34  C   UNL     1      34.333  -5.043 -27.326  0.00  0.00    +0.140 C 
ENDBRANCH  27  29
ENDBRANCH   1  27
TORSDOF 6
ENDMDL
