MODEL 1
REMARK VINA RESULT:     -12.4      0.000      0.000
REMARK  Name = 72165228
REMARK  6 active torsions:
REMARK  status: ('A' for Active; 'I' for Inactive)
REMARK    1  A    between atoms: C_3  and  C_9
REMARK    2  A    between atoms: C_5  and  C_22
REMARK    3  A    between atoms: C_14  and  O_18
REMARK    4  A    between atoms: N_21  and  C_24
REMARK    5  A    between atoms: C_29  and  O_30
REMARK    6  A    between atoms: O_30  and  C_34
REMARK                            x       y       z     vdW  Elec       q    Type
REMARK                         _______ _______ _______ _____ _____    ______ ____
ROOT
ATOM      1  N   UNL     1      36.982 -22.301 -15.777  0.00  0.00    -0.229 NA
ATOM      2  C   UNL     1      36.008 -22.761 -14.958  0.00  0.00    +0.133 C 
ATOM      3  C   UNL     1      34.668 -22.819 -15.303  0.00  0.00    +0.047 C 
ATOM      4  C   UNL     1      34.301 -22.379 -16.570  0.00  0.00    +0.010 C 
ATOM      5  C   UNL     1      35.273 -21.900 -17.441  0.00  0.00    +0.073 C 
ATOM      6  C   UNL     1      36.587 -21.881 -17.000  0.00  0.00    +0.105 C 
ATOM      7  N   UNL     1      36.387 -23.192 -13.705  0.00  0.00    -0.291 N 
ATOM      8  C   UNL     1      37.190 -24.565 -11.965  0.00  0.00    +0.132 C 
ATOM      9  C   UNL     1      36.820 -23.205 -11.390  0.00  0.00    +0.052 C 
ATOM     10  C   UNL     1      37.320 -24.296 -13.464  0.00  0.00    +0.121 C 
ATOM     11  C   UNL     1      35.898 -22.613 -12.457  0.00  0.00    +0.095 C 
ENDROOT
BRANCH   3  14
ATOM     12  N   UNL     1      32.715 -22.507 -13.828  0.00  0.00    -0.236 N 
ATOM     13  N   UNL     1      31.859 -23.158 -13.022  0.00  0.00    -0.180 NA
ATOM     14  C   UNL     1      33.652 -23.314 -14.403  0.00  0.00    +0.069 C 
ATOM     15  C   UNL     1      33.391 -24.581 -13.941  0.00  0.00    +0.038 C 
ATOM     16  C   UNL     1      32.277 -24.425 -13.095  0.00  0.00    +0.119 C 
ATOM     17  H   UNL     1      32.670 -21.537 -13.988  0.00  0.00    +0.174 HD
ENDBRANCH   3  14
BRANCH   5  20
ATOM     18  O   UNL     1      34.248 -22.165 -19.512  0.00  0.00    -0.270 OA
ATOM     19  N   UNL     1      35.413 -20.166 -19.124  0.00  0.00    -0.280 N 
ATOM     20  C   UNL     1      34.924 -21.432 -18.771  0.00  0.00    +0.251 C 
ATOM     21  H   UNL     1      35.935 -19.701 -18.432  0.00  0.00    +0.155 HD
BRANCH  19  22
ATOM     22  C   UNL     1      35.256 -19.469 -20.347  0.00  0.00    +0.051 C 
ATOM     23  C   UNL     1      36.323 -18.744 -20.879  0.00  0.00    +0.018 C 
ATOM     24  C   UNL     1      34.035 -19.506 -21.020  0.00  0.00    +0.018 C 
ATOM     25  C   UNL     1      36.168 -18.057 -22.083  0.00  0.00    +0.038 C 
ATOM     26  C   UNL     1      33.879 -18.820 -22.224  0.00  0.00    +0.038 C 
ATOM     27  C   UNL     1      34.947 -18.095 -22.756  0.00  0.00    +0.145 C 
BRANCH  27  28
ATOM     28  O   UNL     1      34.796 -17.425 -23.931  0.00  0.00    -0.418 OA
BRANCH  28  32
ATOM     29 CL   UNL     1      34.280 -15.417 -22.332  0.00  0.00    +0.000 Cl
ATOM     30  F   UNL     1      34.661 -15.351 -24.864  0.00  0.00    -0.149 F 
ATOM     31  F   UNL     1      32.810 -16.346 -24.213  0.00  0.00    -0.149 F 
ATOM     32  C   UNL     1      34.122 -16.166 -23.925  0.00  0.00    +0.489 C 
ENDBRANCH  28  32
ENDBRANCH  27  28
ENDBRANCH  19  22
ENDBRANCH   5  20
BRANCH   8  33
ATOM     33  O   UNL     1      36.136 -25.495 -11.744  0.00  0.00    -0.383 OA
ATOM     34  H   UNL     1      35.634 -25.616 -12.565  0.00  0.00    +0.210 HD
ENDBRANCH   8  33
TORSDOF 6
ENDMDL
MODEL 2
REMARK VINA RESULT:     -11.3      9.151     15.331
REMARK  Name = 72165228
REMARK  6 active torsions:
REMARK  status: ('A' for Active; 'I' for Inactive)
REMARK    1  A    between atoms: C_3  and  C_9
REMARK    2  A    between atoms: C_5  and  C_22
REMARK    3  A    between atoms: C_14  and  O_18
REMARK    4  A    between atoms: N_21  and  C_24
REMARK    5  A    between atoms: C_29  and  O_30
REMARK    6  A    between atoms: O_30  and  C_34
REMARK                            x       y       z     vdW  Elec       q    Type
REMARK                         _______ _______ _______ _____ _____    ______ ____
ROOT
ATOM      1  N   UNL     1      31.025  -7.882 -20.920  0.00  0.00    -0.229 NA
ATOM      2  C   UNL     1      31.332  -7.200 -22.047  0.00  0.00    +0.133 C 
ATOM      3  C   UNL     1      31.807  -7.793 -23.206  0.00  0.00    +0.047 C 
ATOM      4  C   UNL     1      31.976  -9.173 -23.211  0.00  0.00    +0.010 C 
ATOM      5  C   UNL     1      31.670  -9.908 -22.071  0.00  0.00    +0.073 C 
ATOM      6  C   UNL     1      31.203  -9.222 -20.961  0.00  0.00    +0.105 C 
ATOM      7  N   UNL     1      31.160  -5.833 -22.026  0.00  0.00    -0.291 N 
ATOM      8  C   UNL     1      30.147  -3.709 -22.150  0.00  0.00    +0.132 C 
ATOM      9  C   UNL     1      31.622  -3.533 -21.823  0.00  0.00    +0.052 C 
ATOM     10  C   UNL     1      29.874  -5.171 -21.797  0.00  0.00    +0.121 C 
ATOM     11  C   UNL     1      32.236  -4.869 -22.243  0.00  0.00    +0.095 C 
ENDROOT
BRANCH   3  14
ATOM     12  N   UNL     1      33.400  -6.651 -24.705  0.00  0.00    -0.236 N 
ATOM     13  N   UNL     1      33.491  -5.954 -25.851  0.00  0.00    -0.180 NA
ATOM     14  C   UNL     1      32.129  -7.035 -24.393  0.00  0.00    +0.069 C 
ATOM     15  C   UNL     1      31.333  -6.555 -25.405  0.00  0.00    +0.038 C 
ATOM     16  C   UNL     1      32.225  -5.899 -26.273  0.00  0.00    +0.119 C 
ATOM     17  H   UNL     1      34.179  -6.865 -24.143  0.00  0.00    +0.174 HD
ENDBRANCH   3  14
BRANCH   5  20
ATOM     18  O   UNL     1      31.069 -12.035 -21.343  0.00  0.00    -0.270 OA
ATOM     19  N   UNL     1      32.892 -11.863 -22.811  0.00  0.00    -0.280 N 
ATOM     20  C   UNL     1      31.836 -11.351 -22.042  0.00  0.00    +0.251 C 
ATOM     21  H   UNL     1      33.415 -11.199 -23.315  0.00  0.00    +0.155 HD
BRANCH  19  22
ATOM     22  C   UNL     1      33.305 -13.210 -22.957  0.00  0.00    +0.051 C 
ATOM     23  C   UNL     1      33.873 -13.886 -21.878  0.00  0.00    +0.018 C 
ATOM     24  C   UNL     1      33.145 -13.859 -24.181  0.00  0.00    +0.018 C 
ATOM     25  C   UNL     1      34.281 -15.212 -22.021  0.00  0.00    +0.038 C 
ATOM     26  C   UNL     1      33.552 -15.185 -24.326  0.00  0.00    +0.038 C 
ATOM     27  C   UNL     1      34.121 -15.863 -23.245  0.00  0.00    +0.145 C 
BRANCH  27  28
ATOM     28  O   UNL     1      34.517 -17.157 -23.385  0.00  0.00    -0.418 OA
BRANCH  28  32
ATOM     29 CL   UNL     1      36.543 -18.024 -21.971  0.00  0.00    +0.000 Cl
ATOM     30  F   UNL     1      34.224 -17.333 -21.133  0.00  0.00    -0.149 F 
ATOM     31  F   UNL     1      34.282 -19.169 -22.343  0.00  0.00    -0.149 F 
ATOM     32  C   UNL     1      34.796 -17.922 -22.212  0.00  0.00    +0.489 C 
ENDBRANCH  28  32
ENDBRANCH  27  28
ENDBRANCH  19  22
ENDBRANCH   5  20
BRANCH   8  33
ATOM     33  O   UNL     1      29.925  -3.512 -23.541  0.00  0.00    -0.383 OA
ATOM     34  H   UNL     1      29.674  -4.354 -23.951  0.00  0.00    +0.210 HD
ENDBRANCH   8  33
TORSDOF 6
ENDMDL
MODEL 3
REMARK VINA RESULT:     -10.1      1.347      1.741
REMARK  Name = 72165228
REMARK  6 active torsions:
REMARK  status: ('A' for Active; 'I' for Inactive)
REMARK    1  A    between atoms: C_3  and  C_9
REMARK    2  A    between atoms: C_5  and  C_22
REMARK    3  A    between atoms: C_14  and  O_18
REMARK    4  A    between atoms: N_21  and  C_24
REMARK    5  A    between atoms: C_29  and  O_30
REMARK    6  A    between atoms: O_30  and  C_34
REMARK                            x       y       z     vdW  Elec       q    Type
REMARK                         _______ _______ _______ _____ _____    ______ ____
ROOT
ATOM      1  N   UNL     1      38.053 -22.535 -15.325  0.00  0.00    -0.229 NA
ATOM      2  C   UNL     1      36.918 -23.058 -14.808  0.00  0.00    +0.133 C 
ATOM      3  C   UNL     1      35.644 -22.715 -15.229  0.00  0.00    +0.047 C 
ATOM      4  C   UNL     1      35.525 -21.775 -16.247  0.00  0.00    +0.010 C 
ATOM      5  C   UNL     1      36.669 -21.215 -16.804  0.00  0.00    +0.073 C 
ATOM      6  C   UNL     1      37.899 -21.624 -16.312  0.00  0.00    +0.105 C 
ATOM      7  N   UNL     1      37.052 -23.988 -13.799  0.00  0.00    -0.291 N 
ATOM      8  C   UNL     1      37.382 -26.036 -12.681  0.00  0.00    +0.132 C 
ATOM      9  C   UNL     1      37.166 -24.940 -11.649  0.00  0.00    +0.052 C 
ATOM     10  C   UNL     1      37.752 -25.266 -13.948  0.00  0.00    +0.121 C 
ATOM     11  C   UNL     1      36.502 -23.824 -12.456  0.00  0.00    +0.095 C 
ENDROOT
BRANCH   3  14
ATOM     12  N   UNL     1      33.557 -22.566 -13.922  0.00  0.00    -0.236 N 
ATOM     13  N   UNL     1      32.513 -23.284 -13.474  0.00  0.00    -0.180 NA
ATOM     14  C   UNL     1      34.451 -23.291 -14.654  0.00  0.00    +0.069 C 
ATOM     15  C   UNL     1      33.957 -24.572 -14.687  0.00  0.00    +0.038 C 
ATOM     16  C   UNL     1      32.763 -24.509 -13.944  0.00  0.00    +0.119 C 
ATOM     17  H   UNL     1      33.666 -21.605 -13.739  0.00  0.00    +0.174 HD
ENDBRANCH   3  14
BRANCH   5  20
ATOM     18  O   UNL     1      37.179 -19.149 -17.744  0.00  0.00    -0.270 OA
ATOM     19  N   UNL     1      35.785 -20.585 -18.968  0.00  0.00    -0.280 N 
ATOM     20  C   UNL     1      36.581 -20.230 -17.868  0.00  0.00    +0.251 C 
ATOM     21  H   UNL     1      35.372 -21.477 -18.926  0.00  0.00    +0.155 HD
BRANCH  19  22
ATOM     22  C   UNL     1      35.496 -19.827 -20.130  0.00  0.00    +0.051 C 
ATOM     23  C   UNL     1      34.281 -20.004 -20.793  0.00  0.00    +0.018 C 
ATOM     24  C   UNL     1      36.426 -18.906 -20.610  0.00  0.00    +0.018 C 
ATOM     25  C   UNL     1      33.997 -19.259 -21.937  0.00  0.00    +0.038 C 
ATOM     26  C   UNL     1      36.142 -18.160 -21.754  0.00  0.00    +0.038 C 
ATOM     27  C   UNL     1      34.927 -18.337 -22.418  0.00  0.00    +0.145 C 
BRANCH  27  28
ATOM     28  O   UNL     1      34.648 -17.609 -23.534  0.00  0.00    -0.418 OA
BRANCH  28  32
ATOM     29 CL   UNL     1      34.971 -15.099 -24.208  0.00  0.00    +0.000 Cl
ATOM     30  F   UNL     1      32.770 -16.378 -23.921  0.00  0.00    -0.149 F 
ATOM     31  F   UNL     1      33.907 -16.028 -22.070  0.00  0.00    -0.149 F 
ATOM     32  C   UNL     1      34.015 -16.337 -23.385  0.00  0.00    +0.489 C 
ENDBRANCH  28  32
ENDBRANCH  27  28
ENDBRANCH  19  22
ENDBRANCH   5  20
BRANCH   8  33
ATOM     33  O   UNL     1      36.171 -26.749 -12.901  0.00  0.00    -0.383 OA
ATOM     34  H   UNL     1      36.366 -27.692 -13.013  0.00  0.00    +0.210 HD
ENDBRANCH   8  33
TORSDOF 6
ENDMDL
MODEL 4
REMARK VINA RESULT:      -9.7      8.567     14.463
REMARK  Name = 72165228
REMARK  6 active torsions:
REMARK  status: ('A' for Active; 'I' for Inactive)
REMARK    1  A    between atoms: C_3  and  C_9
REMARK    2  A    between atoms: C_5  and  C_22
REMARK    3  A    between atoms: C_14  and  O_18
REMARK    4  A    between atoms: N_21  and  C_24
REMARK    5  A    between atoms: C_29  and  O_30
REMARK    6  A    between atoms: O_30  and  C_34
REMARK                            x       y       z     vdW  Elec       q    Type
REMARK                         _______ _______ _______ _____ _____    ______ ____
ROOT
ATOM      1  N   UNL     1      31.654  -9.133 -24.052  0.00  0.00    -0.229 NA
ATOM      2  C   UNL     1      31.692  -8.170 -23.104  0.00  0.00    +0.133 C 
ATOM      3  C   UNL     1      31.919  -8.414 -21.759  0.00  0.00    +0.047 C 
ATOM      4  C   UNL     1      32.120  -9.730 -21.360  0.00  0.00    +0.010 C 
ATOM      5  C   UNL     1      32.089 -10.749 -22.306  0.00  0.00    +0.073 C 
ATOM      6  C   UNL     1      31.853 -10.402 -23.627  0.00  0.00    +0.105 C 
ATOM      7  N   UNL     1      31.489  -6.870 -23.514  0.00  0.00    -0.291 N 
ATOM      8  C   UNL     1      31.889  -4.713 -24.377  0.00  0.00    +0.132 C 
ATOM      9  C   UNL     1      30.423  -4.825 -23.988  0.00  0.00    +0.052 C 
ATOM     10  C   UNL     1      32.345  -6.169 -24.474  0.00  0.00    +0.121 C 
ATOM     11  C   UNL     1      30.403  -6.020 -23.035  0.00  0.00    +0.095 C 
ENDROOT
BRANCH   3  14
ATOM     12  N   UNL     1      31.132  -7.345 -19.679  0.00  0.00    -0.236 N 
ATOM     13  N   UNL     1      31.316  -6.280 -18.878  0.00  0.00    -0.180 NA
ATOM     14  C   UNL     1      31.950  -7.361 -20.770  0.00  0.00    +0.069 C 
ATOM     15  C   UNL     1      32.723  -6.229 -20.678  0.00  0.00    +0.038 C 
ATOM     16  C   UNL     1      32.289  -5.602 -19.494  0.00  0.00    +0.119 C 
ATOM     17  H   UNL     1      30.469  -8.047 -19.494  0.00  0.00    +0.174 HD
ENDBRANCH   3  14
BRANCH   5  20
ATOM     18  O   UNL     1      31.530 -12.655 -21.095  0.00  0.00    -0.270 OA
ATOM     19  N   UNL     1      33.388 -12.781 -22.521  0.00  0.00    -0.280 N 
ATOM     20  C   UNL     1      32.296 -12.135 -21.923  0.00  0.00    +0.251 C 
ATOM     21  H   UNL     1      33.906 -12.241 -23.160  0.00  0.00    +0.155 HD
BRANCH  19  22
ATOM     22  C   UNL     1      33.844 -14.107 -22.326  0.00  0.00    +0.051 C 
ATOM     23  C   UNL     1      34.250 -14.873 -23.419  0.00  0.00    +0.018 C 
ATOM     24  C   UNL     1      33.888 -14.648 -21.041  0.00  0.00    +0.018 C 
ATOM     25  C   UNL     1      34.699 -16.179 -23.227  0.00  0.00    +0.038 C 
ATOM     26  C   UNL     1      34.337 -15.954 -20.848  0.00  0.00    +0.038 C 
ATOM     27  C   UNL     1      34.743 -16.721 -21.942  0.00  0.00    +0.145 C 
BRANCH  27  28
ATOM     28  O   UNL     1      35.182 -17.995 -21.754  0.00  0.00    -0.418 OA
BRANCH  28  32
ATOM     29 CL   UNL     1      33.689 -19.758 -20.521  0.00  0.00    +0.000 Cl
ATOM     30  F   UNL     1      33.252 -18.635 -22.782  0.00  0.00    -0.149 F 
ATOM     31  F   UNL     1      34.946 -20.037 -22.736  0.00  0.00    -0.149 F 
ATOM     32  C   UNL     1      34.294 -19.077 -22.036  0.00  0.00    +0.489 C 
ENDBRANCH  28  32
ENDBRANCH  27  28
ENDBRANCH  19  22
ENDBRANCH   5  20
BRANCH   8  33
ATOM     33  O   UNL     1      32.622  -4.059 -23.347  0.00  0.00    -0.383 OA
ATOM     34  H   UNL     1      32.009  -3.730 -22.673  0.00  0.00    +0.210 HD
ENDBRANCH   8  33
TORSDOF 6
ENDMDL
MODEL 5
REMARK VINA RESULT:      -9.5      2.024      3.526
REMARK  Name = 72165228
REMARK  6 active torsions:
REMARK  status: ('A' for Active; 'I' for Inactive)
REMARK    1  A    between atoms: C_3  and  C_9
REMARK    2  A    between atoms: C_5  and  C_22
REMARK    3  A    between atoms: C_14  and  O_18
REMARK    4  A    between atoms: N_21  and  C_24
REMARK    5  A    between atoms: C_29  and  O_30
REMARK    6  A    between atoms: O_30  and  C_34
REMARK                            x       y       z     vdW  Elec       q    Type
REMARK                         _______ _______ _______ _____ _____    ______ ____
ROOT
ATOM      1  N   UNL     1      35.354 -22.433 -14.631  0.00  0.00    -0.229 NA
ATOM      2  C   UNL     1      36.458 -23.185 -14.414  0.00  0.00    +0.133 C 
ATOM      3  C   UNL     1      37.610 -23.110 -15.180  0.00  0.00    +0.047 C 
ATOM      4  C   UNL     1      37.633 -22.205 -16.235  0.00  0.00    +0.010 C 
ATOM      5  C   UNL     1      36.519 -21.414 -16.489  0.00  0.00    +0.073 C 
ATOM      6  C   UNL     1      35.414 -21.566 -15.666  0.00  0.00    +0.105 C 
ATOM      7  N   UNL     1      36.419 -24.078 -13.365  0.00  0.00    -0.291 N 
ATOM      8  C   UNL     1      36.539 -24.969 -11.186  0.00  0.00    +0.132 C 
ATOM      9  C   UNL     1      36.158 -26.080 -12.153  0.00  0.00    +0.052 C 
ATOM     10  C   UNL     1      36.223 -23.693 -11.966  0.00  0.00    +0.121 C 
ATOM     11  C   UNL     1      36.581 -25.522 -13.512  0.00  0.00    +0.095 C 
ENDROOT
BRANCH   3  14
ATOM     12  N   UNL     1      39.164 -24.939 -15.753  0.00  0.00    -0.236 N 
ATOM     13  N   UNL     1      40.269 -25.583 -15.338  0.00  0.00    -0.180 NA
ATOM     14  C   UNL     1      38.771 -23.930 -14.923  0.00  0.00    +0.069 C 
ATOM     15  C   UNL     1      39.682 -23.913 -13.894  0.00  0.00    +0.038 C 
ATOM     16  C   UNL     1      40.580 -24.952 -14.203  0.00  0.00    +0.119 C 
ATOM     17  H   UNL     1      38.683 -25.173 -16.578  0.00  0.00    +0.174 HD
ENDBRANCH   3  14
BRANCH   5  20
ATOM     18  O   UNL     1      37.242 -19.458 -17.519  0.00  0.00    -0.270 OA
ATOM     19  N   UNL     1      35.634 -20.746 -18.642  0.00  0.00    -0.280 N 
ATOM     20  C   UNL     1      36.510 -20.460 -17.584  0.00  0.00    +0.251 C 
ATOM     21  H   UNL     1      35.117 -21.578 -18.554  0.00  0.00    +0.155 HD
BRANCH  19  22
ATOM     22  C   UNL     1      35.396 -19.995 -19.819  0.00  0.00    +0.051 C 
ATOM     23  C   UNL     1      36.404 -19.189 -20.348  0.00  0.00    +0.018 C 
ATOM     24  C   UNL     1      34.153 -20.060 -20.448  0.00  0.00    +0.018 C 
ATOM     25  C   UNL     1      36.169 -18.450 -21.507  0.00  0.00    +0.038 C 
ATOM     26  C   UNL     1      33.917 -19.321 -21.607  0.00  0.00    +0.038 C 
ATOM     27  C   UNL     1      34.926 -18.515 -22.137  0.00  0.00    +0.145 C 
BRANCH  27  28
ATOM     28  O   UNL     1      34.698 -17.794 -23.268  0.00  0.00    -0.418 OA
BRANCH  28  32
ATOM     29 CL   UNL     1      33.298 -15.929 -24.461  0.00  0.00    +0.000 Cl
ATOM     30  F   UNL     1      33.774 -16.176 -21.956  0.00  0.00    -0.149 F 
ATOM     31  F   UNL     1      35.515 -15.668 -23.202  0.00  0.00    -0.149 F 
ATOM     32  C   UNL     1      34.379 -16.406 -23.147  0.00  0.00    +0.489 C 
ENDBRANCH  28  32
ENDBRANCH  27  28
ENDBRANCH  19  22
ENDBRANCH   5  20
BRANCH   8  33
ATOM     33  O   UNL     1      37.934 -25.016 -10.909  0.00  0.00    -0.383 OA
ATOM     34  H   UNL     1      38.375 -24.269 -11.342  0.00  0.00    +0.210 HD
ENDBRANCH   8  33
TORSDOF 6
ENDMDL
