MODEL 1
REMARK VINA RESULT:      -9.8      0.000      0.000
REMARK  Name = 11259
REMARK  4 active torsions:
REMARK  status: ('A' for Active; 'I' for Inactive)
REMARK    1  A    between atoms: S_1  and  C_4
REMARK    2  A    between atoms: S_1  and  N_16
REMARK    3  A    between atoms: C_7  and  N_11
REMARK    4  A    between atoms: N_15  and  C_20
REMARK                            x       y       z     vdW  Elec       q    Type
REMARK                         _______ _______ _______ _____ _____    ______ ____
ROOT
ATOM      1  S   UNL     1      33.298 -22.061 -18.662  0.00  0.00    +0.077 S 
ATOM      2  O   UNL     1      33.346 -23.328 -19.365  0.00  0.00    -0.150 OA
ATOM      3  O   UNL     1      32.024 -21.443 -18.348  0.00  0.00    -0.150 OA
ENDROOT
BRANCH   1   4
ATOM      4  C   UNL     1      34.225 -20.879 -19.592  0.00  0.00    +0.126 C 
ATOM      5  C   UNL     1      33.607 -20.195 -20.624  0.00  0.00    +0.034 C 
ATOM      6  C   UNL     1      35.554 -20.659 -19.271  0.00  0.00    +0.020 C 
ATOM      7  C   UNL     1      34.340 -19.262 -21.358  0.00  0.00    +0.039 C 
ATOM      8  C   UNL     1      35.680 -19.027 -21.048  0.00  0.00    -0.009 C 
ATOM      9  C   UNL     1      36.286 -19.726 -20.005  0.00  0.00    -0.002 C 
ATOM     10  C   UNL     1      36.487 -18.034 -21.818  0.00  0.00    +0.032 C 
BRANCH   7  11
ATOM     11  N   UNL     1      33.709 -18.565 -22.412  0.00  0.00    -0.357 N 
ATOM     12  H   UNL     1      33.934 -17.621 -22.582  0.00  0.00    +0.142 HD
ATOM     13  H   UNL     1      33.044 -19.022 -22.976  0.00  0.00    +0.142 HD
ENDBRANCH   7  11
ENDBRANCH   1   4
BRANCH   1  16
ATOM     14  O   UNL     1      33.023 -23.813 -16.112  0.00  0.00    -0.251 OA
ATOM     15  N   UNL     1      34.904 -22.906 -15.120  0.00  0.00    -0.289 N 
ATOM     16  N   UNL     1      34.239 -22.167 -17.237  0.00  0.00    -0.169 N 
ATOM     17  C   UNL     1      33.975 -23.038 -16.133  0.00  0.00    +0.319 C 
ATOM     18  H   UNL     1      35.632 -22.254 -15.233  0.00  0.00    +0.151 HD
ATOM     19  H   UNL     1      35.026 -21.580 -17.172  0.00  0.00    +0.178 HD
BRANCH  15  20
ATOM     20  C   UNL     1      34.855 -23.683 -13.902  0.00  0.00    +0.073 C 
ATOM     21  C   UNL     1      35.557 -25.033 -14.081  0.00  0.00    +0.020 C 
ATOM     22  C   UNL     1      35.446 -22.901 -12.724  0.00  0.00    +0.020 C 
ATOM     23  C   UNL     1      37.076 -24.894 -14.171  0.00  0.00    +0.002 C 
ATOM     24  C   UNL     1      36.966 -22.765 -12.818  0.00  0.00    +0.002 C 
ATOM     25  C   UNL     1      37.643 -24.122 -12.984  0.00  0.00    +0.000 C 
ENDBRANCH  15  20
ENDBRANCH   1  16
TORSDOF 4
ENDMDL
MODEL 2
REMARK VINA RESULT:      -9.4      3.583      4.868
REMARK  Name = 11259
REMARK  4 active torsions:
REMARK  status: ('A' for Active; 'I' for Inactive)
REMARK    1  A    between atoms: S_1  and  C_4
REMARK    2  A    between atoms: S_1  and  N_16
REMARK    3  A    between atoms: C_7  and  N_11
REMARK    4  A    between atoms: N_15  and  C_20
REMARK                            x       y       z     vdW  Elec       q    Type
REMARK                         _______ _______ _______ _____ _____    ______ ____
ROOT
ATOM      1  S   UNL     1      33.810 -22.349 -18.682  0.00  0.00    +0.077 S 
ATOM      2  O   UNL     1      34.760 -22.315 -17.587  0.00  0.00    -0.150 OA
ATOM      3  O   UNL     1      33.769 -23.483 -19.584  0.00  0.00    -0.150 OA
ENDROOT
BRANCH   1   4
ATOM      4  C   UNL     1      34.067 -20.911 -19.677  0.00  0.00    +0.126 C 
ATOM      5  C   UNL     1      35.350 -20.418 -19.835  0.00  0.00    +0.034 C 
ATOM      6  C   UNL     1      32.979 -20.305 -20.281  0.00  0.00    +0.020 C 
ATOM      7  C   UNL     1      35.552 -19.284 -20.621  0.00  0.00    +0.039 C 
ATOM      8  C   UNL     1      34.467 -18.659 -21.237  0.00  0.00    -0.009 C 
ATOM      9  C   UNL     1      33.181 -19.171 -21.067  0.00  0.00    -0.002 C 
ATOM     10  C   UNL     1      34.655 -17.443 -22.084  0.00  0.00    +0.032 C 
BRANCH   7  11
ATOM     11  N   UNL     1      36.862 -18.780 -20.781  0.00  0.00    -0.357 N 
ATOM     12  H   UNL     1      37.034 -18.049 -21.419  0.00  0.00    +0.142 HD
ATOM     13  H   UNL     1      37.603 -19.159 -20.255  0.00  0.00    +0.142 HD
ENDBRANCH   7  11
ENDBRANCH   1   4
BRANCH   1  16
ATOM     14  O   UNL     1      32.485 -22.960 -15.940  0.00  0.00    -0.251 OA
ATOM     15  N   UNL     1      30.457 -22.039 -16.561  0.00  0.00    -0.289 N 
ATOM     16  N   UNL     1      32.238 -22.052 -18.077  0.00  0.00    -0.169 N 
ATOM     17  C   UNL     1      31.773 -22.403 -16.771  0.00  0.00    +0.319 C 
ATOM     18  H   UNL     1      29.971 -21.595 -17.291  0.00  0.00    +0.151 HD
ATOM     19  H   UNL     1      31.601 -21.603 -18.679  0.00  0.00    +0.178 HD
BRANCH  15  20
ATOM     20  C   UNL     1      29.764 -22.282 -15.316  0.00  0.00    +0.073 C 
ATOM     21  C   UNL     1      28.269 -21.970 -15.448  0.00  0.00    +0.020 C 
ATOM     22  C   UNL     1      29.991 -23.717 -14.829  0.00  0.00    +0.020 C 
ATOM     23  C   UNL     1      27.529 -23.003 -16.297  0.00  0.00    +0.002 C 
ATOM     24  C   UNL     1      29.248 -24.747 -15.680  0.00  0.00    +0.002 C 
ATOM     25  C   UNL     1      27.761 -24.422 -15.787  0.00  0.00    +0.000 C 
ENDBRANCH  15  20
ENDBRANCH   1  16
TORSDOF 4
ENDMDL
MODEL 3
REMARK VINA RESULT:      -9.3      1.102      1.623
REMARK  Name = 11259
REMARK  4 active torsions:
REMARK  status: ('A' for Active; 'I' for Inactive)
REMARK    1  A    between atoms: S_1  and  C_4
REMARK    2  A    between atoms: S_1  and  N_16
REMARK    3  A    between atoms: C_7  and  N_11
REMARK    4  A    between atoms: N_15  and  C_20
REMARK                            x       y       z     vdW  Elec       q    Type
REMARK                         _______ _______ _______ _____ _____    ______ ____
ROOT
ATOM      1  S   UNL     1      33.184 -22.277 -18.539  0.00  0.00    +0.077 S 
ATOM      2  O   UNL     1      33.374 -23.504 -19.288  0.00  0.00    -0.150 OA
ATOM      3  O   UNL     1      31.880 -21.938 -18.003  0.00  0.00    -0.150 OA
ENDROOT
BRANCH   1   4
ATOM      4  C   UNL     1      33.684 -20.925 -19.562  0.00  0.00    +0.126 C 
ATOM      5  C   UNL     1      35.008 -20.523 -19.551  0.00  0.00    +0.034 C 
ATOM      6  C   UNL     1      32.742 -20.294 -20.355  0.00  0.00    +0.020 C 
ATOM      7  C   UNL     1      35.402 -19.456 -20.359  0.00  0.00    +0.039 C 
ATOM      8  C   UNL     1      34.466 -18.807 -21.165  0.00  0.00    -0.009 C 
ATOM      9  C   UNL     1      33.135 -19.227 -21.163  0.00  0.00    -0.002 C 
ATOM     10  C   UNL     1      34.860 -17.662 -22.039  0.00  0.00    +0.032 C 
BRANCH   7  11
ATOM     11  N   UNL     1      36.753 -19.044 -20.347  0.00  0.00    -0.357 N 
ATOM     12  H   UNL     1      36.978 -18.094 -20.219  0.00  0.00    +0.142 HD
ATOM     13  H   UNL     1      37.471 -19.708 -20.467  0.00  0.00    +0.142 HD
ENDBRANCH   7  11
ENDBRANCH   1   4
BRANCH   1  16
ATOM     14  O   UNL     1      33.207 -23.383 -15.637  0.00  0.00    -0.251 OA
ATOM     15  N   UNL     1      35.306 -22.529 -15.182  0.00  0.00    -0.289 N 
ATOM     16  N   UNL     1      34.347 -22.189 -17.289  0.00  0.00    -0.169 N 
ATOM     17  C   UNL     1      34.205 -22.758 -15.984  0.00  0.00    +0.319 C 
ATOM     18  H   UNL     1      36.058 -22.015 -15.554  0.00  0.00    +0.151 HD
ATOM     19  H   UNL     1      35.183 -21.707 -17.483  0.00  0.00    +0.178 HD
BRANCH  15  20
ATOM     20  C   UNL     1      35.402 -23.010 -13.822  0.00  0.00    +0.073 C 
ATOM     21  C   UNL     1      35.014 -24.489 -13.732  0.00  0.00    +0.020 C 
ATOM     22  C   UNL     1      36.803 -22.766 -13.249  0.00  0.00    +0.020 C 
ATOM     23  C   UNL     1      36.069 -25.409 -14.347  0.00  0.00    +0.002 C 
ATOM     24  C   UNL     1      37.854 -23.689 -13.867  0.00  0.00    +0.002 C 
ATOM     25  C   UNL     1      37.451 -25.157 -13.755  0.00  0.00    +0.000 C 
ENDBRANCH  15  20
ENDBRANCH   1  16
TORSDOF 4
ENDMDL
MODEL 4
REMARK VINA RESULT:      -9.3     10.237     14.897
REMARK  Name = 11259
REMARK  4 active torsions:
REMARK  status: ('A' for Active; 'I' for Inactive)
REMARK    1  A    between atoms: S_1  and  C_4
REMARK    2  A    between atoms: S_1  and  N_16
REMARK    3  A    between atoms: C_7  and  N_11
REMARK    4  A    between atoms: N_15  and  C_20
REMARK                            x       y       z     vdW  Elec       q    Type
REMARK                         _______ _______ _______ _____ _____    ______ ____
ROOT
ATOM      1  S   UNL     1      31.321 -10.829 -21.254  0.00  0.00    +0.077 S 
ATOM      2  O   UNL     1      31.606 -10.498 -19.872  0.00  0.00    -0.150 OA
ATOM      3  O   UNL     1      29.957 -11.065 -21.688  0.00  0.00    -0.150 OA
ENDROOT
BRANCH   1   4
ATOM      4  C   UNL     1      32.250 -12.271 -21.678  0.00  0.00    +0.126 C 
ATOM      5  C   UNL     1      32.259 -12.709 -22.991  0.00  0.00    +0.034 C 
ATOM      6  C   UNL     1      32.952 -12.937 -20.688  0.00  0.00    +0.020 C 
ATOM      7  C   UNL     1      32.993 -13.847 -23.324  0.00  0.00    +0.039 C 
ATOM      8  C   UNL     1      33.706 -14.531 -22.339  0.00  0.00    -0.009 C 
ATOM      9  C   UNL     1      33.686 -14.075 -21.021  0.00  0.00    -0.002 C 
ATOM     10  C   UNL     1      34.500 -15.753 -22.669  0.00  0.00    +0.032 C 
BRANCH   7  11
ATOM     11  N   UNL     1      33.001 -14.294 -24.664  0.00  0.00    -0.357 N 
ATOM     12  H   UNL     1      32.733 -13.684 -25.388  0.00  0.00    +0.142 HD
ATOM     13  H   UNL     1      33.276 -15.217 -24.873  0.00  0.00    +0.142 HD
ENDBRANCH   7  11
ENDBRANCH   1   4
BRANCH   1  16
ATOM     14  O   UNL     1      30.964  -7.752 -21.478  0.00  0.00    -0.251 OA
ATOM     15  N   UNL     1      32.498  -7.561 -23.197  0.00  0.00    -0.289 N 
ATOM     16  N   UNL     1      32.043  -9.663 -22.276  0.00  0.00    -0.169 N 
ATOM     17  C   UNL     1      31.765  -8.260 -22.257  0.00  0.00    +0.319 C 
ATOM     18  H   UNL     1      33.116  -8.061 -23.776  0.00  0.00    +0.151 HD
ATOM     19  H   UNL     1      32.703  -9.984 -22.932  0.00  0.00    +0.178 HD
BRANCH  15  20
ATOM     20  C   UNL     1      32.397  -6.129 -23.367  0.00  0.00    +0.073 C 
ATOM     21  C   UNL     1      33.736  -5.532 -23.814  0.00  0.00    +0.020 C 
ATOM     22  C   UNL     1      31.274  -5.768 -24.345  0.00  0.00    +0.020 C 
ATOM     23  C   UNL     1      34.079  -5.884 -25.261  0.00  0.00    +0.002 C 
ATOM     24  C   UNL     1      31.622  -6.121 -25.791  0.00  0.00    +0.002 C 
ATOM     25  C   UNL     1      32.952  -5.506 -26.216  0.00  0.00    +0.000 C 
ENDBRANCH  15  20
ENDBRANCH   1  16
TORSDOF 4
ENDMDL
MODEL 5
REMARK VINA RESULT:      -9.2      7.204     10.213
REMARK  Name = 11259
REMARK  4 active torsions:
REMARK  status: ('A' for Active; 'I' for Inactive)
REMARK    1  A    between atoms: S_1  and  C_4
REMARK    2  A    between atoms: S_1  and  N_16
REMARK    3  A    between atoms: C_7  and  N_11
REMARK    4  A    between atoms: N_15  and  C_20
REMARK                            x       y       z     vdW  Elec       q    Type
REMARK                         _______ _______ _______ _____ _____    ______ ____
ROOT
ATOM      1  S   UNL     1      32.987 -13.046 -23.916  0.00  0.00    +0.077 S 
ATOM      2  O   UNL     1      34.053 -12.302 -24.558  0.00  0.00    -0.150 OA
ATOM      3  O   UNL     1      31.847 -13.508 -24.685  0.00  0.00    -0.150 OA
ENDROOT
BRANCH   1   4
ATOM      4  C   UNL     1      32.348 -12.062 -22.594  0.00  0.00    +0.126 C 
ATOM      5  C   UNL     1      32.033 -10.735 -22.830  0.00  0.00    +0.034 C 
ATOM      6  C   UNL     1      32.174 -12.638 -21.348  0.00  0.00    +0.020 C 
ATOM      7  C   UNL     1      31.529  -9.960 -21.786  0.00  0.00    +0.039 C 
ATOM      8  C   UNL     1      31.347 -10.523 -20.523  0.00  0.00    -0.009 C 
ATOM      9  C   UNL     1      31.669 -11.862 -20.304  0.00  0.00    -0.002 C 
ATOM     10  C   UNL     1      30.808  -9.715 -19.387  0.00  0.00    +0.032 C 
BRANCH   7  11
ATOM     11  N   UNL     1      31.208  -8.605 -22.026  0.00  0.00    -0.357 N 
ATOM     12  H   UNL     1      31.921  -7.926 -22.044  0.00  0.00    +0.142 HD
ATOM     13  H   UNL     1      30.271  -8.340 -22.175  0.00  0.00    +0.142 HD
ENDBRANCH   7  11
ENDBRANCH   1   4
BRANCH   1  16
ATOM     14  O   UNL     1      34.175 -15.760 -24.848  0.00  0.00    -0.251 OA
ATOM     15  N   UNL     1      34.642 -16.451 -22.692  0.00  0.00    -0.289 N 
ATOM     16  N   UNL     1      33.655 -14.361 -23.052  0.00  0.00    -0.169 N 
ATOM     17  C   UNL     1      34.166 -15.563 -23.637  0.00  0.00    +0.319 C 
ATOM     18  H   UNL     1      34.590 -16.200 -21.743  0.00  0.00    +0.151 HD
ATOM     19  H   UNL     1      33.690 -14.286 -22.071  0.00  0.00    +0.178 HD
BRANCH  15  20
ATOM     20  C   UNL     1      35.214 -17.734 -23.037  0.00  0.00    +0.073 C 
ATOM     21  C   UNL     1      36.392 -18.076 -22.119  0.00  0.00    +0.020 C 
ATOM     22  C   UNL     1      34.151 -18.837 -23.012  0.00  0.00    +0.020 C 
ATOM     23  C   UNL     1      35.944 -18.429 -20.701  0.00  0.00    +0.002 C 
ATOM     24  C   UNL     1      33.706 -19.187 -21.591  0.00  0.00    +0.002 C 
ATOM     25  C   UNL     1      34.895 -19.536 -20.700  0.00  0.00    +0.000 C 
ENDBRANCH  15  20
ENDBRANCH   1  16
TORSDOF 4
ENDMDL
MODEL 6
REMARK VINA RESULT:      -9.2      1.693      7.509
REMARK  Name = 11259
REMARK  4 active torsions:
REMARK  status: ('A' for Active; 'I' for Inactive)
REMARK    1  A    between atoms: S_1  and  C_4
REMARK    2  A    between atoms: S_1  and  N_16
REMARK    3  A    between atoms: C_7  and  N_11
REMARK    4  A    between atoms: N_15  and  C_20
REMARK                            x       y       z     vdW  Elec       q    Type
REMARK                         _______ _______ _______ _____ _____    ______ ____
ROOT
ATOM      1  S   UNL     1      32.883 -22.364 -18.153  0.00  0.00    +0.077 S 
ATOM      2  O   UNL     1      31.543 -22.227 -17.618  0.00  0.00    -0.150 OA
ATOM      3  O   UNL     1      33.224 -23.490 -19.001  0.00  0.00    -0.150 OA
ENDROOT
BRANCH   1   4
ATOM      4  C   UNL     1      34.017 -22.383 -16.797  0.00  0.00    +0.126 C 
ATOM      5  C   UNL     1      33.577 -22.799 -15.553  0.00  0.00    +0.034 C 
ATOM      6  C   UNL     1      35.325 -21.982 -17.006  0.00  0.00    +0.020 C 
ATOM      7  C   UNL     1      34.473 -22.814 -14.484  0.00  0.00    +0.039 C 
ATOM      8  C   UNL     1      35.795 -22.413 -14.675  0.00  0.00    -0.009 C 
ATOM      9  C   UNL     1      36.221 -21.997 -15.937  0.00  0.00    -0.002 C 
ATOM     10  C   UNL     1      36.775 -22.419 -13.547  0.00  0.00    +0.032 C 
BRANCH   7  11
ATOM     11  N   UNL     1      34.023 -23.238 -13.213  0.00  0.00    -0.357 N 
ATOM     12  H   UNL     1      33.147 -22.940 -12.876  0.00  0.00    +0.142 HD
ATOM     13  H   UNL     1      34.586 -23.831 -12.665  0.00  0.00    +0.142 HD
ENDBRANCH   7  11
ENDBRANCH   1   4
BRANCH   1  16
ATOM     14  O   UNL     1      35.032 -21.741 -20.307  0.00  0.00    -0.251 OA
ATOM     15  N   UNL     1      34.505 -19.492 -20.378  0.00  0.00    -0.289 N 
ATOM     16  N   UNL     1      33.333 -20.912 -18.935  0.00  0.00    -0.169 N 
ATOM     17  C   UNL     1      34.363 -20.787 -19.921  0.00  0.00    +0.319 C 
ATOM     18  H   UNL     1      33.919 -18.795 -20.004  0.00  0.00    +0.151 HD
ATOM     19  H   UNL     1      32.844 -20.094 -18.687  0.00  0.00    +0.178 HD
BRANCH  15  20
ATOM     20  C   UNL     1      35.476 -19.113 -21.381  0.00  0.00    +0.073 C 
ATOM     21  C   UNL     1      34.939 -19.373 -22.792  0.00  0.00    +0.020 C 
ATOM     22  C   UNL     1      35.905 -17.652 -21.209  0.00  0.00    +0.020 C 
ATOM     23  C   UNL     1      33.842 -18.387 -23.191  0.00  0.00    +0.002 C 
ATOM     24  C   UNL     1      34.805 -16.669 -21.610  0.00  0.00    +0.002 C 
ATOM     25  C   UNL     1      34.295 -16.940 -23.022  0.00  0.00    +0.000 C 
ENDBRANCH  15  20
ENDBRANCH   1  16
TORSDOF 4
ENDMDL
MODEL 7
REMARK VINA RESULT:      -8.8     10.507     15.217
REMARK  Name = 11259
REMARK  4 active torsions:
REMARK  status: ('A' for Active; 'I' for Inactive)
REMARK    1  A    between atoms: S_1  and  C_4
REMARK    2  A    between atoms: S_1  and  N_16
REMARK    3  A    between atoms: C_7  and  N_11
REMARK    4  A    between atoms: N_15  and  C_20
REMARK                            x       y       z     vdW  Elec       q    Type
REMARK                         _______ _______ _______ _____ _____    ______ ____
ROOT
ATOM      1  S   UNL     1      31.302 -10.510 -21.410  0.00  0.00    +0.077 S 
ATOM      2  O   UNL     1      31.622 -10.173 -20.037  0.00  0.00    -0.150 OA
ATOM      3  O   UNL     1      29.927 -10.742 -21.809  0.00  0.00    -0.150 OA
ENDROOT
BRANCH   1   4
ATOM      4  C   UNL     1      32.214 -11.959 -21.848  0.00  0.00    +0.126 C 
ATOM      5  C   UNL     1      32.612 -12.834 -20.853  0.00  0.00    +0.034 C 
ATOM      6  C   UNL     1      32.513 -12.191 -23.180  0.00  0.00    +0.020 C 
ATOM      7  C   UNL     1      33.331 -13.978 -21.200  0.00  0.00    +0.039 C 
ATOM      8  C   UNL     1      33.642 -14.228 -22.537  0.00  0.00    -0.009 C 
ATOM      9  C   UNL     1      33.233 -13.335 -23.527  0.00  0.00    -0.002 C 
ATOM     10  C   UNL     1      34.412 -15.445 -22.936  0.00  0.00    +0.032 C 
BRANCH   7  11
ATOM     11  N   UNL     1      33.738 -14.871 -20.184  0.00  0.00    -0.357 N 
ATOM     12  H   UNL     1      33.072 -15.252 -19.567  0.00  0.00    +0.142 HD
ATOM     13  H   UNL     1      34.688 -15.113 -20.093  0.00  0.00    +0.142 HD
ENDBRANCH   7  11
ENDBRANCH   1   4
BRANCH   1  16
ATOM     14  O   UNL     1      30.890  -7.445 -21.699  0.00  0.00    -0.251 OA
ATOM     15  N   UNL     1      32.422  -7.263 -23.420  0.00  0.00    -0.289 N 
ATOM     16  N   UNL     1      32.004  -9.353 -22.456  0.00  0.00    -0.169 N 
ATOM     17  C   UNL     1      31.701  -7.955 -22.466  0.00  0.00    +0.319 C 
ATOM     18  H   UNL     1      33.050  -7.764 -23.988  0.00  0.00    +0.151 HD
ATOM     19  H   UNL     1      32.671  -9.676 -23.104  0.00  0.00    +0.178 HD
BRANCH  15  20
ATOM     20  C   UNL     1      32.296  -5.837 -23.620  0.00  0.00    +0.073 C 
ATOM     21  C   UNL     1      33.665  -5.191 -23.862  0.00  0.00    +0.020 C 
ATOM     22  C   UNL     1      31.324  -5.524 -24.763  0.00  0.00    +0.020 C 
ATOM     23  C   UNL     1      34.240  -5.538 -25.235  0.00  0.00    +0.002 C 
ATOM     24  C   UNL     1      31.905  -5.872 -26.135  0.00  0.00    +0.002 C 
ATOM     25  C   UNL     1      33.261  -5.209 -26.356  0.00  0.00    +0.000 C 
ENDBRANCH  15  20
ENDBRANCH   1  16
TORSDOF 4
ENDMDL
MODEL 8
REMARK VINA RESULT:      -8.8      3.575      5.344
REMARK  Name = 11259
REMARK  4 active torsions:
REMARK  status: ('A' for Active; 'I' for Inactive)
REMARK    1  A    between atoms: S_1  and  C_4
REMARK    2  A    between atoms: S_1  and  N_16
REMARK    3  A    between atoms: C_7  and  N_11
REMARK    4  A    between atoms: N_15  and  C_20
REMARK                            x       y       z     vdW  Elec       q    Type
REMARK                         _______ _______ _______ _____ _____    ______ ____
ROOT
ATOM      1  S   UNL     1      34.956 -23.277 -15.156  0.00  0.00    +0.077 S 
ATOM      2  O   UNL     1      35.118 -22.315 -14.084  0.00  0.00    -0.150 OA
ATOM      3  O   UNL     1      35.911 -24.355 -15.327  0.00  0.00    -0.150 OA
ENDROOT
BRANCH   1   4
ATOM      4  C   UNL     1      34.903 -22.393 -16.686  0.00  0.00    +0.126 C 
ATOM      5  C   UNL     1      33.731 -22.385 -17.422  0.00  0.00    +0.034 C 
ATOM      6  C   UNL     1      36.035 -21.725 -17.119  0.00  0.00    +0.020 C 
ATOM      7  C   UNL     1      33.690 -21.687 -18.629  0.00  0.00    +0.039 C 
ATOM      8  C   UNL     1      34.822 -21.008 -19.081  0.00  0.00    -0.009 C 
ATOM      9  C   UNL     1      35.994 -21.027 -18.326  0.00  0.00    -0.002 C 
ATOM     10  C   UNL     1      34.806 -20.253 -20.370  0.00  0.00    +0.032 C 
BRANCH   7  11
ATOM     11  N   UNL     1      32.494 -21.679 -19.381  0.00  0.00    -0.357 N 
ATOM     12  H   UNL     1      32.363 -21.009 -20.090  0.00  0.00    +0.142 HD
ATOM     13  H   UNL     1      31.792 -22.344 -19.195  0.00  0.00    +0.142 HD
ENDBRANCH   7  11
ENDBRANCH   1   4
BRANCH   1  16
ATOM     14  O   UNL     1      32.307 -22.205 -13.940  0.00  0.00    -0.251 OA
ATOM     15  N   UNL     1      31.095 -24.060 -14.597  0.00  0.00    -0.289 N 
ATOM     16  N   UNL     1      33.375 -23.928 -15.099  0.00  0.00    -0.169 N 
ATOM     17  C   UNL     1      32.243 -23.301 -14.489  0.00  0.00    +0.319 C 
ATOM     18  H   UNL     1      31.147 -24.928 -15.058  0.00  0.00    +0.151 HD
ATOM     19  H   UNL     1      33.233 -24.806 -15.521  0.00  0.00    +0.178 HD
BRANCH  15  20
ATOM     20  C   UNL     1      29.819 -23.637 -14.063  0.00  0.00    +0.073 C 
ATOM     21  C   UNL     1      29.411 -22.273 -14.629  0.00  0.00    +0.020 C 
ATOM     22  C   UNL     1      28.737 -24.692 -14.320  0.00  0.00    +0.020 C 
ATOM     23  C   UNL     1      29.000 -22.349 -16.099  0.00  0.00    +0.002 C 
ATOM     24  C   UNL     1      28.329 -24.764 -15.792  0.00  0.00    +0.002 C 
ATOM     25  C   UNL     1      27.916 -23.396 -16.329  0.00  0.00    +0.000 C 
ENDBRANCH  15  20
ENDBRANCH   1  16
TORSDOF 4
ENDMDL
MODEL 9
REMARK VINA RESULT:      -8.7      1.708      7.603
REMARK  Name = 11259
REMARK  4 active torsions:
REMARK  status: ('A' for Active; 'I' for Inactive)
REMARK    1  A    between atoms: S_1  and  C_4
REMARK    2  A    between atoms: S_1  and  N_16
REMARK    3  A    between atoms: C_7  and  N_11
REMARK    4  A    between atoms: N_15  and  C_20
REMARK                            x       y       z     vdW  Elec       q    Type
REMARK                         _______ _______ _______ _____ _____    ______ ____
ROOT
ATOM      1  S   UNL     1      32.956 -22.716 -17.827  0.00  0.00    +0.077 S 
ATOM      2  O   UNL     1      31.633 -22.210 -17.520  0.00  0.00    -0.150 OA
ATOM      3  O   UNL     1      33.118 -24.001 -18.482  0.00  0.00    -0.150 OA
ENDROOT
BRANCH   1   4
ATOM      4  C   UNL     1      33.882 -22.788 -16.323  0.00  0.00    +0.126 C 
ATOM      5  C   UNL     1      33.332 -23.418 -15.220  0.00  0.00    +0.034 C 
ATOM      6  C   UNL     1      35.140 -22.212 -16.276  0.00  0.00    +0.020 C 
ATOM      7  C   UNL     1      34.063 -23.473 -14.034  0.00  0.00    +0.039 C 
ATOM      8  C   UNL     1      35.333 -22.899 -13.968  0.00  0.00    -0.009 C 
ATOM      9  C   UNL     1      35.871 -22.268 -15.090  0.00  0.00    -0.002 C 
ATOM     10  C   UNL     1      36.137 -22.944 -12.710  0.00  0.00    +0.032 C 
BRANCH   7  11
ATOM     11  N   UNL     1      33.502 -24.116 -12.907  0.00  0.00    -0.357 N 
ATOM     12  H   UNL     1      34.069 -24.338 -12.134  0.00  0.00    +0.142 HD
ATOM     13  H   UNL     1      32.543 -24.341 -12.896  0.00  0.00    +0.142 HD
ENDBRANCH   7  11
ENDBRANCH   1   4
BRANCH   1  16
ATOM     14  O   UNL     1      32.042 -20.398 -19.680  0.00  0.00    -0.251 OA
ATOM     15  N   UNL     1      34.204 -19.694 -20.094  0.00  0.00    -0.289 N 
ATOM     16  N   UNL     1      33.831 -21.529 -18.693  0.00  0.00    -0.169 N 
ATOM     17  C   UNL     1      33.253 -20.513 -19.519  0.00  0.00    +0.319 C 
ATOM     18  H   UNL     1      35.153 -19.868 -19.902  0.00  0.00    +0.151 HD
ATOM     19  H   UNL     1      34.812 -21.546 -18.617  0.00  0.00    +0.178 HD
BRANCH  15  20
ATOM     20  C   UNL     1      33.868 -18.590 -20.966  0.00  0.00    +0.073 C 
ATOM     21  C   UNL     1      34.938 -17.495 -20.907  0.00  0.00    +0.020 C 
ATOM     22  C   UNL     1      33.643 -19.071 -22.403  0.00  0.00    +0.020 C 
ATOM     23  C   UNL     1      36.237 -17.910 -21.598  0.00  0.00    +0.002 C 
ATOM     24  C   UNL     1      34.945 -19.484 -23.091  0.00  0.00    +0.002 C 
ATOM     25  C   UNL     1      35.991 -18.374 -23.030  0.00  0.00    +0.000 C 
ENDBRANCH  15  20
ENDBRANCH   1  16
TORSDOF 4
ENDMDL
