MODEL 1
REMARK VINA RESULT:     -10.5      0.000      0.000
REMARK  Name = 3038525
REMARK  3 active torsions:
REMARK  status: ('A' for Active; 'I' for Inactive)
REMARK    1  A    between atoms: C_6  and  C_14
REMARK    2  A    between atoms: C_10  and  S_20
REMARK    3  A    between atoms: S_20  and  C_23
REMARK                            x       y       z     vdW  Elec       q    Type
REMARK                         _______ _______ _______ _____ _____    ______ ____
ROOT
ATOM      1  O   UNL     1      31.925  -4.753 -21.542  0.00  0.00    -0.222 OA
ATOM      2  N   UNL     1      31.597  -8.643 -20.587  0.00  0.00    -0.185 N 
ATOM      3  N   UNL     1      31.458  -9.936 -20.137  0.00  0.00    -0.170 NA
ATOM      4  N   UNL     1      31.503  -6.340 -19.944  0.00  0.00    -0.178 NA
ATOM      5  C   UNL     1      31.919  -8.309 -21.908  0.00  0.00    +0.082 C 
ATOM      6  C   UNL     1      32.038  -7.009 -22.277  0.00  0.00    +0.100 C 
ATOM      7  C   UNL     1      32.109  -9.420 -22.832  0.00  0.00    +0.019 C 
ATOM      8  C   UNL     1      31.817  -5.936 -21.227  0.00  0.00    +0.153 C 
ATOM      9  C   UNL     1      31.982 -10.689 -22.432  0.00  0.00    +0.029 C 
ATOM     10  C   UNL     1      31.640 -10.871 -21.009  0.00  0.00    +0.128 C 
ATOM     11  C   UNL     1      31.413  -7.605 -19.702  0.00  0.00    +0.253 C 
ENDROOT
BRANCH   6  14
ATOM     12 CL   UNL     1      29.713  -6.872 -24.256  0.00  0.00    -0.082 Cl
ATOM     13 CL   UNL     1      34.980  -6.385 -22.823  0.00  0.00    -0.082 Cl
ATOM     14  C   UNL     1      32.371  -6.600 -23.637  0.00  0.00    +0.033 C 
ATOM     15  C   UNL     1      31.370  -6.511 -24.607  0.00  0.00    +0.059 C 
ATOM     16  C   UNL     1      33.692  -6.296 -23.975  0.00  0.00    +0.059 C 
ATOM     17  C   UNL     1      31.688  -6.121 -25.907  0.00  0.00    +0.011 C 
ATOM     18  C   UNL     1      34.010  -5.906 -25.276  0.00  0.00    +0.011 C 
ATOM     19  C   UNL     1      33.007  -5.818 -26.242  0.00  0.00    +0.002 C 
ENDBRANCH   6  14
BRANCH  10  20
ATOM     20  S   UNL     1      31.478 -12.540 -20.494  0.00  0.00    -0.064 S 
BRANCH  20  23
ATOM     21  F   UNL     1      33.745 -14.474 -20.059  0.00  0.00    -0.204 F 
ATOM     22  F   UNL     1      34.760 -15.226 -24.613  0.00  0.00    -0.204 F 
ATOM     23  C   UNL     1      32.471 -13.353 -21.728  0.00  0.00    +0.058 C 
ATOM     24  C   UNL     1      33.491 -14.228 -21.352  0.00  0.00    +0.148 C 
ATOM     25  C   UNL     1      32.226 -13.112 -23.082  0.00  0.00    +0.011 C 
ATOM     26  C   UNL     1      34.264 -14.860 -22.327  0.00  0.00    +0.060 C 
ATOM     27  C   UNL     1      32.998 -13.745 -24.056  0.00  0.00    +0.030 C 
ATOM     28  C   UNL     1      34.018 -14.619 -23.678  0.00  0.00    +0.142 C 
ENDBRANCH  20  23
ENDBRANCH  10  20
TORSDOF 3
ENDMDL
MODEL 2
REMARK VINA RESULT:     -10.1     12.667     16.519
REMARK  Name = 3038525
REMARK  3 active torsions:
REMARK  status: ('A' for Active; 'I' for Inactive)
REMARK    1  A    between atoms: C_6  and  C_14
REMARK    2  A    between atoms: C_10  and  S_20
REMARK    3  A    between atoms: S_20  and  C_23
REMARK                            x       y       z     vdW  Elec       q    Type
REMARK                         _______ _______ _______ _____ _____    ______ ____
ROOT
ATOM      1  O   UNL     1      34.735 -24.656 -11.341  0.00  0.00    -0.222 OA
ATOM      2  N   UNL     1      33.059 -23.218 -14.700  0.00  0.00    -0.185 N 
ATOM      3  N   UNL     1      32.371 -22.722 -15.782  0.00  0.00    -0.170 NA
ATOM      4  N   UNL     1      32.859 -23.889 -12.410  0.00  0.00    -0.178 NA
ATOM      5  C   UNL     1      34.425 -23.525 -14.718  0.00  0.00    +0.082 C 
ATOM      6  C   UNL     1      35.034 -24.011 -13.608  0.00  0.00    +0.100 C 
ATOM      7  C   UNL     1      35.127 -23.292 -15.974  0.00  0.00    +0.019 C 
ATOM      8  C   UNL     1      34.201 -24.213 -12.355  0.00  0.00    +0.153 C 
ATOM      9  C   UNL     1      34.493 -22.810 -17.048  0.00  0.00    +0.029 C 
ATOM     10  C   UNL     1      33.055 -22.539 -16.863  0.00  0.00    +0.128 C 
ATOM     11  C   UNL     1      32.382 -23.432 -13.520  0.00  0.00    +0.253 C 
ENDROOT
BRANCH   6  14
ATOM     12 CL   UNL     1      35.872 -26.528 -15.125  0.00  0.00    -0.082 Cl
ATOM     13 CL   UNL     1      36.830 -22.119 -12.015  0.00  0.00    -0.082 Cl
ATOM     14  C   UNL     1      36.453 -24.348 -13.567  0.00  0.00    +0.033 C 
ATOM     15  C   UNL     1      36.924 -25.482 -14.232  0.00  0.00    +0.059 C 
ATOM     16  C   UNL     1      37.346 -23.538 -12.861  0.00  0.00    +0.059 C 
ATOM     17  C   UNL     1      38.279 -25.805 -14.192  0.00  0.00    +0.011 C 
ATOM     18  C   UNL     1      38.702 -23.861 -12.821  0.00  0.00    +0.011 C 
ATOM     19  C   UNL     1      39.169 -24.995 -13.487  0.00  0.00    +0.002 C 
ENDBRANCH   6  14
BRANCH  10  20
ATOM     20  S   UNL     1      32.231 -21.910 -18.279  0.00  0.00    -0.064 S 
BRANCH  20  23
ATOM     21  F   UNL     1      32.075 -19.900 -20.516  0.00  0.00    -0.204 F 
ATOM     22  F   UNL     1      36.717 -19.101 -20.916  0.00  0.00    -0.204 F 
ATOM     23  C   UNL     1      33.577 -21.059 -19.078  0.00  0.00    +0.058 C 
ATOM     24  C   UNL     1      33.327 -20.151 -20.108  0.00  0.00    +0.148 C 
ATOM     25  C   UNL     1      34.890 -21.305 -18.671  0.00  0.00    +0.011 C 
ATOM     26  C   UNL     1      34.388 -19.490 -20.729  0.00  0.00    +0.060 C 
ATOM     27  C   UNL     1      35.949 -20.643 -19.291  0.00  0.00    +0.030 C 
ATOM     28  C   UNL     1      35.698 -19.736 -20.321  0.00  0.00    +0.142 C 
ENDBRANCH  20  23
ENDBRANCH  10  20
TORSDOF 3
ENDMDL
MODEL 3
REMARK VINA RESULT:      -9.7      1.898      3.059
REMARK  Name = 3038525
REMARK  3 active torsions:
REMARK  status: ('A' for Active; 'I' for Inactive)
REMARK    1  A    between atoms: C_6  and  C_14
REMARK    2  A    between atoms: C_10  and  S_20
REMARK    3  A    between atoms: S_20  and  C_23
REMARK                            x       y       z     vdW  Elec       q    Type
REMARK                         _______ _______ _______ _____ _____    ______ ____
ROOT
ATOM      1  O   UNL     1      34.027  -5.811 -24.171  0.00  0.00    -0.222 OA
ATOM      2  N   UNL     1      33.163  -9.489 -22.798  0.00  0.00    -0.185 N 
ATOM      3  N   UNL     1      32.975 -10.791 -22.395  0.00  0.00    -0.170 NA
ATOM      4  N   UNL     1      34.572  -8.035 -24.075  0.00  0.00    -0.178 NA
ATOM      5  C   UNL     1      32.319  -8.432 -22.439  0.00  0.00    +0.082 C 
ATOM      6  C   UNL     1      32.572  -7.174 -22.878  0.00  0.00    +0.100 C 
ATOM      7  C   UNL     1      31.185  -8.766 -21.587  0.00  0.00    +0.019 C 
ATOM      8  C   UNL     1      33.784  -6.944 -23.761  0.00  0.00    +0.153 C 
ATOM      9  C   UNL     1      30.968 -10.019 -21.174  0.00  0.00    +0.029 C 
ATOM     10  C   UNL     1      31.950 -11.016 -21.641  0.00  0.00    +0.128 C 
ATOM     11  C   UNL     1      34.240  -9.190 -23.603  0.00  0.00    +0.253 C 
ENDROOT
BRANCH   6  14
ATOM     12 CL   UNL     1      32.804  -6.126 -20.016  0.00  0.00    -0.082 Cl
ATOM     13 CL   UNL     1      30.776  -6.102 -25.106  0.00  0.00    -0.082 Cl
ATOM     14  C   UNL     1      31.729  -6.032 -22.537  0.00  0.00    +0.033 C 
ATOM     15  C   UNL     1      31.770  -5.489 -21.250  0.00  0.00    +0.059 C 
ATOM     16  C   UNL     1      30.876  -5.479 -23.495  0.00  0.00    +0.059 C 
ATOM     17  C   UNL     1      30.964  -4.400 -20.924  0.00  0.00    +0.011 C 
ATOM     18  C   UNL     1      30.069  -4.390 -23.168  0.00  0.00    +0.011 C 
ATOM     19  C   UNL     1      30.114  -3.850 -21.883  0.00  0.00    +0.002 C 
ENDBRANCH   6  14
BRANCH  10  20
ATOM     20  S   UNL     1      31.656 -12.657 -21.095  0.00  0.00    -0.064 S 
BRANCH  20  23
ATOM     21  F   UNL     1      33.909 -14.580 -20.553  0.00  0.00    -0.204 F 
ATOM     22  F   UNL     1      34.857 -15.662 -25.055  0.00  0.00    -0.204 F 
ATOM     23  C   UNL     1      32.624 -13.566 -22.281  0.00  0.00    +0.058 C 
ATOM     24  C   UNL     1      33.640 -14.423 -21.857  0.00  0.00    +0.148 C 
ATOM     25  C   UNL     1      32.364 -13.418 -23.646  0.00  0.00    +0.011 C 
ATOM     26  C   UNL     1      34.395 -15.131 -22.794  0.00  0.00    +0.060 C 
ATOM     27  C   UNL     1      33.117 -14.126 -24.582  0.00  0.00    +0.030 C 
ATOM     28  C   UNL     1      34.133 -14.982 -24.156  0.00  0.00    +0.142 C 
ENDBRANCH  20  23
ENDBRANCH  10  20
TORSDOF 3
ENDMDL
MODEL 4
REMARK VINA RESULT:      -9.7      2.395      2.943
REMARK  Name = 3038525
REMARK  3 active torsions:
REMARK  status: ('A' for Active; 'I' for Inactive)
REMARK    1  A    between atoms: C_6  and  C_14
REMARK    2  A    between atoms: C_10  and  S_20
REMARK    3  A    between atoms: S_20  and  C_23
REMARK                            x       y       z     vdW  Elec       q    Type
REMARK                         _______ _______ _______ _____ _____    ______ ____
ROOT
ATOM      1  O   UNL     1      34.687  -5.194 -24.586  0.00  0.00    -0.222 OA
ATOM      2  N   UNL     1      32.913  -8.488 -23.118  0.00  0.00    -0.185 N 
ATOM      3  N   UNL     1      32.421  -9.678 -22.635  0.00  0.00    -0.170 NA
ATOM      4  N   UNL     1      34.850  -7.408 -24.017  0.00  0.00    -0.178 NA
ATOM      5  C   UNL     1      32.157  -7.313 -23.211  0.00  0.00    +0.082 C 
ATOM      6  C   UNL     1      32.715  -6.177 -23.699  0.00  0.00    +0.100 C 
ATOM      7  C   UNL     1      30.774  -7.392 -22.761  0.00  0.00    +0.019 C 
ATOM      8  C   UNL     1      34.166  -6.213 -24.138  0.00  0.00    +0.153 C 
ATOM      9  C   UNL     1      30.259  -8.531 -22.285  0.00  0.00    +0.029 C 
ATOM     10  C   UNL     1      31.186  -9.677 -22.253  0.00  0.00    +0.128 C 
ATOM     11  C   UNL     1      34.222  -8.430 -23.539  0.00  0.00    +0.253 C 
ENDROOT
BRANCH   6  14
ATOM     12 CL   UNL     1      31.958  -5.319 -26.533  0.00  0.00    -0.082 Cl
ATOM     13 CL   UNL     1      32.103  -4.708 -21.089  0.00  0.00    -0.082 Cl
ATOM     14  C   UNL     1      31.978  -4.923 -23.820  0.00  0.00    +0.033 C 
ATOM     15  C   UNL     1      31.593  -4.454 -25.078  0.00  0.00    +0.059 C 
ATOM     16  C   UNL     1      31.656  -4.186 -22.677  0.00  0.00    +0.059 C 
ATOM     17  C   UNL     1      30.890  -3.256 -25.194  0.00  0.00    +0.011 C 
ATOM     18  C   UNL     1      30.954  -2.987 -22.793  0.00  0.00    +0.011 C 
ATOM     19  C   UNL     1      30.570  -2.522 -24.052  0.00  0.00    +0.002 C 
ENDBRANCH   6  14
BRANCH  10  20
ATOM     20  S   UNL     1      30.502 -11.167 -21.629  0.00  0.00    -0.064 S 
BRANCH  20  23
ATOM     21  F   UNL     1      32.052 -12.900 -19.715  0.00  0.00    -0.204 F 
ATOM     22  F   UNL     1      34.867 -14.942 -22.917  0.00  0.00    -0.204 F 
ATOM     23  C   UNL     1      31.817 -12.306 -22.008  0.00  0.00    +0.058 C 
ATOM     24  C   UNL     1      32.434 -13.038 -20.993  0.00  0.00    +0.148 C 
ATOM     25  C   UNL     1      32.233 -12.467 -23.332  0.00  0.00    +0.011 C 
ATOM     26  C   UNL     1      33.464 -13.928 -21.300  0.00  0.00    +0.060 C 
ATOM     27  C   UNL     1      33.262 -13.357 -23.638  0.00  0.00    +0.030 C 
ATOM     28  C   UNL     1      33.878 -14.087 -22.622  0.00  0.00    +0.142 C 
ENDBRANCH  20  23
ENDBRANCH  10  20
TORSDOF 3
ENDMDL
MODEL 5
REMARK VINA RESULT:      -9.7      2.405      3.090
REMARK  Name = 3038525
REMARK  3 active torsions:
REMARK  status: ('A' for Active; 'I' for Inactive)
REMARK    1  A    between atoms: C_6  and  C_14
REMARK    2  A    between atoms: C_10  and  S_20
REMARK    3  A    between atoms: S_20  and  C_23
REMARK                            x       y       z     vdW  Elec       q    Type
REMARK                         _______ _______ _______ _____ _____    ______ ____
ROOT
ATOM      1  O   UNL     1      34.693  -5.186 -24.622  0.00  0.00    -0.222 OA
ATOM      2  N   UNL     1      32.922  -8.473 -23.134  0.00  0.00    -0.185 N 
ATOM      3  N   UNL     1      32.431  -9.660 -22.642  0.00  0.00    -0.170 NA
ATOM      4  N   UNL     1      34.862  -7.392 -24.028  0.00  0.00    -0.178 NA
ATOM      5  C   UNL     1      32.161  -7.302 -23.247  0.00  0.00    +0.082 C 
ATOM      6  C   UNL     1      32.718  -6.169 -23.742  0.00  0.00    +0.100 C 
ATOM      7  C   UNL     1      30.774  -7.384 -22.809  0.00  0.00    +0.019 C 
ATOM      8  C   UNL     1      34.174  -6.202 -24.168  0.00  0.00    +0.153 C 
ATOM      9  C   UNL     1      30.261  -8.519 -22.325  0.00  0.00    +0.029 C 
ATOM     10  C   UNL     1      31.194  -9.661 -22.272  0.00  0.00    +0.128 C 
ATOM     11  C   UNL     1      34.235  -8.412 -23.544  0.00  0.00    +0.253 C 
ENDROOT
BRANCH   6  14
ATOM     12 CL   UNL     1      32.072  -4.677 -21.154  0.00  0.00    -0.082 Cl
ATOM     13 CL   UNL     1      31.988  -5.342 -26.593  0.00  0.00    -0.082 Cl
ATOM     14  C   UNL     1      31.976  -4.920 -23.883  0.00  0.00    +0.033 C 
ATOM     15  C   UNL     1      31.637  -4.174 -22.752  0.00  0.00    +0.059 C 
ATOM     16  C   UNL     1      31.601  -4.467 -25.151  0.00  0.00    +0.059 C 
ATOM     17  C   UNL     1      30.928  -2.981 -22.887  0.00  0.00    +0.011 C 
ATOM     18  C   UNL     1      30.891  -3.274 -25.285  0.00  0.00    +0.011 C 
ATOM     19  C   UNL     1      30.555  -2.531 -24.153  0.00  0.00    +0.002 C 
ENDBRANCH   6  14
BRANCH  10  20
ATOM     20  S   UNL     1      30.510 -11.147 -21.637  0.00  0.00    -0.064 S 
BRANCH  20  23
ATOM     21  F   UNL     1      32.050 -12.890 -19.724  0.00  0.00    -0.204 F 
ATOM     22  F   UNL     1      34.869 -14.930 -22.924  0.00  0.00    -0.204 F 
ATOM     23  C   UNL     1      31.824 -12.289 -22.016  0.00  0.00    +0.058 C 
ATOM     24  C   UNL     1      32.436 -13.026 -21.002  0.00  0.00    +0.148 C 
ATOM     25  C   UNL     1      32.244 -12.446 -23.339  0.00  0.00    +0.011 C 
ATOM     26  C   UNL     1      33.464 -13.918 -21.308  0.00  0.00    +0.060 C 
ATOM     27  C   UNL     1      33.271 -13.339 -23.645  0.00  0.00    +0.030 C 
ATOM     28  C   UNL     1      33.882 -14.074 -22.629  0.00  0.00    +0.142 C 
ENDBRANCH  20  23
ENDBRANCH  10  20
TORSDOF 3
ENDMDL
MODEL 6
REMARK VINA RESULT:      -9.0     15.308     17.408
REMARK  Name = 3038525
REMARK  3 active torsions:
REMARK  status: ('A' for Active; 'I' for Inactive)
REMARK    1  A    between atoms: C_6  and  C_14
REMARK    2  A    between atoms: C_10  and  S_20
REMARK    3  A    between atoms: S_20  and  C_23
REMARK                            x       y       z     vdW  Elec       q    Type
REMARK                         _______ _______ _______ _____ _____    ______ ____
ROOT
ATOM      1  O   UNL     1      36.810 -22.768 -16.498  0.00  0.00    -0.222 OA
ATOM      2  N   UNL     1      33.098 -22.980 -14.971  0.00  0.00    -0.185 N 
ATOM      3  N   UNL     1      31.788 -22.979 -14.552  0.00  0.00    -0.170 NA
ATOM      4  N   UNL     1      34.593 -22.217 -16.678  0.00  0.00    -0.178 NA
ATOM      5  C   UNL     1      34.137 -23.617 -14.281  0.00  0.00    +0.082 C 
ATOM      6  C   UNL     1      35.405 -23.573 -14.760  0.00  0.00    +0.100 C 
ATOM      7  C   UNL     1      33.773 -24.309 -13.052  0.00  0.00    +0.019 C 
ATOM      8  C   UNL     1      35.667 -22.821 -16.052  0.00  0.00    +0.153 C 
ATOM      9  C   UNL     1      32.510 -24.331 -12.612  0.00  0.00    +0.029 C 
ATOM     10  C   UNL     1      31.536 -23.612 -13.454  0.00  0.00    +0.128 C 
ATOM     11  C   UNL     1      33.426 -22.321 -16.135  0.00  0.00    +0.253 C 
ENDROOT
BRANCH   6  14
ATOM     12 CL   UNL     1      36.054 -26.429 -15.637  0.00  0.00    -0.082 Cl
ATOM     13 CL   UNL     1      36.841 -21.914 -12.633  0.00  0.00    -0.082 Cl
ATOM     14  C   UNL     1      36.528 -24.218 -14.086  0.00  0.00    +0.033 C 
ATOM     15  C   UNL     1      36.893 -25.523 -14.423  0.00  0.00    +0.059 C 
ATOM     16  C   UNL     1      37.241 -23.532 -13.099  0.00  0.00    +0.059 C 
ATOM     17  C   UNL     1      37.965 -26.139 -13.779  0.00  0.00    +0.011 C 
ATOM     18  C   UNL     1      38.312 -24.148 -12.454  0.00  0.00    +0.011 C 
ATOM     19  C   UNL     1      38.675 -25.452 -12.795  0.00  0.00    +0.002 C 
ENDBRANCH   6  14
BRANCH  10  20
ATOM     20  S   UNL     1      29.883 -23.645 -12.867  0.00  0.00    -0.064 S 
BRANCH  20  23
ATOM     21  F   UNL     1      29.306 -25.642 -15.046  0.00  0.00    -0.204 F 
ATOM     22  F   UNL     1      26.944 -22.720 -17.914  0.00  0.00    -0.204 F 
ATOM     23  C   UNL     1      28.999 -23.375 -14.390  0.00  0.00    +0.058 C 
ATOM     24  C   UNL     1      28.819 -24.418 -15.298  0.00  0.00    +0.148 C 
ATOM     25  C   UNL     1      28.483 -22.108 -14.675  0.00  0.00    +0.011 C 
ATOM     26  C   UNL     1      28.125 -24.197 -16.489  0.00  0.00    +0.060 C 
ATOM     27  C   UNL     1      27.789 -21.888 -15.864  0.00  0.00    +0.030 C 
ATOM     28  C   UNL     1      27.611 -22.933 -16.772  0.00  0.00    +0.142 C 
ENDBRANCH  20  23
ENDBRANCH  10  20
TORSDOF 3
ENDMDL
MODEL 7
REMARK VINA RESULT:      -9.0     15.310     17.439
REMARK  Name = 3038525
REMARK  3 active torsions:
REMARK  status: ('A' for Active; 'I' for Inactive)
REMARK    1  A    between atoms: C_6  and  C_14
REMARK    2  A    between atoms: C_10  and  S_20
REMARK    3  A    between atoms: S_20  and  C_23
REMARK                            x       y       z     vdW  Elec       q    Type
REMARK                         _______ _______ _______ _____ _____    ______ ____
ROOT
ATOM      1  O   UNL     1      36.812 -22.778 -16.499  0.00  0.00    -0.222 OA
ATOM      2  N   UNL     1      33.099 -22.981 -14.972  0.00  0.00    -0.185 N 
ATOM      3  N   UNL     1      31.789 -22.977 -14.554  0.00  0.00    -0.170 NA
ATOM      4  N   UNL     1      34.595 -22.226 -16.682  0.00  0.00    -0.178 NA
ATOM      5  C   UNL     1      34.137 -23.616 -14.280  0.00  0.00    +0.082 C 
ATOM      6  C   UNL     1      35.406 -23.575 -14.758  0.00  0.00    +0.100 C 
ATOM      7  C   UNL     1      33.772 -24.303 -13.048  0.00  0.00    +0.019 C 
ATOM      8  C   UNL     1      35.668 -22.828 -16.053  0.00  0.00    +0.153 C 
ATOM      9  C   UNL     1      32.510 -24.322 -12.608  0.00  0.00    +0.029 C 
ATOM     10  C   UNL     1      31.536 -23.606 -13.453  0.00  0.00    +0.128 C 
ATOM     11  C   UNL     1      33.428 -22.327 -16.139  0.00  0.00    +0.253 C 
ENDROOT
BRANCH   6  14
ATOM     12 CL   UNL     1      36.836 -21.910 -12.631  0.00  0.00    -0.082 Cl
ATOM     13 CL   UNL     1      36.058 -26.431 -15.628  0.00  0.00    -0.082 Cl
ATOM     14  C   UNL     1      36.528 -24.217 -14.081  0.00  0.00    +0.033 C 
ATOM     15  C   UNL     1      37.239 -23.529 -13.096  0.00  0.00    +0.059 C 
ATOM     16  C   UNL     1      36.895 -25.522 -14.417  0.00  0.00    +0.059 C 
ATOM     17  C   UNL     1      38.311 -24.142 -12.449  0.00  0.00    +0.011 C 
ATOM     18  C   UNL     1      37.969 -26.135 -13.771  0.00  0.00    +0.011 C 
ATOM     19  C   UNL     1      38.676 -25.445 -12.786  0.00  0.00    +0.002 C 
ENDBRANCH   6  14
BRANCH  10  20
ATOM     20  S   UNL     1      29.883 -23.635 -12.867  0.00  0.00    -0.064 S 
BRANCH  20  23
ATOM     21  F   UNL     1      29.309 -25.640 -15.040  0.00  0.00    -0.204 F 
ATOM     22  F   UNL     1      26.946 -22.729 -17.919  0.00  0.00    -0.204 F 
ATOM     23  C   UNL     1      28.999 -23.371 -14.391  0.00  0.00    +0.058 C 
ATOM     24  C   UNL     1      28.821 -24.417 -15.296  0.00  0.00    +0.148 C 
ATOM     25  C   UNL     1      28.482 -22.106 -14.680  0.00  0.00    +0.011 C 
ATOM     26  C   UNL     1      28.128 -24.201 -16.488  0.00  0.00    +0.060 C 
ATOM     27  C   UNL     1      27.789 -21.890 -15.871  0.00  0.00    +0.030 C 
ATOM     28  C   UNL     1      27.612 -22.937 -16.775  0.00  0.00    +0.142 C 
ENDBRANCH  20  23
ENDBRANCH  10  20
TORSDOF 3
ENDMDL
MODEL 8
REMARK VINA RESULT:      -9.0      8.964     11.681
REMARK  Name = 3038525
REMARK  3 active torsions:
REMARK  status: ('A' for Active; 'I' for Inactive)
REMARK    1  A    between atoms: C_6  and  C_14
REMARK    2  A    between atoms: C_10  and  S_20
REMARK    3  A    between atoms: S_20  and  C_23
REMARK                            x       y       z     vdW  Elec       q    Type
REMARK                         _______ _______ _______ _____ _____    ______ ____
ROOT
ATOM      1  O   UNL     1      37.159 -17.913 -21.866  0.00  0.00    -0.222 OA
ATOM      2  N   UNL     1      34.759 -20.269 -19.667  0.00  0.00    -0.185 N 
ATOM      3  N   UNL     1      34.046 -21.118 -18.851  0.00  0.00    -0.170 NA
ATOM      4  N   UNL     1      36.950 -19.459 -20.189  0.00  0.00    -0.178 NA
ATOM      5  C   UNL     1      34.176 -19.466 -20.654  0.00  0.00    +0.082 C 
ATOM      6  C   UNL     1      34.947 -18.653 -21.419  0.00  0.00    +0.100 C 
ATOM      7  C   UNL     1      32.729 -19.558 -20.797  0.00  0.00    +0.019 C 
ATOM      8  C   UNL     1      36.445 -18.640 -21.180  0.00  0.00    +0.153 C 
ATOM      9  C   UNL     1      32.002 -20.370 -20.023  0.00  0.00    +0.029 C 
ATOM     10  C   UNL     1      32.768 -21.150 -19.032  0.00  0.00    +0.128 C 
ATOM     11  C   UNL     1      36.125 -20.193 -19.518  0.00  0.00    +0.253 C 
ENDROOT
BRANCH   6  14
ATOM     12 CL   UNL     1      34.415 -19.975 -24.123  0.00  0.00    -0.082 Cl
ATOM     13 CL   UNL     1      34.456 -15.736 -20.652  0.00  0.00    -0.082 Cl
ATOM     14  C   UNL     1      34.397 -17.794 -22.462  0.00  0.00    +0.033 C 
ATOM     15  C   UNL     1      34.124 -18.315 -23.729  0.00  0.00    +0.059 C 
ATOM     16  C   UNL     1      34.142 -16.445 -22.198  0.00  0.00    +0.059 C 
ATOM     17  C   UNL     1      33.600 -17.494 -24.726  0.00  0.00    +0.011 C 
ATOM     18  C   UNL     1      33.618 -15.624 -23.196  0.00  0.00    +0.011 C 
ATOM     19  C   UNL     1      33.346 -16.148 -24.460  0.00  0.00    +0.002 C 
ENDBRANCH   6  14
BRANCH  10  20
ATOM     20  S   UNL     1      31.805 -22.214 -18.022  0.00  0.00    -0.064 S 
BRANCH  20  23
ATOM     21  F   UNL     1      31.140 -22.890 -15.164  0.00  0.00    -0.204 F 
ATOM     22  F   UNL     1      35.580 -23.095 -13.557  0.00  0.00    -0.204 F 
ATOM     23  C   UNL     1      32.936 -22.481 -16.672  0.00  0.00    +0.058 C 
ATOM     24  C   UNL     1      32.456 -22.789 -15.398  0.00  0.00    +0.148 C 
ATOM     25  C   UNL     1      34.312 -22.380 -16.891  0.00  0.00    +0.011 C 
ATOM     26  C   UNL     1      33.349 -22.996 -14.346  0.00  0.00    +0.060 C 
ATOM     27  C   UNL     1      35.204 -22.588 -15.840  0.00  0.00    +0.030 C 
ATOM     28  C   UNL     1      34.723 -22.895 -14.567  0.00  0.00    +0.142 C 
ENDBRANCH  20  23
ENDBRANCH  10  20
TORSDOF 3
ENDMDL
MODEL 9
REMARK VINA RESULT:      -8.9      1.554      2.251
REMARK  Name = 3038525
REMARK  3 active torsions:
REMARK  status: ('A' for Active; 'I' for Inactive)
REMARK    1  A    between atoms: C_6  and  C_14
REMARK    2  A    between atoms: C_10  and  S_20
REMARK    3  A    between atoms: S_20  and  C_23
REMARK                            x       y       z     vdW  Elec       q    Type
REMARK                         _______ _______ _______ _____ _____    ______ ____
ROOT
ATOM      1  O   UNL     1      32.697  -4.588 -19.855  0.00  0.00    -0.222 OA
ATOM      2  N   UNL     1      31.335  -8.331 -20.397  0.00  0.00    -0.185 N 
ATOM      3  N   UNL     1      30.867  -9.624 -20.450  0.00  0.00    -0.170 NA
ATOM      4  N   UNL     1      31.993  -6.561 -18.926  0.00  0.00    -0.178 NA
ATOM      5  C   UNL     1      31.601  -7.551 -21.529  0.00  0.00    +0.082 C 
ATOM      6  C   UNL     1      32.060  -6.282 -21.394  0.00  0.00    +0.100 C 
ATOM      7  C   UNL     1      31.357  -8.178 -22.822  0.00  0.00    +0.019 C 
ATOM      8  C   UNL     1      32.277  -5.735 -19.996  0.00  0.00    +0.153 C 
ATOM      9  C   UNL     1      30.902  -9.431 -22.915  0.00  0.00    +0.029 C 
ATOM     10  C   UNL     1      30.673 -10.116 -21.629  0.00  0.00    +0.128 C 
ATOM     11  C   UNL     1      31.560  -7.754 -19.167  0.00  0.00    +0.253 C 
ENDROOT
BRANCH   6  14
ATOM     12 CL   UNL     1      34.715  -6.788 -22.821  0.00  0.00    -0.082 Cl
ATOM     13 CL   UNL     1      29.952  -4.181 -22.088  0.00  0.00    -0.082 Cl
ATOM     14  C   UNL     1      32.355  -5.422 -22.536  0.00  0.00    +0.033 C 
ATOM     15  C   UNL     1      33.547  -5.583 -23.246  0.00  0.00    +0.059 C 
ATOM     16  C   UNL     1      31.446  -4.434 -22.923  0.00  0.00    +0.059 C 
ATOM     17  C   UNL     1      33.829  -4.762 -24.336  0.00  0.00    +0.011 C 
ATOM     18  C   UNL     1      31.729  -3.612 -24.013  0.00  0.00    +0.011 C 
ATOM     19  C   UNL     1      32.920  -3.776 -24.720  0.00  0.00    +0.002 C 
ENDBRANCH   6  14
BRANCH  10  20
ATOM     20  S   UNL     1      30.078 -11.762 -21.761  0.00  0.00    -0.064 S 
BRANCH  20  23
ATOM     21  F   UNL     1      31.883 -13.252 -19.866  0.00  0.00    -0.204 F 
ATOM     22  F   UNL     1      35.104 -14.597 -23.053  0.00  0.00    -0.204 F 
ATOM     23  C   UNL     1      31.593 -12.618 -22.142  0.00  0.00    +0.058 C 
ATOM     24  C   UNL     1      32.313 -13.263 -21.136  0.00  0.00    +0.148 C 
ATOM     25  C   UNL     1      32.062 -12.643 -23.457  0.00  0.00    +0.011 C 
ATOM     26  C   UNL     1      33.499 -13.931 -21.444  0.00  0.00    +0.060 C 
ATOM     27  C   UNL     1      33.246 -13.311 -23.765  0.00  0.00    +0.030 C 
ATOM     28  C   UNL     1      33.965 -13.955 -22.758  0.00  0.00    +0.142 C 
ENDBRANCH  20  23
ENDBRANCH  10  20
TORSDOF 3
ENDMDL
