MODEL 1
REMARK VINA RESULT:     -11.8      0.000      0.000
REMARK  Name = 9889366
REMARK  10 active torsions:
REMARK  status: ('A' for Active; 'I' for Inactive)
REMARK    1  A    between atoms: C_1  and  C_21
REMARK    2  A    between atoms: C_4  and  C_7
REMARK    3  A    between atoms: C_8  and  C_13
REMARK    4  A    between atoms: C_13  and  C_14
REMARK    5  A    between atoms: C_14  and  N_15
REMARK    6  A    between atoms: N_15  and  S_17
REMARK    7  A    between atoms: C_21  and  C_23
REMARK    8  A    between atoms: C_23  and  N_24
REMARK    9  A    between atoms: N_24  and  S_26
REMARK   10  A    between atoms: S_26  and  C_29
REMARK                            x       y       z     vdW  Elec       q    Type
REMARK                         _______ _______ _______ _____ _____    ______ ____
ROOT
ATOM      1  C   UNL     1      34.843 -19.392 -21.179  0.00  0.00    -0.021 C 
ATOM      2  C   UNL     1      35.992 -19.734 -20.466  0.00  0.00    -0.004 C 
ATOM      3  C   UNL     1      33.595 -19.847 -20.752  0.00  0.00    -0.004 C 
ATOM      4  C   UNL     1      34.646 -20.988 -18.899  0.00  0.00    -0.000 C 
ATOM      5  C   UNL     1      35.893 -20.532 -19.326  0.00  0.00    -0.000 C 
ATOM      6  C   UNL     1      33.497 -20.645 -19.612  0.00  0.00    -0.000 C 
ENDROOT
BRANCH   4   7
ATOM      7  C   UNL     1      34.544 -21.817 -17.718  0.00  0.00    -0.000 C 
ATOM      8  C   UNL     1      34.348 -23.418 -15.442  0.00  0.00    -0.021 C 
ATOM      9  C   UNL     1      33.351 -22.483 -17.434  0.00  0.00    -0.000 C 
ATOM     10  C   UNL     1      35.638 -21.951 -16.864  0.00  0.00    -0.000 C 
ATOM     11  C   UNL     1      33.254 -23.283 -16.296  0.00  0.00    -0.004 C 
ATOM     12  C   UNL     1      35.541 -22.752 -15.726  0.00  0.00    -0.004 C 
BRANCH   8  13
ATOM     13  C   UNL     1      34.243 -24.274 -14.225  0.00  0.00    +0.045 C 
BRANCH  13  14
ATOM     14  C   UNL     1      33.988 -23.484 -12.936  0.00  0.00    +0.096 C 
BRANCH  14  15
ATOM     15  N   UNL     1      34.112 -24.374 -11.760  0.00  0.00    -0.183 NA
ATOM     16  H   UNL     1      33.322 -24.170 -11.147  0.00  0.00    +0.148 HD
BRANCH  15  17
ATOM     17  S   UNL     1      35.520 -24.291 -10.804  0.00  0.00    +0.043 S 
ATOM     18  O   UNL     1      36.420 -25.372 -11.155  0.00  0.00    -0.157 OA
ATOM     19  O   UNL     1      35.123 -24.074  -9.427  0.00  0.00    -0.157 OA
ATOM     20  C   UNL     1      36.231 -22.774 -11.398  0.00  0.00    +0.196 C 
ENDBRANCH  15  17
ENDBRANCH  14  15
ENDBRANCH  13  14
ENDBRANCH   8  13
ENDBRANCH   4   7
BRANCH   1  21
ATOM     21  C   UNL     1      34.950 -18.522 -22.421  0.00  0.00    +0.040 C 
ATOM     22  C   UNL     1      34.322 -19.219 -23.633  0.00  0.00    +0.006 C 
BRANCH  21  23
ATOM     23  C   UNL     1      34.324 -17.133 -22.229  0.00  0.00    +0.095 C 
BRANCH  23  24
ATOM     24  N   UNL     1      34.848 -16.193 -23.238  0.00  0.00    -0.183 NA
ATOM     25  H   UNL     1      35.215 -15.387 -22.731  0.00  0.00    +0.148 HD
BRANCH  24  26
ATOM     26  S   UNL     1      33.795 -15.592 -24.441  0.00  0.00    +0.039 S 
ATOM     27  O   UNL     1      32.778 -16.583 -24.740  0.00  0.00    -0.158 OA
ATOM     28  O   UNL     1      34.597 -15.014 -25.503  0.00  0.00    -0.158 OA
BRANCH  26  29
ATOM     29  C   UNL     1      33.023 -14.257 -23.565  0.00  0.00    +0.146 C 
ATOM     30  C   UNL     1      32.744 -13.098 -24.510  0.00  0.00    +0.027 C 
ATOM     31  C   UNL     1      33.890 -13.823 -22.393  0.00  0.00    +0.027 C 
ENDBRANCH  26  29
ENDBRANCH  24  26
ENDBRANCH  23  24
ENDBRANCH  21  23
ENDBRANCH   1  21
TORSDOF 10
ENDMDL
MODEL 2
REMARK VINA RESULT:     -11.8      2.844     11.264
REMARK  Name = 9889366
REMARK  10 active torsions:
REMARK  status: ('A' for Active; 'I' for Inactive)
REMARK    1  A    between atoms: C_1  and  C_21
REMARK    2  A    between atoms: C_4  and  C_7
REMARK    3  A    between atoms: C_8  and  C_13
REMARK    4  A    between atoms: C_13  and  C_14
REMARK    5  A    between atoms: C_14  and  N_15
REMARK    6  A    between atoms: N_15  and  S_17
REMARK    7  A    between atoms: C_21  and  C_23
REMARK    8  A    between atoms: C_23  and  N_24
REMARK    9  A    between atoms: N_24  and  S_26
REMARK   10  A    between atoms: S_26  and  C_29
REMARK                            x       y       z     vdW  Elec       q    Type
REMARK                         _______ _______ _______ _____ _____    ______ ____
ROOT
ATOM      1  C   UNL     1      33.832 -21.740 -18.470  0.00  0.00    -0.021 C 
ATOM      2  C   UNL     1      32.685 -21.177 -19.029  0.00  0.00    -0.004 C 
ATOM      3  C   UNL     1      35.093 -21.316 -18.890  0.00  0.00    -0.004 C 
ATOM      4  C   UNL     1      34.059 -19.767 -20.429  0.00  0.00    -0.000 C 
ATOM      5  C   UNL     1      32.799 -20.191 -20.008  0.00  0.00    -0.000 C 
ATOM      6  C   UNL     1      35.207 -20.330 -19.869  0.00  0.00    -0.000 C 
ENDROOT
BRANCH   4   7
ATOM      7  C   UNL     1      34.177 -18.745 -21.446  0.00  0.00    -0.000 C 
ATOM      8  C   UNL     1      34.406 -16.774 -23.407  0.00  0.00    -0.021 C 
ATOM      9  C   UNL     1      34.760 -17.516 -21.135  0.00  0.00    -0.000 C 
ATOM     10  C   UNL     1      33.709 -18.988 -22.737  0.00  0.00    -0.000 C 
ATOM     11  C   UNL     1      34.875 -16.531 -22.116  0.00  0.00    -0.004 C 
ATOM     12  C   UNL     1      33.823 -18.003 -23.718  0.00  0.00    -0.004 C 
BRANCH   8  13
ATOM     13  C   UNL     1      34.530 -15.721 -24.455  0.00  0.00    +0.045 C 
BRANCH  13  14
ATOM     14  C   UNL     1      33.207 -15.018 -24.781  0.00  0.00    +0.096 C 
BRANCH  14  15
ATOM     15  N   UNL     1      32.628 -14.425 -23.556  0.00  0.00    -0.183 NA
ATOM     16  H   UNL     1      31.618 -14.377 -23.695  0.00  0.00    +0.148 HD
BRANCH  15  17
ATOM     17  S   UNL     1      33.139 -12.875 -23.066  0.00  0.00    +0.043 S 
ATOM     18  O   UNL     1      33.298 -12.017 -24.224  0.00  0.00    -0.157 OA
ATOM     19  O   UNL     1      34.214 -13.032 -22.106  0.00  0.00    -0.157 OA
ATOM     20  C   UNL     1      31.704 -12.324 -22.171  0.00  0.00    +0.196 C 
ENDBRANCH  15  17
ENDBRANCH  14  15
ENDBRANCH  13  14
ENDBRANCH   8  13
ENDBRANCH   4   7
BRANCH   1  21
ATOM     21  C   UNL     1      33.708 -22.816 -17.403  0.00  0.00    +0.040 C 
ATOM     22  C   UNL     1      34.759 -22.620 -16.305  0.00  0.00    +0.006 C 
BRANCH  21  23
ATOM     23  C   UNL     1      32.304 -22.878 -16.782  0.00  0.00    +0.095 C 
BRANCH  23  24
ATOM     24  N   UNL     1      32.353 -22.469 -15.366  0.00  0.00    -0.183 NA
ATOM     25  H   UNL     1      33.334 -22.492 -15.084  0.00  0.00    +0.148 HD
BRANCH  24  26
ATOM     26  S   UNL     1      31.479 -23.372 -14.209  0.00  0.00    +0.039 S 
ATOM     27  O   UNL     1      31.083 -22.507 -13.113  0.00  0.00    -0.158 OA
ATOM     28  O   UNL     1      32.198 -24.606 -13.953  0.00  0.00    -0.158 OA
BRANCH  26  29
ATOM     29  C   UNL     1      30.027 -23.782 -15.140  0.00  0.00    +0.146 C 
ATOM     30  C   UNL     1      29.044 -22.621 -15.123  0.00  0.00    +0.027 C 
ATOM     31  C   UNL     1      29.393 -25.054 -14.596  0.00  0.00    +0.027 C 
ENDBRANCH  26  29
ENDBRANCH  24  26
ENDBRANCH  23  24
ENDBRANCH  21  23
ENDBRANCH   1  21
TORSDOF 10
ENDMDL
MODEL 3
REMARK VINA RESULT:     -11.4      5.226     12.564
REMARK  Name = 9889366
REMARK  10 active torsions:
REMARK  status: ('A' for Active; 'I' for Inactive)
REMARK    1  A    between atoms: C_1  and  C_21
REMARK    2  A    between atoms: C_4  and  C_7
REMARK    3  A    between atoms: C_8  and  C_13
REMARK    4  A    between atoms: C_13  and  C_14
REMARK    5  A    between atoms: C_14  and  N_15
REMARK    6  A    between atoms: N_15  and  S_17
REMARK    7  A    between atoms: C_21  and  C_23
REMARK    8  A    between atoms: C_23  and  N_24
REMARK    9  A    between atoms: N_24  and  S_26
REMARK   10  A    between atoms: S_26  and  C_29
REMARK                            x       y       z     vdW  Elec       q    Type
REMARK                         _______ _______ _______ _____ _____    ______ ____
ROOT
ATOM      1  C   UNL     1      34.775 -16.888 -22.215  0.00  0.00    -0.021 C 
ATOM      2  C   UNL     1      34.447 -16.262 -23.417  0.00  0.00    -0.004 C 
ATOM      3  C   UNL     1      34.491 -16.261 -21.002  0.00  0.00    -0.004 C 
ATOM      4  C   UNL     1      33.553 -14.381 -22.194  0.00  0.00    -0.000 C 
ATOM      5  C   UNL     1      33.836 -15.009 -23.406  0.00  0.00    -0.000 C 
ATOM      6  C   UNL     1      33.880 -15.008 -20.991  0.00  0.00    -0.000 C 
ENDROOT
BRANCH   4   7
ATOM      7  C   UNL     1      32.920 -13.080 -22.183  0.00  0.00    -0.000 C 
ATOM      8  C   UNL     1      31.702 -10.570 -22.160  0.00  0.00    -0.021 C 
ATOM      9  C   UNL     1      32.036 -12.743 -21.157  0.00  0.00    -0.000 C 
ATOM     10  C   UNL     1      33.195 -12.162 -23.196  0.00  0.00    -0.000 C 
ATOM     11  C   UNL     1      31.427 -11.488 -21.146  0.00  0.00    -0.004 C 
ATOM     12  C   UNL     1      32.586 -10.907 -23.185  0.00  0.00    -0.004 C 
BRANCH   8  13
ATOM     13  C   UNL     1      31.051  -9.229 -22.147  0.00  0.00    +0.045 C 
BRANCH  13  14
ATOM     14  C   UNL     1      31.716  -8.212 -23.081  0.00  0.00    +0.096 C 
BRANCH  14  15
ATOM     15  N   UNL     1      31.307  -6.838 -22.715  0.00  0.00    -0.183 NA
ATOM     16  H   UNL     1      31.051  -6.361 -23.581  0.00  0.00    +0.148 HD
BRANCH  15  17
ATOM     17  S   UNL     1      32.416  -5.833 -21.901  0.00  0.00    +0.043 S 
ATOM     18  O   UNL     1      32.097  -4.441 -22.147  0.00  0.00    -0.157 OA
ATOM     19  O   UNL     1      33.753  -6.341 -22.142  0.00  0.00    -0.157 OA
ATOM     20  C   UNL     1      32.007  -6.197 -20.209  0.00  0.00    +0.196 C 
ENDBRANCH  15  17
ENDBRANCH  14  15
ENDBRANCH  13  14
ENDBRANCH   8  13
ENDBRANCH   4   7
BRANCH   1  21
ATOM     21  C   UNL     1      35.441 -18.254 -22.227  0.00  0.00    +0.040 C 
ATOM     22  C   UNL     1      36.740 -18.237 -21.413  0.00  0.00    +0.006 C 
BRANCH  21  23
ATOM     23  C   UNL     1      34.516 -19.371 -21.718  0.00  0.00    +0.095 C 
BRANCH  23  24
ATOM     24  N   UNL     1      34.595 -19.470 -20.249  0.00  0.00    -0.183 NA
ATOM     25  H   UNL     1      35.302 -18.800 -19.943  0.00  0.00    +0.148 HD
BRANCH  24  26
ATOM     26  S   UNL     1      34.988 -20.971 -19.536  0.00  0.00    +0.039 S 
ATOM     27  O   UNL     1      35.635 -20.750 -18.256  0.00  0.00    -0.158 OA
ATOM     28  O   UNL     1      35.613 -21.807 -20.544  0.00  0.00    -0.158 OA
BRANCH  26  29
ATOM     29  C   UNL     1      33.368 -21.623 -19.229  0.00  0.00    +0.146 C 
ATOM     30  C   UNL     1      32.323 -20.527 -19.366  0.00  0.00    +0.027 C 
ATOM     31  C   UNL     1      33.314 -22.274 -17.854  0.00  0.00    +0.027 C 
ENDBRANCH  26  29
ENDBRANCH  24  26
ENDBRANCH  23  24
ENDBRANCH  21  23
ENDBRANCH   1  21
TORSDOF 10
ENDMDL
MODEL 4
REMARK VINA RESULT:     -11.3      4.020      6.071
REMARK  Name = 9889366
REMARK  10 active torsions:
REMARK  status: ('A' for Active; 'I' for Inactive)
REMARK    1  A    between atoms: C_1  and  C_21
REMARK    2  A    between atoms: C_4  and  C_7
REMARK    3  A    between atoms: C_8  and  C_13
REMARK    4  A    between atoms: C_13  and  C_14
REMARK    5  A    between atoms: C_14  and  N_15
REMARK    6  A    between atoms: N_15  and  S_17
REMARK    7  A    between atoms: C_21  and  C_23
REMARK    8  A    between atoms: C_23  and  N_24
REMARK    9  A    between atoms: N_24  and  S_26
REMARK   10  A    between atoms: S_26  and  C_29
REMARK                            x       y       z     vdW  Elec       q    Type
REMARK                         _______ _______ _______ _____ _____    ______ ____
ROOT
ATOM      1  C   UNL     1      33.776 -13.923 -23.098  0.00  0.00    -0.021 C 
ATOM      2  C   UNL     1      33.819 -14.042 -21.709  0.00  0.00    -0.004 C 
ATOM      3  C   UNL     1      34.048 -15.029 -23.902  0.00  0.00    -0.004 C 
ATOM      4  C   UNL     1      34.411 -16.374 -21.929  0.00  0.00    -0.000 C 
ATOM      5  C   UNL     1      34.137 -15.268 -21.125  0.00  0.00    -0.000 C 
ATOM      6  C   UNL     1      34.367 -16.255 -23.318  0.00  0.00    -0.000 C 
ENDROOT
BRANCH   4   7
ATOM      7  C   UNL     1      34.743 -17.645 -21.322  0.00  0.00    -0.000 C 
ATOM      8  C   UNL     1      35.381 -20.098 -20.155  0.00  0.00    -0.021 C 
ATOM      9  C   UNL     1      33.730 -18.550 -21.001  0.00  0.00    -0.000 C 
ATOM     10  C   UNL     1      36.074 -17.968 -21.060  0.00  0.00    -0.000 C 
ATOM     11  C   UNL     1      34.049 -19.775 -20.417  0.00  0.00    -0.004 C 
ATOM     12  C   UNL     1      36.394 -19.193 -20.476  0.00  0.00    -0.004 C 
BRANCH   8  13
ATOM     13  C   UNL     1      35.722 -21.409 -19.531  0.00  0.00    +0.045 C 
BRANCH  13  14
ATOM     14  C   UNL     1      35.975 -21.326 -18.022  0.00  0.00    +0.096 C 
BRANCH  14  15
ATOM     15  N   UNL     1      35.029 -22.202 -17.296  0.00  0.00    -0.183 NA
ATOM     16  H   UNL     1      34.138 -21.707 -17.252  0.00  0.00    +0.148 HD
BRANCH  15  17
ATOM     17  S   UNL     1      35.407 -22.694 -15.709  0.00  0.00    +0.043 S 
ATOM     18  O   UNL     1      35.414 -24.141 -15.628  0.00  0.00    -0.157 OA
ATOM     19  O   UNL     1      34.616 -21.903 -14.787  0.00  0.00    -0.157 OA
ATOM     20  C   UNL     1      37.089 -22.131 -15.583  0.00  0.00    +0.196 C 
ENDBRANCH  15  17
ENDBRANCH  14  15
ENDBRANCH  13  14
ENDBRANCH   8  13
ENDBRANCH   4   7
BRANCH   1  21
ATOM     21  C   UNL     1      33.429 -12.587 -23.735  0.00  0.00    +0.040 C 
ATOM     22  C   UNL     1      32.689 -12.789 -25.062  0.00  0.00    +0.006 C 
BRANCH  21  23
ATOM     23  C   UNL     1      32.606 -11.681 -22.806  0.00  0.00    +0.095 C 
BRANCH  23  24
ATOM     24  N   UNL     1      32.743 -10.271 -23.215  0.00  0.00    -0.183 NA
ATOM     25  H   UNL     1      33.619  -9.930 -22.819  0.00  0.00    +0.148 HD
BRANCH  24  26
ATOM     26  S   UNL     1      31.527  -9.156 -22.775  0.00  0.00    +0.039 S 
ATOM     27  O   UNL     1      30.486  -9.838 -22.027  0.00  0.00    -0.158 OA
ATOM     28  O   UNL     1      31.195  -8.356 -23.940  0.00  0.00    -0.158 OA
BRANCH  26  29
ATOM     29  C   UNL     1      32.423  -8.118 -21.650  0.00  0.00    +0.146 C 
ATOM     30  C   UNL     1      31.518  -7.665 -20.515  0.00  0.00    +0.027 C 
ATOM     31  C   UNL     1      33.022  -6.931 -22.391  0.00  0.00    +0.027 C 
ENDBRANCH  26  29
ENDBRANCH  24  26
ENDBRANCH  23  24
ENDBRANCH  21  23
ENDBRANCH   1  21
TORSDOF 10
ENDMDL
MODEL 5
REMARK VINA RESULT:     -11.3      1.791     11.567
REMARK  Name = 9889366
REMARK  10 active torsions:
REMARK  status: ('A' for Active; 'I' for Inactive)
REMARK    1  A    between atoms: C_1  and  C_21
REMARK    2  A    between atoms: C_4  and  C_7
REMARK    3  A    between atoms: C_8  and  C_13
REMARK    4  A    between atoms: C_13  and  C_14
REMARK    5  A    between atoms: C_14  and  N_15
REMARK    6  A    between atoms: N_15  and  S_17
REMARK    7  A    between atoms: C_21  and  C_23
REMARK    8  A    between atoms: C_23  and  N_24
REMARK    9  A    between atoms: N_24  and  S_26
REMARK   10  A    between atoms: S_26  and  C_29
REMARK                            x       y       z     vdW  Elec       q    Type
REMARK                         _______ _______ _______ _____ _____    ______ ____
ROOT
ATOM      1  C   UNL     1      34.478 -23.041 -15.709  0.00  0.00    -0.021 C 
ATOM      2  C   UNL     1      33.320 -23.026 -16.486  0.00  0.00    -0.004 C 
ATOM      3  C   UNL     1      35.595 -22.308 -16.107  0.00  0.00    -0.004 C 
ATOM      4  C   UNL     1      34.397 -21.546 -18.062  0.00  0.00    -0.000 C 
ATOM      5  C   UNL     1      33.280 -22.279 -17.663  0.00  0.00    -0.000 C 
ATOM      6  C   UNL     1      35.555 -21.560 -17.284  0.00  0.00    -0.000 C 
ENDROOT
BRANCH   4   7
ATOM      7  C   UNL     1      34.356 -20.772 -19.284  0.00  0.00    -0.000 C 
ATOM      8  C   UNL     1      34.278 -19.281 -21.641  0.00  0.00    -0.021 C 
ATOM      9  C   UNL     1      35.544 -20.368 -19.894  0.00  0.00    -0.000 C 
ATOM     10  C   UNL     1      33.129 -20.430 -19.852  0.00  0.00    -0.000 C 
ATOM     11  C   UNL     1      35.504 -19.623 -21.072  0.00  0.00    -0.004 C 
ATOM     12  C   UNL     1      33.089 -19.685 -21.030  0.00  0.00    -0.004 C 
BRANCH   8  13
ATOM     13  C   UNL     1      34.236 -18.485 -22.901  0.00  0.00    +0.045 C 
BRANCH  13  14
ATOM     14  C   UNL     1      34.928 -17.122 -22.791  0.00  0.00    +0.096 C 
BRANCH  14  15
ATOM     15  N   UNL     1      33.946 -16.033 -22.989  0.00  0.00    -0.183 NA
ATOM     16  H   UNL     1      33.072 -16.338 -22.559  0.00  0.00    +0.148 HD
BRANCH  15  17
ATOM     17  S   UNL     1      33.574 -15.531 -24.574  0.00  0.00    +0.043 S 
ATOM     18  O   UNL     1      32.520 -16.362 -25.122  0.00  0.00    -0.157 OA
ATOM     19  O   UNL     1      34.818 -15.340 -25.294  0.00  0.00    -0.157 OA
ATOM     20  C   UNL     1      32.891 -13.921 -24.257  0.00  0.00    +0.196 C 
ENDBRANCH  15  17
ENDBRANCH  14  15
ENDBRANCH  13  14
ENDBRANCH   8  13
ENDBRANCH   4   7
BRANCH   1  21
ATOM     21  C   UNL     1      34.521 -23.856 -14.426  0.00  0.00    +0.040 C 
ATOM     22  C   UNL     1      33.179 -23.788 -13.689  0.00  0.00    +0.006 C 
BRANCH  21  23
ATOM     23  C   UNL     1      34.917 -25.321 -14.666  0.00  0.00    +0.095 C 
BRANCH  23  24
ATOM     24  N   UNL     1      36.358 -25.419 -14.960  0.00  0.00    -0.183 NA
ATOM     25  H   UNL     1      36.453 -26.003 -15.792  0.00  0.00    +0.148 HD
BRANCH  24  26
ATOM     26  S   UNL     1      37.407 -26.062 -13.776  0.00  0.00    +0.039 S 
ATOM     27  O   UNL     1      38.248 -27.084 -14.371  0.00  0.00    -0.158 OA
ATOM     28  O   UNL     1      36.632 -26.347 -12.583  0.00  0.00    -0.158 OA
BRANCH  26  29
ATOM     29  C   UNL     1      38.421 -24.648 -13.431  0.00  0.00    +0.146 C 
ATOM     30  C   UNL     1      37.642 -23.625 -12.618  0.00  0.00    +0.027 C 
ATOM     31  C   UNL     1      38.945 -24.046 -14.727  0.00  0.00    +0.027 C 
ENDBRANCH  26  29
ENDBRANCH  24  26
ENDBRANCH  23  24
ENDBRANCH  21  23
ENDBRANCH   1  21
TORSDOF 10
ENDMDL
MODEL 6
REMARK VINA RESULT:     -11.3      2.278     11.375
REMARK  Name = 9889366
REMARK  10 active torsions:
REMARK  status: ('A' for Active; 'I' for Inactive)
REMARK    1  A    between atoms: C_1  and  C_21
REMARK    2  A    between atoms: C_4  and  C_7
REMARK    3  A    between atoms: C_8  and  C_13
REMARK    4  A    between atoms: C_13  and  C_14
REMARK    5  A    between atoms: C_14  and  N_15
REMARK    6  A    between atoms: N_15  and  S_17
REMARK    7  A    between atoms: C_21  and  C_23
REMARK    8  A    between atoms: C_23  and  N_24
REMARK    9  A    between atoms: N_24  and  S_26
REMARK   10  A    between atoms: S_26  and  C_29
REMARK                            x       y       z     vdW  Elec       q    Type
REMARK                         _______ _______ _______ _____ _____    ______ ____
ROOT
ATOM      1  C   UNL     1      34.946 -21.468 -18.246  0.00  0.00    -0.021 C 
ATOM      2  C   UNL     1      36.049 -20.792 -18.768  0.00  0.00    -0.004 C 
ATOM      3  C   UNL     1      33.679 -21.259 -18.789  0.00  0.00    -0.004 C 
ATOM      4  C   UNL     1      34.616 -19.695 -20.374  0.00  0.00    -0.000 C 
ATOM      5  C   UNL     1      35.883 -19.906 -19.831  0.00  0.00    -0.000 C 
ATOM      6  C   UNL     1      33.513 -20.373 -19.852  0.00  0.00    -0.000 C 
ENDROOT
BRANCH   4   7
ATOM      7  C   UNL     1      34.444 -18.775 -21.476  0.00  0.00    -0.000 C 
ATOM      8  C   UNL     1      34.116 -16.999 -23.603  0.00  0.00    -0.021 C 
ATOM      9  C   UNL     1      34.887 -17.456 -21.359  0.00  0.00    -0.000 C 
ATOM     10  C   UNL     1      33.838 -19.204 -22.657  0.00  0.00    -0.000 C 
ATOM     11  C   UNL     1      34.722 -16.569 -22.423  0.00  0.00    -0.004 C 
ATOM     12  C   UNL     1      33.674 -18.317 -23.720  0.00  0.00    -0.004 C 
BRANCH   8  13
ATOM     13  C   UNL     1      33.941 -16.050 -24.740  0.00  0.00    +0.045 C 
BRANCH  13  14
ATOM     14  C   UNL     1      34.045 -14.576 -24.333  0.00  0.00    +0.096 C 
BRANCH  14  15
ATOM     15  N   UNL     1      32.789 -14.136 -23.686  0.00  0.00    -0.183 NA
ATOM     16  H   UNL     1      32.151 -13.855 -24.431  0.00  0.00    +0.148 HD
BRANCH  15  17
ATOM     17  S   UNL     1      32.842 -12.854 -22.564  0.00  0.00    +0.043 S 
ATOM     18  O   UNL     1      33.867 -13.108 -21.571  0.00  0.00    -0.157 OA
ATOM     19  O   UNL     1      31.483 -12.543 -22.164  0.00  0.00    -0.157 OA
ATOM     20  C   UNL     1      33.406 -11.529 -23.606  0.00  0.00    +0.196 C 
ENDBRANCH  15  17
ENDBRANCH  14  15
ENDBRANCH  13  14
ENDBRANCH   8  13
ENDBRANCH   4   7
BRANCH   1  21
ATOM     21  C   UNL     1      35.127 -22.434 -17.086  0.00  0.00    +0.040 C 
ATOM     22  C   UNL     1      36.332 -22.038 -16.226  0.00  0.00    +0.006 C 
BRANCH  21  23
ATOM     23  C   UNL     1      33.870 -22.552 -16.209  0.00  0.00    +0.095 C 
BRANCH  23  24
ATOM     24  N   UNL     1      34.212 -22.318 -14.794  0.00  0.00    -0.183 NA
ATOM     25  H   UNL     1      35.112 -21.837 -14.781  0.00  0.00    +0.148 HD
BRANCH  24  26
ATOM     26  S   UNL     1      34.343 -23.654 -13.738  0.00  0.00    +0.039 S 
ATOM     27  O   UNL     1      34.785 -24.821 -14.480  0.00  0.00    -0.158 OA
ATOM     28  O   UNL     1      33.146 -23.710 -12.920  0.00  0.00    -0.158 OA
BRANCH  26  29
ATOM     29  C   UNL     1      35.679 -23.124 -12.700  0.00  0.00    +0.146 C 
ATOM     30  C   UNL     1      36.948 -23.891 -13.039  0.00  0.00    +0.027 C 
ATOM     31  C   UNL     1      35.305 -23.288 -11.234  0.00  0.00    +0.027 C 
ENDBRANCH  26  29
ENDBRANCH  24  26
ENDBRANCH  23  24
ENDBRANCH  21  23
ENDBRANCH   1  21
TORSDOF 10
ENDMDL
MODEL 7
REMARK VINA RESULT:     -11.2      2.384     11.076
REMARK  Name = 9889366
REMARK  10 active torsions:
REMARK  status: ('A' for Active; 'I' for Inactive)
REMARK    1  A    between atoms: C_1  and  C_21
REMARK    2  A    between atoms: C_4  and  C_7
REMARK    3  A    between atoms: C_8  and  C_13
REMARK    4  A    between atoms: C_13  and  C_14
REMARK    5  A    between atoms: C_14  and  N_15
REMARK    6  A    between atoms: N_15  and  S_17
REMARK    7  A    between atoms: C_21  and  C_23
REMARK    8  A    between atoms: C_23  and  N_24
REMARK    9  A    between atoms: N_24  and  S_26
REMARK   10  A    between atoms: S_26  and  C_29
REMARK                            x       y       z     vdW  Elec       q    Type
REMARK                         _______ _______ _______ _____ _____    ______ ____
ROOT
ATOM      1  C   UNL     1      34.527 -23.269 -15.527  0.00  0.00    -0.021 C 
ATOM      2  C   UNL     1      35.630 -22.532 -15.958  0.00  0.00    -0.004 C 
ATOM      3  C   UNL     1      33.344 -23.250 -16.265  0.00  0.00    -0.004 C 
ATOM      4  C   UNL     1      34.366 -21.755 -17.864  0.00  0.00    -0.000 C 
ATOM      5  C   UNL     1      35.549 -21.775 -17.126  0.00  0.00    -0.000 C 
ATOM      6  C   UNL     1      33.263 -22.493 -17.433  0.00  0.00    -0.000 C 
ENDROOT
BRANCH   4   7
ATOM      7  C   UNL     1      34.282 -20.968 -19.075  0.00  0.00    -0.000 C 
ATOM      8  C   UNL     1      34.118 -19.449 -21.409  0.00  0.00    -0.021 C 
ATOM      9  C   UNL     1      33.034 -20.622 -19.597  0.00  0.00    -0.000 C 
ATOM     10  C   UNL     1      35.446 -20.554 -19.721  0.00  0.00    -0.000 C 
ATOM     11  C   UNL     1      32.954 -19.863 -20.764  0.00  0.00    -0.004 C 
ATOM     12  C   UNL     1      35.365 -19.794 -20.888  0.00  0.00    -0.004 C 
BRANCH   8  13
ATOM     13  C   UNL     1      34.031 -18.636 -22.657  0.00  0.00    +0.045 C 
BRANCH  13  14
ATOM     14  C   UNL     1      34.937 -17.400 -22.652  0.00  0.00    +0.096 C 
BRANCH  14  15
ATOM     15  N   UNL     1      34.135 -16.178 -22.889  0.00  0.00    -0.183 NA
ATOM     16  H   UNL     1      33.287 -16.265 -22.328  0.00  0.00    +0.148 HD
BRANCH  15  17
ATOM     17  S   UNL     1      33.649 -15.804 -24.478  0.00  0.00    +0.043 S 
ATOM     18  O   UNL     1      32.614 -16.723 -24.908  0.00  0.00    -0.157 OA
ATOM     19  O   UNL     1      34.838 -15.597 -25.282  0.00  0.00    -0.157 OA
ATOM     20  C   UNL     1      32.896 -14.213 -24.225  0.00  0.00    +0.196 C 
ENDBRANCH  15  17
ENDBRANCH  14  15
ENDBRANCH  13  14
ENDBRANCH   8  13
ENDBRANCH   4   7
BRANCH   1  21
ATOM     21  C   UNL     1      34.616 -24.094 -14.253  0.00  0.00    +0.040 C 
ATOM     22  C   UNL     1      36.045 -24.097 -13.701  0.00  0.00    +0.006 C 
BRANCH  21  23
ATOM     23  C   UNL     1      33.634 -23.622 -13.170  0.00  0.00    +0.095 C 
BRANCH  23  24
ATOM     24  N   UNL     1      32.386 -24.405 -13.236  0.00  0.00    -0.183 NA
ATOM     25  H   UNL     1      32.438 -24.978 -14.079  0.00  0.00    +0.148 HD
BRANCH  24  26
ATOM     26  S   UNL     1      30.889 -23.583 -13.282  0.00  0.00    +0.039 S 
ATOM     27  O   UNL     1      31.110 -22.186 -13.610  0.00  0.00    -0.158 OA
ATOM     28  O   UNL     1      30.128 -23.953 -12.103  0.00  0.00    -0.158 OA
BRANCH  26  29
ATOM     29  C   UNL     1      30.127 -24.363 -14.680  0.00  0.00    +0.146 C 
ATOM     30  C   UNL     1      29.785 -23.328 -15.740  0.00  0.00    +0.027 C 
ATOM     31  C   UNL     1      28.894 -25.141 -14.243  0.00  0.00    +0.027 C 
ENDBRANCH  26  29
ENDBRANCH  24  26
ENDBRANCH  23  24
ENDBRANCH  21  23
ENDBRANCH   1  21
TORSDOF 10
ENDMDL
MODEL 8
REMARK VINA RESULT:     -11.0      5.810      9.448
REMARK  Name = 9889366
REMARK  10 active torsions:
REMARK  status: ('A' for Active; 'I' for Inactive)
REMARK    1  A    between atoms: C_1  and  C_21
REMARK    2  A    between atoms: C_4  and  C_7
REMARK    3  A    between atoms: C_8  and  C_13
REMARK    4  A    between atoms: C_13  and  C_14
REMARK    5  A    between atoms: C_14  and  N_15
REMARK    6  A    between atoms: N_15  and  S_17
REMARK    7  A    between atoms: C_21  and  C_23
REMARK    8  A    between atoms: C_23  and  N_24
REMARK    9  A    between atoms: N_24  and  S_26
REMARK   10  A    between atoms: S_26  and  C_29
REMARK                            x       y       z     vdW  Elec       q    Type
REMARK                         _______ _______ _______ _____ _____    ______ ____
ROOT
ATOM      1  C   UNL     1      31.849 -10.677 -22.244  0.00  0.00    -0.021 C 
ATOM      2  C   UNL     1      32.754 -11.049 -23.237  0.00  0.00    -0.004 C 
ATOM      3  C   UNL     1      31.547 -11.560 -21.208  0.00  0.00    -0.004 C 
ATOM      4  C   UNL     1      33.053 -13.191 -22.161  0.00  0.00    -0.000 C 
ATOM      5  C   UNL     1      33.355 -12.306 -23.196  0.00  0.00    -0.000 C 
ATOM      6  C   UNL     1      32.149 -12.818 -21.166  0.00  0.00    -0.000 C 
ENDROOT
BRANCH   4   7
ATOM      7  C   UNL     1      33.677 -14.496 -22.120  0.00  0.00    -0.000 C 
ATOM      8  C   UNL     1      34.877 -17.013 -22.038  0.00  0.00    -0.021 C 
ATOM      9  C   UNL     1      33.938 -15.105 -20.892  0.00  0.00    -0.000 C 
ATOM     10  C   UNL     1      34.016 -15.146 -23.306  0.00  0.00    -0.000 C 
ATOM     11  C   UNL     1      34.538 -16.364 -20.852  0.00  0.00    -0.004 C 
ATOM     12  C   UNL     1      34.616 -16.404 -23.266  0.00  0.00    -0.004 C 
BRANCH   8  13
ATOM     13  C   UNL     1      35.518 -18.359 -21.995  0.00  0.00    +0.045 C 
BRANCH  13  14
ATOM     14  C   UNL     1      34.654 -19.432 -21.322  0.00  0.00    +0.096 C 
BRANCH  14  15
ATOM     15  N   UNL     1      35.240 -19.814 -20.018  0.00  0.00    -0.183 NA
ATOM     16  H   UNL     1      36.247 -19.902 -20.157  0.00  0.00    +0.148 HD
BRANCH  15  17
ATOM     17  S   UNL     1      34.714 -21.249 -19.263  0.00  0.00    +0.043 S 
ATOM     18  O   UNL     1      35.222 -21.310 -17.907  0.00  0.00    -0.157 OA
ATOM     19  O   UNL     1      34.921 -22.350 -20.184  0.00  0.00    -0.157 OA
ATOM     20  C   UNL     1      32.963 -20.951 -19.178  0.00  0.00    +0.196 C 
ENDBRANCH  15  17
ENDBRANCH  14  15
ENDBRANCH  13  14
ENDBRANCH   8  13
ENDBRANCH   4   7
BRANCH   1  21
ATOM     21  C   UNL     1      31.192  -9.306 -22.288  0.00  0.00    +0.040 C 
ATOM     22  C   UNL     1      31.120  -8.688 -20.888  0.00  0.00    +0.006 C 
BRANCH  21  23
ATOM     23  C   UNL     1      31.897  -8.341 -23.254  0.00  0.00    +0.095 C 
BRANCH  23  24
ATOM     24  N   UNL     1      31.370  -6.974 -23.085  0.00  0.00    -0.183 NA
ATOM     25  H   UNL     1      30.888  -6.732 -23.951  0.00  0.00    +0.148 HD
BRANCH  24  26
ATOM     26  S   UNL     1      32.455  -5.700 -22.742  0.00  0.00    +0.039 S 
ATOM     27  O   UNL     1      32.606  -4.859 -23.915  0.00  0.00    -0.158 OA
ATOM     28  O   UNL     1      33.619  -6.256 -22.078  0.00  0.00    -0.158 OA
BRANCH  26  29
ATOM     29  C   UNL     1      31.528  -4.795 -21.531  0.00  0.00    +0.146 C 
ATOM     30  C   UNL     1      31.831  -5.318 -20.135  0.00  0.00    +0.027 C 
ATOM     31  C   UNL     1      30.041  -4.869 -21.842  0.00  0.00    +0.027 C 
ENDBRANCH  26  29
ENDBRANCH  24  26
ENDBRANCH  23  24
ENDBRANCH  21  23
ENDBRANCH   1  21
TORSDOF 10
ENDMDL
MODEL 9
REMARK VINA RESULT:     -10.9      5.705      9.349
REMARK  Name = 9889366
REMARK  10 active torsions:
REMARK  status: ('A' for Active; 'I' for Inactive)
REMARK    1  A    between atoms: C_1  and  C_21
REMARK    2  A    between atoms: C_4  and  C_7
REMARK    3  A    between atoms: C_8  and  C_13
REMARK    4  A    between atoms: C_13  and  C_14
REMARK    5  A    between atoms: C_14  and  N_15
REMARK    6  A    between atoms: N_15  and  S_17
REMARK    7  A    between atoms: C_21  and  C_23
REMARK    8  A    between atoms: C_23  and  N_24
REMARK    9  A    between atoms: N_24  and  S_26
REMARK   10  A    between atoms: S_26  and  C_29
REMARK                            x       y       z     vdW  Elec       q    Type
REMARK                         _______ _______ _______ _____ _____    ______ ____
ROOT
ATOM      1  C   UNL     1      31.906 -10.646 -22.280  0.00  0.00    -0.021 C 
ATOM      2  C   UNL     1      32.847 -11.025 -23.237  0.00  0.00    -0.004 C 
ATOM      3  C   UNL     1      31.551 -11.532 -21.262  0.00  0.00    -0.004 C 
ATOM      4  C   UNL     1      33.075 -13.176 -22.161  0.00  0.00    -0.000 C 
ATOM      5  C   UNL     1      33.431 -12.290 -23.178  0.00  0.00    -0.000 C 
ATOM      6  C   UNL     1      32.134 -12.797 -21.203  0.00  0.00    -0.000 C 
ENDROOT
BRANCH   4   7
ATOM      7  C   UNL     1      33.680 -14.489 -22.101  0.00  0.00    -0.000 C 
ATOM      8  C   UNL     1      34.849 -17.019 -21.986  0.00  0.00    -0.021 C 
ATOM      9  C   UNL     1      34.011 -15.159 -23.279  0.00  0.00    -0.000 C 
ATOM     10  C   UNL     1      33.933 -15.085 -20.866  0.00  0.00    -0.000 C 
ATOM     11  C   UNL     1      34.596 -16.424 -23.221  0.00  0.00    -0.004 C 
ATOM     12  C   UNL     1      34.518 -16.350 -20.807  0.00  0.00    -0.004 C 
BRANCH   8  13
ATOM     13  C   UNL     1      35.475 -18.372 -21.924  0.00  0.00    +0.045 C 
BRANCH  13  14
ATOM     14  C   UNL     1      34.603 -19.423 -21.227  0.00  0.00    +0.096 C 
BRANCH  14  15
ATOM     15  N   UNL     1      35.268 -19.902 -19.995  0.00  0.00    -0.183 NA
ATOM     16  H   UNL     1      36.244 -20.083 -20.234  0.00  0.00    +0.148 HD
BRANCH  15  17
ATOM     17  S   UNL     1      34.674 -21.301 -19.225  0.00  0.00    +0.043 S 
ATOM     18  O   UNL     1      35.152 -21.353 -17.857  0.00  0.00    -0.157 OA
ATOM     19  O   UNL     1      34.861 -22.427 -20.119  0.00  0.00    -0.157 OA
ATOM     20  C   UNL     1      32.934 -20.939 -19.183  0.00  0.00    +0.196 C 
ENDBRANCH  15  17
ENDBRANCH  14  15
ENDBRANCH  13  14
ENDBRANCH   8  13
ENDBRANCH   4   7
BRANCH   1  21
ATOM     21  C   UNL     1      31.269  -9.268 -22.344  0.00  0.00    +0.040 C 
ATOM     22  C   UNL     1      31.168  -8.646 -20.947  0.00  0.00    +0.006 C 
BRANCH  21  23
ATOM     23  C   UNL     1      32.012  -8.314 -23.292  0.00  0.00    +0.095 C 
BRANCH  23  24
ATOM     24  N   UNL     1      31.815  -6.916 -22.866  0.00  0.00    -0.183 NA
ATOM     25  H   UNL     1      31.341  -6.944 -21.963  0.00  0.00    +0.148 HD
BRANCH  24  26
ATOM     26  S   UNL     1      30.921  -5.859 -23.868  0.00  0.00    +0.039 S 
ATOM     27  O   UNL     1      30.270  -4.849 -23.054  0.00  0.00    -0.158 OA
ATOM     28  O   UNL     1      30.154  -6.658 -24.806  0.00  0.00    -0.158 OA
BRANCH  26  29
ATOM     29  C   UNL     1      32.230  -5.077 -24.773  0.00  0.00    +0.146 C 
ATOM     30  C   UNL     1      32.487  -5.819 -26.076  0.00  0.00    +0.027 C 
ATOM     31  C   UNL     1      33.488  -4.999 -23.921  0.00  0.00    +0.027 C 
ENDBRANCH  26  29
ENDBRANCH  24  26
ENDBRANCH  23  24
ENDBRANCH  21  23
ENDBRANCH   1  21
TORSDOF 10
ENDMDL
