MODEL 1
REMARK VINA RESULT:     -12.8      0.000      0.000
REMARK  Name = 25109292
REMARK  3 active torsions:
REMARK  status: ('A' for Active; 'I' for Inactive)
REMARK    1  A    between atoms: C_3  and  S_20
REMARK    2  A    between atoms: C_7  and  C_10
REMARK    3  A    between atoms: S_20  and  C_23
REMARK                            x       y       z     vdW  Elec       q    Type
REMARK                         _______ _______ _______ _____ _____    ______ ____
ROOT
ATOM      1  O   UNL     1      34.269 -22.498 -16.804  0.00  0.00    -0.425 OA
ATOM      2  N   UNL     1      36.454 -21.892 -16.813  0.00  0.00    -0.368 NA
ATOM      3  C   UNL     1      36.494 -24.011 -13.735  0.00  0.00    +0.091 C 
ATOM      4  C   UNL     1      36.208 -22.706 -15.734  0.00  0.00    +0.153 C 
ATOM      5  C   UNL     1      34.872 -23.079 -15.725  0.00  0.00    +0.174 C 
ATOM      6  C   UNL     1      37.050 -23.179 -14.717  0.00  0.00    +0.107 C 
ATOM      7  C   UNL     1      35.281 -21.807 -17.401  0.00  0.00    +0.282 C 
ATOM      8  C   UNL     1      35.138 -24.363 -13.763  0.00  0.00    +0.018 C 
ATOM      9  C   UNL     1      34.286 -23.901 -14.771  0.00  0.00    +0.041 C 
ENDROOT
BRANCH   7  10
ATOM     10  C   UNL     1      34.909 -21.084 -18.593  0.00  0.00    +0.066 C 
ATOM     11  C   UNL     1      35.501 -19.581 -20.412  0.00  0.00    +0.000 C 
ATOM     12  C   UNL     1      34.182 -19.680 -20.915  0.00  0.00    +0.000 C 
ATOM     13  C   UNL     1      35.848 -20.289 -19.251  0.00  0.00    +0.006 C 
ATOM     14  C   UNL     1      33.612 -21.182 -19.088  0.00  0.00    +0.006 C 
ATOM     15  C   UNL     1      33.248 -20.485 -20.241  0.00  0.00    +0.000 C 
ATOM     16  C   UNL     1      36.434 -18.776 -21.086  0.00  0.00    +0.000 C 
ATOM     17  C   UNL     1      33.834 -18.972 -22.077  0.00  0.00    +0.000 C 
ATOM     18  C   UNL     1      36.071 -18.080 -22.239  0.00  0.00    +0.000 C 
ATOM     19  C   UNL     1      34.774 -18.177 -22.732  0.00  0.00    +0.000 C 
ENDBRANCH   7  10
BRANCH   3  20
ATOM     20  S   UNL     1      37.514 -24.620 -12.451  0.00  0.00    +0.005 S 
ATOM     21  O   UNL     1      38.281 -23.501 -11.924  0.00  0.00    -0.169 OA
ATOM     22  O   UNL     1      36.705 -25.430 -11.553  0.00  0.00    -0.169 OA
BRANCH  20  23
ATOM     23  C   UNL     1      38.643 -25.720 -13.273  0.00  0.00    +0.156 C 
ATOM     24  C   UNL     1      39.840 -24.977 -13.823  0.00  0.00    +0.028 C 
ENDBRANCH  20  23
ENDBRANCH   3  20
TORSDOF 3
ENDMDL
MODEL 2
REMARK VINA RESULT:     -12.2      9.683     13.972
REMARK  Name = 25109292
REMARK  3 active torsions:
REMARK  status: ('A' for Active; 'I' for Inactive)
REMARK    1  A    between atoms: C_3  and  S_20
REMARK    2  A    between atoms: C_7  and  C_10
REMARK    3  A    between atoms: S_20  and  C_23
REMARK                            x       y       z     vdW  Elec       q    Type
REMARK                         _______ _______ _______ _____ _____    ______ ____
ROOT
ATOM      1  O   UNL     1      31.956 -12.617 -22.022  0.00  0.00    -0.425 OA
ATOM      2  N   UNL     1      33.381 -11.713 -23.535  0.00  0.00    -0.368 NA
ATOM      3  C   UNL     1      31.627  -8.578 -22.506  0.00  0.00    +0.091 C 
ATOM      4  C   UNL     1      32.597 -10.723 -22.994  0.00  0.00    +0.153 C 
ATOM      5  C   UNL     1      31.724 -11.272 -22.069  0.00  0.00    +0.174 C 
ATOM      6  C   UNL     1      32.557  -9.340 -23.228  0.00  0.00    +0.107 C 
ATOM      7  C   UNL     1      32.959 -12.799 -22.926  0.00  0.00    +0.282 C 
ATOM      8  C   UNL     1      30.761  -9.173 -21.579  0.00  0.00    +0.018 C 
ATOM      9  C   UNL     1      30.790 -10.550 -21.335  0.00  0.00    +0.041 C 
ENDROOT
BRANCH   7  10
ATOM     10  C   UNL     1      33.406 -14.163 -23.078  0.00  0.00    +0.066 C 
ATOM     11  C   UNL     1      34.383 -16.174 -22.119  0.00  0.00    +0.000 C 
ATOM     12  C   UNL     1      34.275 -16.817 -23.375  0.00  0.00    +0.000 C 
ATOM     13  C   UNL     1      33.944 -14.847 -21.987  0.00  0.00    +0.006 C 
ATOM     14  C   UNL     1      33.300 -14.795 -24.313  0.00  0.00    +0.006 C 
ATOM     15  C   UNL     1      33.731 -16.114 -24.463  0.00  0.00    +0.000 C 
ATOM     16  C   UNL     1      34.926 -16.878 -21.032  0.00  0.00    +0.000 C 
ATOM     17  C   UNL     1      34.713 -18.145 -23.507  0.00  0.00    +0.000 C 
ATOM     18  C   UNL     1      35.357 -18.196 -21.182  0.00  0.00    +0.000 C 
ATOM     19  C   UNL     1      35.251 -18.828 -22.417  0.00  0.00    +0.000 C 
ENDBRANCH   7  10
BRANCH   3  20
ATOM     20  S   UNL     1      31.548  -6.851 -22.770  0.00  0.00    +0.005 S 
ATOM     21  O   UNL     1      31.287  -6.628 -24.184  0.00  0.00    -0.169 OA
ATOM     22  O   UNL     1      30.670  -6.262 -21.770  0.00  0.00    -0.169 OA
BRANCH  20  23
ATOM     23  C   UNL     1      33.194  -6.278 -22.420  0.00  0.00    +0.156 C 
ATOM     24  C   UNL     1      33.735  -5.424 -23.546  0.00  0.00    +0.028 C 
ENDBRANCH  20  23
ENDBRANCH   3  20
TORSDOF 3
ENDMDL
MODEL 3
REMARK VINA RESULT:     -12.2      2.100      3.275
REMARK  Name = 25109292
REMARK  3 active torsions:
REMARK  status: ('A' for Active; 'I' for Inactive)
REMARK    1  A    between atoms: C_3  and  S_20
REMARK    2  A    between atoms: C_7  and  C_10
REMARK    3  A    between atoms: S_20  and  C_23
REMARK                            x       y       z     vdW  Elec       q    Type
REMARK                         _______ _______ _______ _____ _____    ______ ____
ROOT
ATOM      1  O   UNL     1      33.926 -20.731 -19.463  0.00  0.00    -0.425 OA
ATOM      2  N   UNL     1      36.070 -20.053 -19.179  0.00  0.00    -0.368 NA
ATOM      3  C   UNL     1      35.854 -22.393 -16.274  0.00  0.00    +0.091 C 
ATOM      4  C   UNL     1      35.739 -20.953 -18.195  0.00  0.00    +0.153 C 
ATOM      5  C   UNL     1      34.428 -21.370 -18.366  0.00  0.00    +0.174 C 
ATOM      6  C   UNL     1      36.481 -21.472 -17.124  0.00  0.00    +0.107 C 
ATOM      7  C   UNL     1      34.968 -19.964 -19.891  0.00  0.00    +0.282 C 
ATOM      8  C   UNL     1      34.525 -22.787 -16.481  0.00  0.00    +0.018 C 
ATOM      9  C   UNL     1      33.773 -22.280 -17.546  0.00  0.00    +0.041 C 
ENDROOT
BRANCH   7  10
ATOM     10  C   UNL     1      34.702 -19.167 -21.064  0.00  0.00    +0.066 C 
ATOM     11  C   UNL     1      34.486 -16.986 -22.120  0.00  0.00    +0.000 C 
ATOM     12  C   UNL     1      34.185 -17.619 -23.349  0.00  0.00    +0.000 C 
ATOM     13  C   UNL     1      34.742 -17.775 -20.986  0.00  0.00    +0.006 C 
ATOM     14  C   UNL     1      34.406 -19.789 -22.273  0.00  0.00    +0.006 C 
ATOM     15  C   UNL     1      34.149 -19.021 -23.410  0.00  0.00    +0.000 C 
ATOM     16  C   UNL     1      34.522 -15.583 -22.059  0.00  0.00    +0.000 C 
ATOM     17  C   UNL     1      33.929 -16.830 -24.483  0.00  0.00    +0.000 C 
ATOM     18  C   UNL     1      34.265 -14.816 -23.195  0.00  0.00    +0.000 C 
ATOM     19  C   UNL     1      33.968 -15.438 -24.404  0.00  0.00    +0.000 C 
ENDBRANCH   7  10
BRANCH   3  20
ATOM     20  S   UNL     1      36.748 -23.062 -14.927  0.00  0.00    +0.005 S 
ATOM     21  O   UNL     1      38.156 -23.085 -15.296  0.00  0.00    -0.169 OA
ATOM     22  O   UNL     1      36.331 -22.389 -13.706  0.00  0.00    -0.169 OA
BRANCH  20  23
ATOM     23  C   UNL     1      36.182 -24.743 -14.816  0.00  0.00    +0.156 C 
ATOM     24  C   UNL     1      37.334 -25.704 -14.620  0.00  0.00    +0.028 C 
ENDBRANCH  20  23
ENDBRANCH   3  20
TORSDOF 3
ENDMDL
MODEL 4
REMARK VINA RESULT:     -12.2      1.319      2.177
REMARK  Name = 25109292
REMARK  3 active torsions:
REMARK  status: ('A' for Active; 'I' for Inactive)
REMARK    1  A    between atoms: C_3  and  S_20
REMARK    2  A    between atoms: C_7  and  C_10
REMARK    3  A    between atoms: S_20  and  C_23
REMARK                            x       y       z     vdW  Elec       q    Type
REMARK                         _______ _______ _______ _____ _____    ______ ____
ROOT
ATOM      1  O   UNL     1      36.857 -21.994 -17.070  0.00  0.00    -0.425 OA
ATOM      2  N   UNL     1      34.788 -22.406 -16.241  0.00  0.00    -0.368 NA
ATOM      3  C   UNL     1      36.790 -24.016 -13.526  0.00  0.00    +0.091 C 
ATOM      4  C   UNL     1      35.736 -22.921 -15.389  0.00  0.00    +0.153 C 
ATOM      5  C   UNL     1      37.002 -22.671 -15.893  0.00  0.00    +0.174 C 
ATOM      6  C   UNL     1      35.613 -23.611 -14.174  0.00  0.00    +0.107 C 
ATOM      7  C   UNL     1      35.506 -21.876 -17.206  0.00  0.00    +0.282 C 
ATOM      8  C   UNL     1      38.051 -23.744 -14.071  0.00  0.00    +0.018 C 
ATOM      9  C   UNL     1      38.189 -23.056 -15.281  0.00  0.00    +0.041 C 
ENDROOT
BRANCH   7  10
ATOM     10  C   UNL     1      35.069 -21.184 -18.394  0.00  0.00    +0.066 C 
ATOM     11  C   UNL     1      35.543 -19.680 -20.247  0.00  0.00    +0.000 C 
ATOM     12  C   UNL     1      34.215 -19.840 -20.708  0.00  0.00    +0.000 C 
ATOM     13  C   UNL     1      35.954 -20.359 -19.089  0.00  0.00    +0.006 C 
ATOM     14  C   UNL     1      33.763 -21.341 -18.847  0.00  0.00    +0.006 C 
ATOM     15  C   UNL     1      33.336 -20.674 -19.997  0.00  0.00    +0.000 C 
ATOM     16  C   UNL     1      36.422 -18.846 -20.958  0.00  0.00    +0.000 C 
ATOM     17  C   UNL     1      33.803 -19.161 -21.866  0.00  0.00    +0.000 C 
ATOM     18  C   UNL     1      35.995 -18.179 -22.107  0.00  0.00    +0.000 C 
ATOM     19  C   UNL     1      34.689 -18.336 -22.559  0.00  0.00    +0.000 C 
ENDBRANCH   7  10
BRANCH   3  20
ATOM     20  S   UNL     1      36.676 -24.879 -12.009  0.00  0.00    +0.005 S 
ATOM     21  O   UNL     1      36.595 -26.300 -12.311  0.00  0.00    -0.169 OA
ATOM     22  O   UNL     1      37.710 -24.388 -11.111  0.00  0.00    -0.169 OA
BRANCH  20  23
ATOM     23  C   UNL     1      35.113 -24.372 -11.331  0.00  0.00    +0.156 C 
ATOM     24  C   UNL     1      35.254 -23.908  -9.899  0.00  0.00    +0.028 C 
ENDBRANCH  20  23
ENDBRANCH   3  20
TORSDOF 3
ENDMDL
MODEL 5
REMARK VINA RESULT:     -11.9      8.249     11.648
REMARK  Name = 25109292
REMARK  3 active torsions:
REMARK  status: ('A' for Active; 'I' for Inactive)
REMARK    1  A    between atoms: C_3  and  S_20
REMARK    2  A    between atoms: C_7  and  C_10
REMARK    3  A    between atoms: S_20  and  C_23
REMARK                            x       y       z     vdW  Elec       q    Type
REMARK                         _______ _______ _______ _____ _____    ______ ____
ROOT
ATOM      1  O   UNL     1      32.855 -13.004 -23.724  0.00  0.00    -0.425 OA
ATOM      2  N   UNL     1      33.336 -13.065 -21.510  0.00  0.00    -0.368 NA
ATOM      3  C   UNL     1      34.575 -16.470 -22.427  0.00  0.00    +0.091 C 
ATOM      4  C   UNL     1      33.713 -14.250 -22.094  0.00  0.00    +0.153 C 
ATOM      5  C   UNL     1      33.419 -14.216 -23.449  0.00  0.00    +0.174 C 
ATOM      6  C   UNL     1      34.306 -15.402 -21.558  0.00  0.00    +0.107 C 
ATOM      7  C   UNL     1      32.841 -12.376 -22.514  0.00  0.00    +0.282 C 
ATOM      8  C   UNL     1      34.262 -16.395 -23.790  0.00  0.00    +0.018 C 
ATOM      9  C   UNL     1      33.670 -15.252 -24.340  0.00  0.00    +0.041 C 
ENDROOT
BRANCH   7  10
ATOM     10  C   UNL     1      32.282 -11.046 -22.520  0.00  0.00    +0.066 C 
ATOM     11  C   UNL     1      32.482  -8.684 -23.067  0.00  0.00    +0.000 C 
ATOM     12  C   UNL     1      31.191  -8.458 -22.533  0.00  0.00    +0.000 C 
ATOM     13  C   UNL     1      33.014  -9.984 -23.053  0.00  0.00    +0.006 C 
ATOM     14  C   UNL     1      31.012 -10.824 -21.997  0.00  0.00    +0.006 C 
ATOM     15  C   UNL     1      30.469  -9.539 -22.002  0.00  0.00    +0.000 C 
ATOM     16  C   UNL     1      33.205  -7.603 -23.598  0.00  0.00    +0.000 C 
ATOM     17  C   UNL     1      30.660  -7.158 -22.548  0.00  0.00    +0.000 C 
ATOM     18  C   UNL     1      32.662  -6.319 -23.604  0.00  0.00    +0.000 C 
ATOM     19  C   UNL     1      31.393  -6.096 -23.079  0.00  0.00    +0.000 C 
ENDBRANCH   7  10
BRANCH   3  20
ATOM     20  S   UNL     1      35.314 -17.923 -21.793  0.00  0.00    +0.005 S 
ATOM     21  O   UNL     1      36.288 -18.389 -22.769  0.00  0.00    -0.169 OA
ATOM     22  O   UNL     1      35.727 -17.679 -20.419  0.00  0.00    -0.169 OA
BRANCH  20  23
ATOM     23  C   UNL     1      33.986 -19.103 -21.737  0.00  0.00    +0.156 C 
ATOM     24  C   UNL     1      33.930 -19.812 -20.403  0.00  0.00    +0.028 C 
ENDBRANCH  20  23
ENDBRANCH   3  20
TORSDOF 3
ENDMDL
MODEL 6
REMARK VINA RESULT:     -11.6      1.148      1.632
REMARK  Name = 25109292
REMARK  3 active torsions:
REMARK  status: ('A' for Active; 'I' for Inactive)
REMARK    1  A    between atoms: C_3  and  S_20
REMARK    2  A    between atoms: C_7  and  C_10
REMARK    3  A    between atoms: S_20  and  C_23
REMARK                            x       y       z     vdW  Elec       q    Type
REMARK                         _______ _______ _______ _____ _____    ______ ____
ROOT
ATOM      1  O   UNL     1      36.691 -21.763 -17.118  0.00  0.00    -0.425 OA
ATOM      2  N   UNL     1      34.609 -22.314 -16.409  0.00  0.00    -0.368 NA
ATOM      3  C   UNL     1      36.552 -23.794 -13.581  0.00  0.00    +0.091 C 
ATOM      4  C   UNL     1      35.537 -22.767 -15.503  0.00  0.00    +0.153 C 
ATOM      5  C   UNL     1      36.812 -22.432 -15.934  0.00  0.00    +0.174 C 
ATOM      6  C   UNL     1      35.391 -23.466 -14.296  0.00  0.00    +0.107 C 
ATOM      7  C   UNL     1      35.345 -21.735 -17.332  0.00  0.00    +0.282 C 
ATOM      8  C   UNL     1      37.822 -23.437 -14.052  0.00  0.00    +0.018 C 
ATOM      9  C   UNL     1      37.984 -22.738 -15.253  0.00  0.00    +0.041 C 
ENDROOT
BRANCH   7  10
ATOM     10  C   UNL     1      34.932 -21.071 -18.545  0.00  0.00    +0.066 C 
ATOM     11  C   UNL     1      35.446 -19.615 -20.425  0.00  0.00    +0.000 C 
ATOM     12  C   UNL     1      34.126 -19.781 -20.906  0.00  0.00    +0.000 C 
ATOM     13  C   UNL     1      35.834 -20.267 -19.243  0.00  0.00    +0.006 C 
ATOM     14  C   UNL     1      33.633 -21.234 -19.018  0.00  0.00    +0.006 C 
ATOM     15  C   UNL     1      33.231 -20.593 -20.191  0.00  0.00    +0.000 C 
ATOM     16  C   UNL     1      36.341 -18.803 -21.141  0.00  0.00    +0.000 C 
ATOM     17  C   UNL     1      33.738 -19.129 -22.088  0.00  0.00    +0.000 C 
ATOM     18  C   UNL     1      35.939 -18.163 -22.313  0.00  0.00    +0.000 C 
ATOM     19  C   UNL     1      34.640 -18.325 -22.785  0.00  0.00    +0.000 C 
ENDBRANCH   7  10
BRANCH   3  20
ATOM     20  S   UNL     1      36.409 -24.666 -12.072  0.00  0.00    +0.005 S 
ATOM     21  O   UNL     1      37.428 -24.158 -11.166  0.00  0.00    -0.169 OA
ATOM     22  O   UNL     1      35.013 -24.670 -11.662  0.00  0.00    -0.169 OA
BRANCH  20  23
ATOM     23  C   UNL     1      36.833 -26.341 -12.491  0.00  0.00    +0.156 C 
ATOM     24  C   UNL     1      36.844 -26.552 -13.989  0.00  0.00    +0.028 C 
ENDBRANCH  20  23
ENDBRANCH   3  20
TORSDOF 3
ENDMDL
MODEL 7
REMARK VINA RESULT:     -11.6      2.445      3.773
REMARK  Name = 25109292
REMARK  3 active torsions:
REMARK  status: ('A' for Active; 'I' for Inactive)
REMARK    1  A    between atoms: C_3  and  S_20
REMARK    2  A    between atoms: C_7  and  C_10
REMARK    3  A    between atoms: S_20  and  C_23
REMARK                            x       y       z     vdW  Elec       q    Type
REMARK                         _______ _______ _______ _____ _____    ______ ____
ROOT
ATOM      1  O   UNL     1      35.887 -20.025 -19.232  0.00  0.00    -0.425 OA
ATOM      2  N   UNL     1      33.816 -20.944 -19.298  0.00  0.00    -0.368 NA
ATOM      3  C   UNL     1      35.094 -22.708 -16.262  0.00  0.00    +0.091 C 
ATOM      4  C   UNL     1      34.511 -21.453 -18.227  0.00  0.00    +0.153 C 
ATOM      5  C   UNL     1      35.778 -20.892 -18.184  0.00  0.00    +0.174 C 
ATOM      6  C   UNL     1      34.148 -22.386 -17.245  0.00  0.00    +0.107 C 
ATOM      7  C   UNL     1      34.675 -20.114 -19.848  0.00  0.00    +0.282 C 
ATOM      8  C   UNL     1      36.365 -22.119 -16.255  0.00  0.00    +0.018 C 
ATOM      9  C   UNL     1      36.741 -21.186 -17.226  0.00  0.00    +0.041 C 
ENDROOT
BRANCH   7  10
ATOM     10  C   UNL     1      34.518 -19.279 -21.015  0.00  0.00    +0.066 C 
ATOM     11  C   UNL     1      34.441 -17.066 -22.022  0.00  0.00    +0.000 C 
ATOM     12  C   UNL     1      34.213 -17.657 -23.287  0.00  0.00    +0.000 C 
ATOM     13  C   UNL     1      34.591 -17.891 -20.895  0.00  0.00    +0.006 C 
ATOM     14  C   UNL     1      34.295 -19.861 -22.259  0.00  0.00    +0.006 C 
ATOM     15  C   UNL     1      34.143 -19.056 -23.389  0.00  0.00    +0.000 C 
ATOM     16  C   UNL     1      34.511 -15.667 -21.920  0.00  0.00    +0.000 C 
ATOM     17  C   UNL     1      34.064 -16.832 -24.414  0.00  0.00    +0.000 C 
ATOM     18  C   UNL     1      34.360 -14.863 -23.049  0.00  0.00    +0.000 C 
ATOM     19  C   UNL     1      34.136 -15.444 -24.293  0.00  0.00    +0.000 C 
ENDBRANCH   7  10
BRANCH   3  20
ATOM     20  S   UNL     1      34.678 -23.869 -15.021  0.00  0.00    +0.005 S 
ATOM     21  O   UNL     1      33.242 -23.787 -14.800  0.00  0.00    -0.169 OA
ATOM     22  O   UNL     1      35.288 -25.148 -15.350  0.00  0.00    -0.169 OA
BRANCH  20  23
ATOM     23  C   UNL     1      35.493 -23.262 -13.562  0.00  0.00    +0.156 C 
ATOM     24  C   UNL     1      34.758 -23.674 -12.305  0.00  0.00    +0.028 C 
ENDBRANCH  20  23
ENDBRANCH   3  20
TORSDOF 3
ENDMDL
MODEL 8
REMARK VINA RESULT:     -11.5      3.357      8.737
REMARK  Name = 25109292
REMARK  3 active torsions:
REMARK  status: ('A' for Active; 'I' for Inactive)
REMARK    1  A    between atoms: C_3  and  S_20
REMARK    2  A    between atoms: C_7  and  C_10
REMARK    3  A    between atoms: S_20  and  C_23
REMARK                            x       y       z     vdW  Elec       q    Type
REMARK                         _______ _______ _______ _____ _____    ______ ____
ROOT
ATOM      1  O   UNL     1      34.089 -21.967 -17.608  0.00  0.00    -0.425 OA
ATOM      2  N   UNL     1      36.232 -21.251 -17.787  0.00  0.00    -0.368 NA
ATOM      3  C   UNL     1      34.824 -19.495 -20.770  0.00  0.00    +0.091 C 
ATOM      4  C   UNL     1      35.484 -20.721 -18.811  0.00  0.00    +0.153 C 
ATOM      5  C   UNL     1      34.172 -21.158 -18.704  0.00  0.00    +0.174 C 
ATOM      6  C   UNL     1      35.831 -19.867 -19.868  0.00  0.00    +0.107 C 
ATOM      7  C   UNL     1      35.361 -21.971 -17.117  0.00  0.00    +0.282 C 
ATOM      8  C   UNL     1      33.510 -19.959 -20.627  0.00  0.00    +0.018 C 
ATOM      9  C   UNL     1      33.149 -20.811 -19.577  0.00  0.00    +0.041 C 
ENDROOT
BRANCH   7  10
ATOM     10  C   UNL     1      35.557 -22.769 -15.931  0.00  0.00    +0.066 C 
ATOM     11  C   UNL     1      37.052 -23.909 -14.387  0.00  0.00    +0.000 C 
ATOM     12  C   UNL     1      35.936 -24.320 -13.620  0.00  0.00    +0.000 C 
ATOM     13  C   UNL     1      36.845 -23.134 -15.539  0.00  0.00    +0.006 C 
ATOM     14  C   UNL     1      34.459 -23.173 -15.177  0.00  0.00    +0.006 C 
ATOM     15  C   UNL     1      34.646 -23.944 -14.028  0.00  0.00    +0.000 C 
ATOM     16  C   UNL     1      38.342 -24.285 -13.979  0.00  0.00    +0.000 C 
ATOM     17  C   UNL     1      36.142 -25.095 -12.468  0.00  0.00    +0.000 C 
ATOM     18  C   UNL     1      38.528 -25.056 -12.831  0.00  0.00    +0.000 C 
ATOM     19  C   UNL     1      37.431 -25.461 -12.078  0.00  0.00    +0.000 C 
ENDBRANCH   7  10
BRANCH   3  20
ATOM     20  S   UNL     1      35.219 -18.431 -22.101  0.00  0.00    +0.005 S 
ATOM     21  O   UNL     1      36.666 -18.426 -22.253  0.00  0.00    -0.169 OA
ATOM     22  O   UNL     1      34.373 -18.765 -23.237  0.00  0.00    -0.169 OA
BRANCH  20  23
ATOM     23  C   UNL     1      34.722 -16.820 -21.537  0.00  0.00    +0.156 C 
ATOM     24  C   UNL     1      34.601 -15.843 -22.686  0.00  0.00    +0.028 C 
ENDBRANCH  20  23
ENDBRANCH   3  20
TORSDOF 3
ENDMDL
MODEL 9
REMARK VINA RESULT:     -11.3     11.099     15.534
REMARK  Name = 25109292
REMARK  3 active torsions:
REMARK  status: ('A' for Active; 'I' for Inactive)
REMARK    1  A    between atoms: C_3  and  S_20
REMARK    2  A    between atoms: C_7  and  C_10
REMARK    3  A    between atoms: S_20  and  C_23
REMARK                            x       y       z     vdW  Elec       q    Type
REMARK                         _______ _______ _______ _____ _____    ______ ____
ROOT
ATOM      1  O   UNL     1      33.812  -9.977 -23.599  0.00  0.00    -0.425 OA
ATOM      2  N   UNL     1      31.767 -10.285 -22.672  0.00  0.00    -0.368 NA
ATOM      3  C   UNL     1      31.966  -6.569 -22.321  0.00  0.00    +0.091 C 
ATOM      4  C   UNL     1      32.080  -8.947 -22.659  0.00  0.00    +0.153 C 
ATOM      5  C   UNL     1      33.331  -8.755 -23.226  0.00  0.00    +0.174 C 
ATOM      6  C   UNL     1      31.370  -7.832 -22.191  0.00  0.00    +0.107 C 
ATOM      7  C   UNL     1      32.819 -10.837 -23.234  0.00  0.00    +0.282 C 
ATOM      8  C   UNL     1      33.233  -6.420 -22.900  0.00  0.00    +0.018 C 
ATOM      9  C   UNL     1      33.953  -7.522 -23.372  0.00  0.00    +0.041 C 
ENDROOT
BRANCH   7  10
ATOM     10  C   UNL     1      33.076 -12.227 -23.521  0.00  0.00    +0.066 C 
ATOM     11  C   UNL     1      33.851 -14.416 -22.795  0.00  0.00    +0.000 C 
ATOM     12  C   UNL     1      33.574 -14.934 -24.083  0.00  0.00    +0.000 C 
ATOM     13  C   UNL     1      33.597 -13.060 -22.531  0.00  0.00    +0.006 C 
ATOM     14  C   UNL     1      32.803 -12.736 -24.787  0.00  0.00    +0.006 C 
ATOM     15  C   UNL     1      33.050 -14.081 -25.068  0.00  0.00    +0.000 C 
ATOM     16  C   UNL     1      34.374 -15.269 -21.810  0.00  0.00    +0.000 C 
ATOM     17  C   UNL     1      33.828 -16.289 -24.347  0.00  0.00    +0.000 C 
ATOM     18  C   UNL     1      34.621 -16.613 -22.091  0.00  0.00    +0.000 C 
ATOM     19  C   UNL     1      34.349 -17.121 -23.356  0.00  0.00    +0.000 C 
ENDBRANCH   7  10
BRANCH   3  20
ATOM     20  S   UNL     1      31.110  -5.156 -21.749  0.00  0.00    +0.005 S 
ATOM     21  O   UNL     1      29.694  -5.353 -22.021  0.00  0.00    -0.169 OA
ATOM     22  O   UNL     1      31.552  -4.855 -20.395  0.00  0.00    -0.169 OA
BRANCH  20  23
ATOM     23  C   UNL     1      31.691  -3.839 -22.792  0.00  0.00    +0.156 C 
ATOM     24  C   UNL     1      30.772  -3.622 -23.974  0.00  0.00    +0.028 C 
ENDBRANCH  20  23
ENDBRANCH   3  20
TORSDOF 3
ENDMDL
