MODEL 1
REMARK VINA RESULT:     -12.4      0.000      0.000
REMARK  Name = 10409068
REMARK  6 active torsions:
REMARK  status: ('A' for Active; 'I' for Inactive)
REMARK    1  A    between atoms: N_1  and  C_16
REMARK    2  A    between atoms: C_8  and  C_29
REMARK    3  A    between atoms: C_13  and  C_22
REMARK    4  A    between atoms: N_21  and  C_24
REMARK    5  A    between atoms: N_28  and  C_31
REMARK    6  A    between atoms: C_31  and  C_32
REMARK                            x       y       z     vdW  Elec       q    Type
REMARK                         _______ _______ _______ _____ _____    ______ ____
ROOT
ATOM      1  N   UNL     1      33.171 -12.196 -22.488  0.00  0.00    -0.297 N 
ATOM      2  N   UNL     1      33.568 -15.182 -24.639  0.00  0.00    -0.185 N 
ATOM      3  N   UNL     1      32.787 -12.606 -24.741  0.00  0.00    -0.206 NA
ATOM      4  N   UNL     1      33.163 -14.716 -25.845  0.00  0.00    -0.151 NA
ATOM      5  C   UNL     1      33.599 -14.421 -23.498  0.00  0.00    +0.102 C 
ATOM      6  C   UNL     1      34.061 -15.213 -22.470  0.00  0.00    +0.002 C 
ATOM      7  C   UNL     1      33.177 -13.043 -23.569  0.00  0.00    +0.149 C 
ATOM      8  C   UNL     1      34.317 -16.497 -23.014  0.00  0.00    +0.067 C 
ATOM      9  C   UNL     1      34.003 -16.449 -24.355  0.00  0.00    +0.094 C 
ATOM     10  C   UNL     1      34.262 -14.828 -21.057  0.00  0.00    +0.033 C 
ATOM     11  C   UNL     1      32.798 -13.464 -25.826  0.00  0.00    +0.219 C 
ATOM     12  H   UNL     1      33.845 -12.364 -21.791  0.00  0.00    +0.154 HD
ENDROOT
BRANCH   1  16
ATOM     13  C   UNL     1      31.528  -8.929 -22.915  0.00  0.00    +0.055 C 
ATOM     14  C   UNL     1      32.383 -10.013 -23.114  0.00  0.00    +0.019 C 
ATOM     15  C   UNL     1      30.596  -8.957 -21.877  0.00  0.00    +0.004 C 
ATOM     16  C   UNL     1      32.308 -11.124 -22.274  0.00  0.00    +0.045 C 
ATOM     17  C   UNL     1      31.377 -11.152 -21.236  0.00  0.00    -0.008 C 
ATOM     18  C   UNL     1      30.521 -10.069 -21.038  0.00  0.00    -0.003 C 
ATOM     19  C   UNL     1      31.275 -12.330 -20.322  0.00  0.00    +0.032 C 
BRANCH  13  22
ATOM     20  O   UNL     1      30.612  -7.400 -24.441  0.00  0.00    -0.270 OA
ATOM     21  N   UNL     1      32.842  -7.118 -23.876  0.00  0.00    -0.302 N 
ATOM     22  C   UNL     1      31.605  -7.770 -23.790  0.00  0.00    +0.246 C 
ATOM     23  H   UNL     1      33.589  -7.460 -23.335  0.00  0.00    +0.150 HD
BRANCH  21  24
ATOM     24  C   UNL     1      33.073  -5.973 -24.713  0.00  0.00    +0.072 C 
ATOM     25  C   UNL     1      34.342  -5.831 -25.500  0.00  0.00    +0.021 C 
ATOM     26  C   UNL     1      34.077  -4.926 -24.333  0.00  0.00    +0.021 C 
ENDBRANCH  21  24
ENDBRANCH  13  22
ENDBRANCH   1  16
BRANCH   8  29
ATOM     27  O   UNL     1      36.018 -17.995 -22.407  0.00  0.00    -0.270 OA
ATOM     28  N   UNL     1      33.887 -18.447 -21.620  0.00  0.00    -0.301 N 
ATOM     29  C   UNL     1      34.811 -17.666 -22.342  0.00  0.00    +0.247 C 
ATOM     30  H   UNL     1      32.949 -18.149 -21.597  0.00  0.00    +0.150 HD
BRANCH  28  31
ATOM     31  C   UNL     1      34.230 -19.651 -20.916  0.00  0.00    +0.090 C 
BRANCH  31  32
ATOM     32  C   UNL     1      33.056 -20.215 -20.125  0.00  0.00    +0.021 C 
ATOM     33  C   UNL     1      33.470 -21.321 -19.165  0.00  0.00    +0.002 C 
ENDBRANCH  31  32
ENDBRANCH  28  31
ENDBRANCH   8  29
TORSDOF 6
ENDMDL
MODEL 2
REMARK VINA RESULT:     -11.0      1.449      9.932
REMARK  Name = 10409068
REMARK  6 active torsions:
REMARK  status: ('A' for Active; 'I' for Inactive)
REMARK    1  A    between atoms: N_1  and  C_16
REMARK    2  A    between atoms: C_8  and  C_29
REMARK    3  A    between atoms: C_13  and  C_22
REMARK    4  A    between atoms: N_21  and  C_24
REMARK    5  A    between atoms: N_28  and  C_31
REMARK    6  A    between atoms: C_31  and  C_32
REMARK                            x       y       z     vdW  Elec       q    Type
REMARK                         _______ _______ _______ _____ _____    ______ ____
ROOT
ATOM      1  N   UNL     1      33.999 -13.782 -22.737  0.00  0.00    -0.297 N 
ATOM      2  N   UNL     1      31.699 -11.290 -21.254  0.00  0.00    -0.185 N 
ATOM      3  N   UNL     1      32.638 -13.783 -20.855  0.00  0.00    -0.206 NA
ATOM      4  N   UNL     1      31.236 -11.947 -20.163  0.00  0.00    -0.151 NA
ATOM      5  C   UNL     1      32.601 -11.821 -22.140  0.00  0.00    +0.102 C 
ATOM      6  C   UNL     1      32.843 -10.882 -23.117  0.00  0.00    +0.002 C 
ATOM      7  C   UNL     1      33.095 -13.158 -21.912  0.00  0.00    +0.149 C 
ATOM      8  C   UNL     1      32.057  -9.743 -22.806  0.00  0.00    +0.067 C 
ATOM      9  C   UNL     1      31.361 -10.024 -21.651  0.00  0.00    +0.094 C 
ATOM     10  C   UNL     1      33.744 -11.005 -24.282  0.00  0.00    +0.033 C 
ATOM     11  C   UNL     1      31.728 -13.147 -20.028  0.00  0.00    +0.219 C 
ATOM     12  H   UNL     1      34.639 -13.203 -23.209  0.00  0.00    +0.154 HD
ENDROOT
BRANCH   1  16
ATOM     13  C   UNL     1      34.716 -17.352 -22.191  0.00  0.00    +0.055 C 
ATOM     14  C   UNL     1      34.604 -15.979 -21.970  0.00  0.00    +0.019 C 
ATOM     15  C   UNL     1      34.327 -17.896 -23.416  0.00  0.00    +0.004 C 
ATOM     16  C   UNL     1      34.104 -15.150 -22.975  0.00  0.00    +0.045 C 
ATOM     17  C   UNL     1      33.714 -15.694 -24.199  0.00  0.00    -0.008 C 
ATOM     18  C   UNL     1      33.826 -17.067 -24.419  0.00  0.00    -0.003 C 
ATOM     19  C   UNL     1      33.175 -14.829 -25.292  0.00  0.00    +0.032 C 
BRANCH  13  22
ATOM     20  O   UNL     1      36.363 -18.012 -20.655  0.00  0.00    -0.270 OA
ATOM     21  N   UNL     1      34.430 -19.289 -20.743  0.00  0.00    -0.302 N 
ATOM     22  C   UNL     1      35.238 -18.217 -21.145  0.00  0.00    +0.246 C 
ATOM     23  H   UNL     1      33.550 -19.397 -21.170  0.00  0.00    +0.150 HD
BRANCH  21  24
ATOM     24  C   UNL     1      34.822 -20.237 -19.737  0.00  0.00    +0.072 C 
ATOM     25  C   UNL     1      34.856 -21.708 -20.028  0.00  0.00    +0.021 C 
ATOM     26  C   UNL     1      33.816 -21.150 -19.100  0.00  0.00    +0.021 C 
ENDBRANCH  21  24
ENDBRANCH  13  22
ENDBRANCH   1  16
BRANCH   8  29
ATOM     27  O   UNL     1      30.910  -8.168 -24.112  0.00  0.00    -0.270 OA
ATOM     28  N   UNL     1      33.106  -7.679 -23.562  0.00  0.00    -0.301 N 
ATOM     29  C   UNL     1      31.964  -8.503 -23.524  0.00  0.00    +0.247 C 
ATOM     30  H   UNL     1      33.912  -7.983 -23.085  0.00  0.00    +0.150 HD
BRANCH  28  31
ATOM     31  C   UNL     1      33.168  -6.423 -24.256  0.00  0.00    +0.090 C 
BRANCH  31  32
ATOM     32  C   UNL     1      33.427  -5.252 -23.314  0.00  0.00    +0.021 C 
ATOM     33  C   UNL     1      32.406  -5.165 -22.190  0.00  0.00    +0.002 C 
ENDBRANCH  31  32
ENDBRANCH  28  31
ENDBRANCH   8  29
TORSDOF 6
ENDMDL
MODEL 3
REMARK VINA RESULT:     -11.0      5.946     13.461
REMARK  Name = 10409068
REMARK  6 active torsions:
REMARK  status: ('A' for Active; 'I' for Inactive)
REMARK    1  A    between atoms: N_1  and  C_16
REMARK    2  A    between atoms: C_8  and  C_29
REMARK    3  A    between atoms: C_13  and  C_22
REMARK    4  A    between atoms: N_21  and  C_24
REMARK    5  A    between atoms: N_28  and  C_31
REMARK    6  A    between atoms: C_31  and  C_32
REMARK                            x       y       z     vdW  Elec       q    Type
REMARK                         _______ _______ _______ _____ _____    ______ ____
ROOT
ATOM      1  N   UNL     1      33.060 -22.498 -17.225  0.00  0.00    -0.297 N 
ATOM      2  N   UNL     1      35.699 -20.601 -18.995  0.00  0.00    -0.185 N 
ATOM      3  N   UNL     1      35.340 -22.226 -16.877  0.00  0.00    -0.206 NA
ATOM      4  N   UNL     1      36.797 -20.889 -18.256  0.00  0.00    -0.151 NA
ATOM      5  C   UNL     1      34.446 -21.087 -18.722  0.00  0.00    +0.102 C 
ATOM      6  C   UNL     1      33.580 -20.593 -19.672  0.00  0.00    +0.002 C 
ATOM      7  C   UNL     1      34.270 -21.957 -17.584  0.00  0.00    +0.149 C 
ATOM      8  C   UNL     1      34.341 -19.779 -20.549  0.00  0.00    +0.067 C 
ATOM      9  C   UNL     1      35.646 -19.802 -20.106  0.00  0.00    +0.094 C 
ATOM     10  C   UNL     1      32.128 -20.843 -19.785  0.00  0.00    +0.033 C 
ATOM     11  C   UNL     1      36.556 -21.679 -17.247  0.00  0.00    +0.219 C 
ATOM     12  H   UNL     1      32.419 -22.670 -17.952  0.00  0.00    +0.154 HD
ENDROOT
BRANCH   1  16
ATOM     13  C   UNL     1      33.202 -23.539 -13.696  0.00  0.00    +0.055 C 
ATOM     14  C   UNL     1      33.599 -23.203 -14.990  0.00  0.00    +0.019 C 
ATOM     15  C   UNL     1      31.851 -23.501 -13.348  0.00  0.00    +0.004 C 
ATOM     16  C   UNL     1      32.645 -22.830 -15.937  0.00  0.00    +0.045 C 
ATOM     17  C   UNL     1      31.295 -22.792 -15.591  0.00  0.00    -0.008 C 
ATOM     18  C   UNL     1      30.897 -23.127 -14.296  0.00  0.00    -0.003 C 
ATOM     19  C   UNL     1      30.252 -22.396 -16.585  0.00  0.00    +0.032 C 
BRANCH  13  22
ATOM     20  O   UNL     1      34.088 -23.561 -11.523  0.00  0.00    -0.270 OA
ATOM     21  N   UNL     1      35.270 -24.704 -13.156  0.00  0.00    -0.302 N 
ATOM     22  C   UNL     1      34.194 -23.928 -12.707  0.00  0.00    +0.246 C 
ATOM     23  H   UNL     1      35.297 -24.962 -14.105  0.00  0.00    +0.150 HD
BRANCH  21  24
ATOM     24  C   UNL     1      36.336 -25.145 -12.299  0.00  0.00    +0.072 C 
ATOM     25  C   UNL     1      37.499 -24.252 -11.984  0.00  0.00    +0.021 C 
ATOM     26  C   UNL     1      37.694 -25.461 -12.852  0.00  0.00    +0.021 C 
ENDBRANCH  21  24
ENDBRANCH  13  22
ENDBRANCH   1  16
BRANCH   8  29
ATOM     27  O   UNL     1      32.881 -19.403 -22.346  0.00  0.00    -0.270 OA
ATOM     28  N   UNL     1      34.637 -17.914 -22.086  0.00  0.00    -0.301 N 
ATOM     29  C   UNL     1      33.892 -19.044 -21.698  0.00  0.00    +0.247 C 
ATOM     30  H   UNL     1      35.423 -17.670 -21.546  0.00  0.00    +0.150 HD
BRANCH  28  31
ATOM     31  C   UNL     1      34.320 -17.095 -23.223  0.00  0.00    +0.090 C 
BRANCH  31  32
ATOM     32  C   UNL     1      34.468 -15.607 -22.926  0.00  0.00    +0.021 C 
ATOM     33  C   UNL     1      34.161 -15.264 -21.475  0.00  0.00    +0.002 C 
ENDBRANCH  31  32
ENDBRANCH  28  31
ENDBRANCH   8  29
TORSDOF 6
ENDMDL
MODEL 4
REMARK VINA RESULT:     -10.5      1.877      9.832
REMARK  Name = 10409068
REMARK  6 active torsions:
REMARK  status: ('A' for Active; 'I' for Inactive)
REMARK    1  A    between atoms: N_1  and  C_16
REMARK    2  A    between atoms: C_8  and  C_29
REMARK    3  A    between atoms: C_13  and  C_22
REMARK    4  A    between atoms: N_21  and  C_24
REMARK    5  A    between atoms: N_28  and  C_31
REMARK    6  A    between atoms: C_31  and  C_32
REMARK                            x       y       z     vdW  Elec       q    Type
REMARK                         _______ _______ _______ _____ _____    ______ ____
ROOT
ATOM      1  N   UNL     1      33.567 -11.850 -23.006  0.00  0.00    -0.297 N 
ATOM      2  N   UNL     1      31.169  -9.153 -22.183  0.00  0.00    -0.185 N 
ATOM      3  N   UNL     1      31.508 -11.813 -21.933  0.00  0.00    -0.206 NA
ATOM      4  N   UNL     1      30.182  -9.836 -21.553  0.00  0.00    -0.151 NA
ATOM      5  C   UNL     1      32.303  -9.740 -22.684  0.00  0.00    +0.102 C 
ATOM      6  C   UNL     1      33.079  -8.753 -23.252  0.00  0.00    +0.002 C 
ATOM      7  C   UNL     1      32.470 -11.166 -22.542  0.00  0.00    +0.149 C 
ATOM      8  C   UNL     1      32.385  -7.527 -23.084  0.00  0.00    +0.067 C 
ATOM      9  C   UNL     1      31.208  -7.805 -22.422  0.00  0.00    +0.094 C 
ATOM     10  C   UNL     1      34.390  -8.907 -23.916  0.00  0.00    +0.033 C 
ATOM     11  C   UNL     1      30.407 -11.117 -21.466  0.00  0.00    +0.219 C 
ATOM     12  H   UNL     1      34.418 -11.357 -23.031  0.00  0.00    +0.154 HD
ENDROOT
BRANCH   1  16
ATOM     13  C   UNL     1      34.155 -15.485 -23.030  0.00  0.00    +0.055 C 
ATOM     14  C   UNL     1      34.114 -14.157 -22.605  0.00  0.00    +0.019 C 
ATOM     15  C   UNL     1      33.681 -15.827 -24.296  0.00  0.00    +0.004 C 
ATOM     16  C   UNL     1      33.600 -13.171 -23.447  0.00  0.00    +0.045 C 
ATOM     17  C   UNL     1      33.125 -13.513 -24.713  0.00  0.00    -0.008 C 
ATOM     18  C   UNL     1      33.166 -14.841 -25.138  0.00  0.00    -0.003 C 
ATOM     19  C   UNL     1      32.569 -12.477 -25.636  0.00  0.00    +0.032 C 
BRANCH  13  22
ATOM     20  O   UNL     1      34.718 -16.346 -20.921  0.00  0.00    -0.270 OA
ATOM     21  N   UNL     1      35.189 -17.673 -22.761  0.00  0.00    -0.302 N 
ATOM     22  C   UNL     1      34.691 -16.514 -22.153  0.00  0.00    +0.246 C 
ATOM     23  H   UNL     1      35.139 -17.745 -23.742  0.00  0.00    +0.150 HD
BRANCH  21  24
ATOM     24  C   UNL     1      35.767 -18.764 -22.026  0.00  0.00    +0.072 C 
ATOM     25  C   UNL     1      35.057 -19.374 -20.854  0.00  0.00    +0.021 C 
ATOM     26  C   UNL     1      36.302 -18.565 -20.638  0.00  0.00    +0.021 C 
ENDBRANCH  21  24
ENDBRANCH  13  22
ENDBRANCH   1  16
BRANCH   8  29
ATOM     27  O   UNL     1      33.717  -5.602 -22.938  0.00  0.00    -0.270 OA
ATOM     28  N   UNL     1      32.074  -5.624 -24.570  0.00  0.00    -0.301 N 
ATOM     29  C   UNL     1      32.783  -6.214 -23.506  0.00  0.00    +0.247 C 
ATOM     30  H   UNL     1      31.347  -6.142 -24.986  0.00  0.00    +0.150 HD
BRANCH  28  31
ATOM     31  C   UNL     1      32.345  -4.311 -25.086  0.00  0.00    +0.090 C 
BRANCH  31  32
ATOM     32  C   UNL     1      33.351  -4.333 -26.231  0.00  0.00    +0.021 C 
ATOM     33  C   UNL     1      33.150  -5.516 -27.167  0.00  0.00    +0.002 C 
ENDBRANCH  31  32
ENDBRANCH  28  31
ENDBRANCH   8  29
TORSDOF 6
ENDMDL
MODEL 5
REMARK VINA RESULT:     -10.0      2.642     10.703
REMARK  Name = 10409068
REMARK  6 active torsions:
REMARK  status: ('A' for Active; 'I' for Inactive)
REMARK    1  A    between atoms: N_1  and  C_16
REMARK    2  A    between atoms: C_8  and  C_29
REMARK    3  A    between atoms: C_13  and  C_22
REMARK    4  A    between atoms: N_21  and  C_24
REMARK    5  A    between atoms: N_28  and  C_31
REMARK    6  A    between atoms: C_31  and  C_32
REMARK                            x       y       z     vdW  Elec       q    Type
REMARK                         _______ _______ _______ _____ _____    ______ ____
ROOT
ATOM      1  N   UNL     1      33.898 -18.059 -20.970  0.00  0.00    -0.297 N 
ATOM      2  N   UNL     1      33.740 -15.980 -24.028  0.00  0.00    -0.185 N 
ATOM      3  N   UNL     1      33.840 -18.553 -23.239  0.00  0.00    -0.206 NA
ATOM      4  N   UNL     1      33.734 -16.917 -25.007  0.00  0.00    -0.151 NA
ATOM      5  C   UNL     1      33.792 -16.274 -22.689  0.00  0.00    +0.102 C 
ATOM      6  C   UNL     1      33.782 -15.086 -21.991  0.00  0.00    +0.002 C 
ATOM      7  C   UNL     1      33.845 -17.657 -22.283  0.00  0.00    +0.149 C 
ATOM      8  C   UNL     1      33.720 -14.040 -22.946  0.00  0.00    +0.067 C 
ATOM      9  C   UNL     1      33.697 -14.621 -24.196  0.00  0.00    +0.094 C 
ATOM     10  C   UNL     1      33.825 -14.903 -20.525  0.00  0.00    +0.033 C 
ATOM     11  C   UNL     1      33.785 -18.140 -24.558  0.00  0.00    +0.219 C 
ATOM     12  H   UNL     1      33.462 -17.473 -20.310  0.00  0.00    +0.154 HD
ENDROOT
BRANCH   1  16
ATOM     13  C   UNL     1      34.307 -21.356 -19.382  0.00  0.00    +0.055 C 
ATOM     14  C   UNL     1      33.716 -20.196 -19.883  0.00  0.00    +0.019 C 
ATOM     15  C   UNL     1      35.688 -21.531 -19.474  0.00  0.00    +0.004 C 
ATOM     16  C   UNL     1      34.506 -19.211 -20.476  0.00  0.00    +0.045 C 
ATOM     17  C   UNL     1      35.887 -19.385 -20.568  0.00  0.00    -0.008 C 
ATOM     18  C   UNL     1      36.478 -20.545 -20.068  0.00  0.00    -0.003 C 
ATOM     19  C   UNL     1      36.757 -18.346 -21.198  0.00  0.00    +0.032 C 
BRANCH  13  22
ATOM     20  O   UNL     1      33.382 -23.510 -19.282  0.00  0.00    -0.270 OA
ATOM     21  N   UNL     1      32.809 -22.036 -17.587  0.00  0.00    -0.302 N 
ATOM     22  C   UNL     1      33.485 -22.384 -18.764  0.00  0.00    +0.246 C 
ATOM     23  H   UNL     1      32.931 -21.128 -17.228  0.00  0.00    +0.150 HD
BRANCH  21  24
ATOM     24  C   UNL     1      31.945 -22.940 -16.878  0.00  0.00    +0.072 C 
ATOM     25  C   UNL     1      30.658 -22.469 -16.270  0.00  0.00    +0.021 C 
ATOM     26  C   UNL     1      31.804 -22.866 -15.386  0.00  0.00    +0.021 C 
ENDBRANCH  21  24
ENDBRANCH  13  22
ENDBRANCH   1  16
BRANCH   8  29
ATOM     27  O   UNL     1      34.184 -12.121 -21.679  0.00  0.00    -0.270 OA
ATOM     28  N   UNL     1      33.061 -11.815 -23.681  0.00  0.00    -0.301 N 
ATOM     29  C   UNL     1      33.688 -12.623 -22.714  0.00  0.00    +0.247 C 
ATOM     30  H   UNL     1      32.685 -12.254 -24.479  0.00  0.00    +0.150 HD
BRANCH  28  31
ATOM     31  C   UNL     1      32.934 -10.388 -23.576  0.00  0.00    +0.090 C 
BRANCH  31  32
ATOM     32  C   UNL     1      31.728  -9.972 -22.742  0.00  0.00    +0.021 C 
ATOM     33  C   UNL     1      31.493  -8.468 -22.757  0.00  0.00    +0.002 C 
ENDBRANCH  31  32
ENDBRANCH  28  31
ENDBRANCH   8  29
TORSDOF 6
ENDMDL
MODEL 6
REMARK VINA RESULT:      -9.7      3.698      8.073
REMARK  Name = 10409068
REMARK  6 active torsions:
REMARK  status: ('A' for Active; 'I' for Inactive)
REMARK    1  A    between atoms: N_1  and  C_16
REMARK    2  A    between atoms: C_8  and  C_29
REMARK    3  A    between atoms: C_13  and  C_22
REMARK    4  A    between atoms: N_21  and  C_24
REMARK    5  A    between atoms: N_28  and  C_31
REMARK    6  A    between atoms: C_31  and  C_32
REMARK                            x       y       z     vdW  Elec       q    Type
REMARK                         _______ _______ _______ _____ _____    ______ ____
ROOT
ATOM      1  N   UNL     1      34.875 -19.392 -21.020  0.00  0.00    -0.297 N 
ATOM      2  N   UNL     1      33.351 -21.561 -18.437  0.00  0.00    -0.185 N 
ATOM      3  N   UNL     1      32.740 -20.250 -20.708  0.00  0.00    -0.206 NA
ATOM      4  N   UNL     1      32.073 -21.666 -18.874  0.00  0.00    -0.151 NA
ATOM      5  C   UNL     1      34.323 -20.838 -19.082  0.00  0.00    +0.102 C 
ATOM      6  C   UNL     1      35.491 -20.955 -18.361  0.00  0.00    +0.002 C 
ATOM      7  C   UNL     1      33.979 -20.142 -20.298  0.00  0.00    +0.149 C 
ATOM      8  C   UNL     1      35.211 -21.779 -17.242  0.00  0.00    +0.067 C 
ATOM      9  C   UNL     1      33.882 -22.138 -17.314  0.00  0.00    +0.094 C 
ATOM     10  C   UNL     1      36.803 -20.350 -18.668  0.00  0.00    +0.033 C 
ATOM     11  C   UNL     1      31.843 -21.008 -19.976  0.00  0.00    +0.219 C 
ATOM     12  H   UNL     1      35.818 -19.673 -20.982  0.00  0.00    +0.154 HD
ENDROOT
BRANCH   1  16
ATOM     13  C   UNL     1      34.090 -15.916 -21.945  0.00  0.00    +0.055 C 
ATOM     14  C   UNL     1      34.378 -17.045 -21.178  0.00  0.00    +0.019 C 
ATOM     15  C   UNL     1      34.012 -16.017 -23.334  0.00  0.00    +0.004 C 
ATOM     16  C   UNL     1      34.589 -18.275 -21.801  0.00  0.00    +0.045 C 
ATOM     17  C   UNL     1      34.512 -18.376 -23.190  0.00  0.00    -0.008 C 
ATOM     18  C   UNL     1      34.224 -17.247 -23.957  0.00  0.00    -0.003 C 
ATOM     19  C   UNL     1      34.733 -19.682 -23.884  0.00  0.00    +0.032 C 
BRANCH  13  22
ATOM     20  O   UNL     1      34.229 -14.446 -20.120  0.00  0.00    -0.270 OA
ATOM     21  N   UNL     1      33.221 -13.643 -22.047  0.00  0.00    -0.302 N 
ATOM     22  C   UNL     1      33.869 -14.633 -21.297  0.00  0.00    +0.246 C 
ATOM     23  H   UNL     1      32.962 -13.853 -22.973  0.00  0.00    +0.150 HD
BRANCH  21  24
ATOM     24  C   UNL     1      32.918 -12.336 -21.533  0.00  0.00    +0.072 C 
ATOM     25  C   UNL     1      31.819 -12.130 -20.534  0.00  0.00    +0.021 C 
ATOM     26  C   UNL     1      31.665 -11.617 -21.936  0.00  0.00    +0.021 C 
ENDBRANCH  21  24
ENDBRANCH  13  22
ENDBRANCH   1  16
BRANCH   8  29
ATOM     27  O   UNL     1      37.254 -21.710 -16.091  0.00  0.00    -0.270 OA
ATOM     28  N   UNL     1      35.650 -23.183 -15.301  0.00  0.00    -0.301 N 
ATOM     29  C   UNL     1      36.103 -22.195 -16.196  0.00  0.00    +0.247 C 
ATOM     30  H   UNL     1      34.738 -23.534 -15.422  0.00  0.00    +0.150 HD
BRANCH  28  31
ATOM     31  C   UNL     1      36.436 -23.710 -14.221  0.00  0.00    +0.090 C 
BRANCH  31  32
ATOM     32  C   UNL     1      37.224 -24.950 -14.627  0.00  0.00    +0.021 C 
ATOM     33  C   UNL     1      38.729 -24.735 -14.573  0.00  0.00    +0.002 C 
ENDBRANCH  31  32
ENDBRANCH  28  31
ENDBRANCH   8  29
TORSDOF 6
ENDMDL
