MODEL 1
REMARK VINA RESULT:     -10.6      0.000      0.000
REMARK  Name = 68706
REMARK  5 active torsions:
REMARK  status: ('A' for Active; 'I' for Inactive)
REMARK    1  A    between atoms: N_1  and  C_13
REMARK    2  A    between atoms: C_3  and  C_19
REMARK    3  A    between atoms: C_4  and  C_7
REMARK    4  A    between atoms: C_19  and  C_21
REMARK    5  A    between atoms: C_21  and  O_22
REMARK                            x       y       z     vdW  Elec       q    Type
REMARK                         _______ _______ _______ _____ _____    ______ ____
ROOT
ATOM      1  N   UNL     1      34.711 -20.635 -19.366  0.00  0.00    -0.189 N 
ATOM      2  N   UNL     1      35.605 -20.811 -18.377  0.00  0.00    -0.174 NA
ATOM      3  C   UNL     1      33.741 -22.094 -18.060  0.00  0.00    +0.025 C 
ATOM      4  C   UNL     1      35.009 -21.704 -17.579  0.00  0.00    +0.097 C 
ATOM      5  C   UNL     1      33.579 -21.380 -19.222  0.00  0.00    +0.087 C 
ENDROOT
BRANCH   4   7
ATOM      6 CL   UNL     1      37.715 -23.591 -12.631  0.00  0.00    -0.082 Cl
ATOM      7  C   UNL     1      35.662 -22.159 -16.384  0.00  0.00    +0.019 C 
ATOM      8  C   UNL     1      37.054 -22.252 -16.342  0.00  0.00    +0.002 C 
ATOM      9  C   UNL     1      34.906 -22.509 -15.264  0.00  0.00    +0.002 C 
ATOM     10  C   UNL     1      37.689 -22.696 -15.182  0.00  0.00    +0.011 C 
ATOM     11  C   UNL     1      35.541 -22.952 -14.105  0.00  0.00    +0.011 C 
ATOM     12  C   UNL     1      36.932 -23.045 -14.063  0.00  0.00    +0.058 C 
ENDBRANCH   4   7
BRANCH   1  13
ATOM     13  C   UNL     1      34.980 -19.757 -20.413  0.00  0.00    +0.074 C 
ATOM     14  C   UNL     1      34.006 -19.516 -21.374  0.00  0.00    +0.017 C 
ATOM     15  C   UNL     1      36.218 -19.128 -20.482  0.00  0.00    +0.017 C 
ATOM     16  C   UNL     1      34.273 -18.634 -22.421  0.00  0.00    +0.001 C 
ATOM     17  C   UNL     1      36.485 -18.247 -21.530  0.00  0.00    +0.001 C 
ATOM     18  C   UNL     1      35.513 -17.999 -22.499  0.00  0.00    +0.000 C 
ENDBRANCH   1  13
BRANCH   3  19
ATOM     19  C   UNL     1      32.792 -23.049 -17.463  0.00  0.00    +0.139 C 
BRANCH  19  21
ATOM     20  O   UNL     1      30.753 -21.719 -17.400  0.00  0.00    -0.250 OA
ATOM     21  C   UNL     1      31.581 -22.396 -16.807  0.00  0.00    +0.318 C 
BRANCH  21  22
ATOM     22  O   UNL     1      31.515 -22.645 -15.473  0.00  0.00    -0.480 OA
ATOM     23  H   UNL     1      32.299 -22.658 -14.960  0.00  0.00    +0.295 HD
ENDBRANCH  21  22
ENDBRANCH  19  21
ENDBRANCH   3  19
TORSDOF 5
ENDMDL
MODEL 2
REMARK VINA RESULT:     -10.4      3.048      6.657
REMARK  Name = 68706
REMARK  5 active torsions:
REMARK  status: ('A' for Active; 'I' for Inactive)
REMARK    1  A    between atoms: N_1  and  C_13
REMARK    2  A    between atoms: C_3  and  C_19
REMARK    3  A    between atoms: C_4  and  C_7
REMARK    4  A    between atoms: C_19  and  C_21
REMARK    5  A    between atoms: C_21  and  O_22
REMARK                            x       y       z     vdW  Elec       q    Type
REMARK                         _______ _______ _______ _____ _____    ______ ____
ROOT
ATOM      1  N   UNL     1      34.961 -23.537 -15.314  0.00  0.00    -0.189 N 
ATOM      2  N   UNL     1      35.365 -22.831 -16.383  0.00  0.00    -0.174 NA
ATOM      3  C   UNL     1      33.086 -22.898 -16.237  0.00  0.00    +0.025 C 
ATOM      4  C   UNL     1      34.216 -22.441 -16.947  0.00  0.00    +0.097 C 
ATOM      5  C   UNL     1      33.605 -23.607 -15.182  0.00  0.00    +0.087 C 
ENDROOT
BRANCH   4   7
ATOM      6 CL   UNL     1      34.264 -19.149 -21.900  0.00  0.00    -0.082 Cl
ATOM      7  C   UNL     1      34.227 -21.646 -18.144  0.00  0.00    +0.019 C 
ATOM      8  C   UNL     1      35.440 -21.221 -18.687  0.00  0.00    +0.002 C 
ATOM      9  C   UNL     1      33.026 -21.300 -18.764  0.00  0.00    +0.002 C 
ATOM     10  C   UNL     1      35.452 -20.447 -19.847  0.00  0.00    +0.011 C 
ATOM     11  C   UNL     1      33.038 -20.528 -19.925  0.00  0.00    +0.011 C 
ATOM     12  C   UNL     1      34.251 -20.102 -20.467  0.00  0.00    +0.058 C 
ENDBRANCH   4   7
BRANCH   1  13
ATOM     13  C   UNL     1      35.892 -24.117 -14.457  0.00  0.00    +0.074 C 
ATOM     14  C   UNL     1      36.161 -25.477 -14.553  0.00  0.00    +0.017 C 
ATOM     15  C   UNL     1      36.547 -23.328 -13.518  0.00  0.00    +0.017 C 
ATOM     16  C   UNL     1      37.097 -26.058 -13.698  0.00  0.00    +0.001 C 
ATOM     17  C   UNL     1      37.482 -23.910 -12.662  0.00  0.00    +0.001 C 
ATOM     18  C   UNL     1      37.758 -25.274 -12.752  0.00  0.00    +0.000 C 
ENDBRANCH   1  13
BRANCH   3  19
ATOM     19  C   UNL     1      31.663 -22.676 -16.544  0.00  0.00    +0.139 C 
BRANCH  19  21
ATOM     20  O   UNL     1      30.577 -22.118 -14.438  0.00  0.00    -0.250 OA
ATOM     21  C   UNL     1      30.728 -22.903 -15.363  0.00  0.00    +0.318 C 
BRANCH  21  22
ATOM     22  O   UNL     1      30.068 -24.089 -15.442  0.00  0.00    -0.480 OA
ATOM     23  H   UNL     1      29.464 -24.243 -16.142  0.00  0.00    +0.295 HD
ENDBRANCH  21  22
ENDBRANCH  19  21
ENDBRANCH   3  19
TORSDOF 5
ENDMDL
MODEL 3
REMARK VINA RESULT:     -10.3      3.686      7.180
REMARK  Name = 68706
REMARK  5 active torsions:
REMARK  status: ('A' for Active; 'I' for Inactive)
REMARK    1  A    between atoms: N_1  and  C_13
REMARK    2  A    between atoms: C_3  and  C_19
REMARK    3  A    between atoms: C_4  and  C_7
REMARK    4  A    between atoms: C_19  and  C_21
REMARK    5  A    between atoms: C_21  and  O_22
REMARK                            x       y       z     vdW  Elec       q    Type
REMARK                         _______ _______ _______ _____ _____    ______ ____
ROOT
ATOM      1  N   UNL     1      31.774 -23.026 -16.194  0.00  0.00    -0.189 N 
ATOM      2  N   UNL     1      31.773 -22.342 -17.351  0.00  0.00    -0.174 NA
ATOM      3  C   UNL     1      33.880 -22.525 -16.487  0.00  0.00    +0.025 C 
ATOM      4  C   UNL     1      33.063 -22.036 -17.528  0.00  0.00    +0.097 C 
ATOM      5  C   UNL     1      33.011 -23.163 -15.636  0.00  0.00    +0.087 C 
ENDROOT
BRANCH   4   7
ATOM      6 CL   UNL     1      34.788 -18.936 -22.301  0.00  0.00    -0.082 Cl
ATOM      7  C   UNL     1      33.480 -21.288 -18.682  0.00  0.00    +0.019 C 
ATOM      8  C   UNL     1      34.833 -21.220 -19.018  0.00  0.00    +0.002 C 
ATOM      9  C   UNL     1      32.532 -20.630 -19.466  0.00  0.00    +0.002 C 
ATOM     10  C   UNL     1      35.237 -20.492 -20.136  0.00  0.00    +0.011 C 
ATOM     11  C   UNL     1      32.937 -19.903 -20.585  0.00  0.00    +0.011 C 
ATOM     12  C   UNL     1      34.289 -19.834 -20.920  0.00  0.00    +0.058 C 
ENDBRANCH   4   7
BRANCH   1  13
ATOM     13  C   UNL     1      30.585 -23.524 -15.666  0.00  0.00    +0.074 C 
ATOM     14  C   UNL     1      30.626 -24.536 -14.715  0.00  0.00    +0.017 C 
ATOM     15  C   UNL     1      29.370 -23.000 -16.094  0.00  0.00    +0.017 C 
ATOM     16  C   UNL     1      29.436 -25.033 -14.183  0.00  0.00    +0.001 C 
ATOM     17  C   UNL     1      28.181 -23.497 -15.563  0.00  0.00    +0.001 C 
ATOM     18  C   UNL     1      28.213 -24.513 -14.608  0.00  0.00    +0.000 C 
ENDBRANCH   1  13
BRANCH   3  19
ATOM     19  C   UNL     1      35.339 -22.390 -16.330  0.00  0.00    +0.139 C 
BRANCH  19  21
ATOM     20  O   UNL     1      35.952 -22.583 -13.982  0.00  0.00    -0.250 OA
ATOM     21  C   UNL     1      35.899 -23.085 -15.096  0.00  0.00    +0.318 C 
BRANCH  21  22
ATOM     22  O   UNL     1      36.344 -24.341 -15.363  0.00  0.00    -0.480 OA
ATOM     23  H   UNL     1      35.998 -25.072 -14.888  0.00  0.00    +0.295 HD
ENDBRANCH  21  22
ENDBRANCH  19  21
ENDBRANCH   3  19
TORSDOF 5
ENDMDL
MODEL 4
REMARK VINA RESULT:     -10.1     10.509     13.664
REMARK  Name = 68706
REMARK  5 active torsions:
REMARK  status: ('A' for Active; 'I' for Inactive)
REMARK    1  A    between atoms: N_1  and  C_13
REMARK    2  A    between atoms: C_3  and  C_19
REMARK    3  A    between atoms: C_4  and  C_7
REMARK    4  A    between atoms: C_19  and  C_21
REMARK    5  A    between atoms: C_21  and  O_22
REMARK                            x       y       z     vdW  Elec       q    Type
REMARK                         _______ _______ _______ _____ _____    ______ ____
ROOT
ATOM      1  N   UNL     1      32.444 -12.010 -22.398  0.00  0.00    -0.189 N 
ATOM      2  N   UNL     1      32.596 -10.914 -23.162  0.00  0.00    -0.174 NA
ATOM      3  C   UNL     1      31.364 -10.466 -21.290  0.00  0.00    +0.025 C 
ATOM      4  C   UNL     1      31.934  -9.971 -22.482  0.00  0.00    +0.097 C 
ATOM      5  C   UNL     1      31.714 -11.794 -21.266  0.00  0.00    +0.087 C 
ENDROOT
BRANCH   4   7
ATOM      6 CL   UNL     1      31.639  -4.409 -24.567  0.00  0.00    -0.082 Cl
ATOM      7  C   UNL     1      31.863  -8.628 -22.986  0.00  0.00    +0.019 C 
ATOM      8  C   UNL     1      33.029  -7.876 -23.135  0.00  0.00    +0.002 C 
ATOM      9  C   UNL     1      30.628  -8.075 -23.327  0.00  0.00    +0.002 C 
ATOM     10  C   UNL     1      32.960  -6.571 -23.623  0.00  0.00    +0.011 C 
ATOM     11  C   UNL     1      30.559  -6.770 -23.816  0.00  0.00    +0.011 C 
ATOM     12  C   UNL     1      31.725  -6.019 -23.964  0.00  0.00    +0.058 C 
ENDBRANCH   4   7
BRANCH   1  13
ATOM     13  C   UNL     1      33.007 -13.223 -22.784  0.00  0.00    +0.074 C 
ATOM     14  C   UNL     1      33.712 -13.980 -21.855  0.00  0.00    +0.017 C 
ATOM     15  C   UNL     1      32.855 -13.667 -24.092  0.00  0.00    +0.017 C 
ATOM     16  C   UNL     1      34.272 -15.198 -22.239  0.00  0.00    +0.001 C 
ATOM     17  C   UNL     1      33.417 -14.884 -24.477  0.00  0.00    +0.001 C 
ATOM     18  C   UNL     1      34.125 -15.650 -23.551  0.00  0.00    +0.000 C 
ENDBRANCH   1  13
BRANCH   3  19
ATOM     19  C   UNL     1      30.569  -9.739 -20.286  0.00  0.00    +0.139 C 
BRANCH  19  21
ATOM     20  O   UNL     1      31.421  -7.517 -19.768  0.00  0.00    -0.250 OA
ATOM     21  C   UNL     1      31.361  -8.708 -19.492  0.00  0.00    +0.318 C 
BRANCH  21  22
ATOM     22  O   UNL     1      32.007  -9.254 -18.428  0.00  0.00    -0.480 OA
ATOM     23  H   UNL     1      32.861  -9.624 -18.538  0.00  0.00    +0.295 HD
ENDBRANCH  21  22
ENDBRANCH  19  21
ENDBRANCH   3  19
TORSDOF 5
ENDMDL
MODEL 5
REMARK VINA RESULT:     -10.1     10.513     13.670
REMARK  Name = 68706
REMARK  5 active torsions:
REMARK  status: ('A' for Active; 'I' for Inactive)
REMARK    1  A    between atoms: N_1  and  C_13
REMARK    2  A    between atoms: C_3  and  C_19
REMARK    3  A    between atoms: C_4  and  C_7
REMARK    4  A    between atoms: C_19  and  C_21
REMARK    5  A    between atoms: C_21  and  O_22
REMARK                            x       y       z     vdW  Elec       q    Type
REMARK                         _______ _______ _______ _____ _____    ______ ____
ROOT
ATOM      1  N   UNL     1      32.425 -12.009 -22.379  0.00  0.00    -0.189 N 
ATOM      2  N   UNL     1      32.560 -10.914 -23.147  0.00  0.00    -0.174 NA
ATOM      3  C   UNL     1      31.346 -10.471 -21.262  0.00  0.00    +0.025 C 
ATOM      4  C   UNL     1      31.899  -9.974 -22.461  0.00  0.00    +0.097 C 
ATOM      5  C   UNL     1      31.707 -11.796 -21.239  0.00  0.00    +0.087 C 
ENDROOT
BRANCH   4   7
ATOM      6 CL   UNL     1      31.537  -4.423 -24.565  0.00  0.00    -0.082 Cl
ATOM      7  C   UNL     1      31.811  -8.633 -22.968  0.00  0.00    +0.019 C 
ATOM      8  C   UNL     1      30.566  -8.086 -23.282  0.00  0.00    +0.002 C 
ATOM      9  C   UNL     1      32.970  -7.877 -23.148  0.00  0.00    +0.002 C 
ATOM     10  C   UNL     1      30.482  -6.784 -23.777  0.00  0.00    +0.011 C 
ATOM     11  C   UNL     1      32.885  -6.576 -23.642  0.00  0.00    +0.011 C 
ATOM     12  C   UNL     1      31.641  -6.029 -23.956  0.00  0.00    +0.058 C 
ENDBRANCH   4   7
BRANCH   1  13
ATOM     13  C   UNL     1      32.993 -13.219 -22.767  0.00  0.00    +0.074 C 
ATOM     14  C   UNL     1      32.840 -13.661 -24.076  0.00  0.00    +0.017 C 
ATOM     15  C   UNL     1      33.712 -13.969 -21.844  0.00  0.00    +0.017 C 
ATOM     16  C   UNL     1      33.413 -14.871 -24.467  0.00  0.00    +0.001 C 
ATOM     17  C   UNL     1      34.283 -15.180 -22.235  0.00  0.00    +0.001 C 
ATOM     18  C   UNL     1      34.134 -15.631 -23.546  0.00  0.00    +0.000 C 
ENDBRANCH   1  13
BRANCH   3  19
ATOM     19  C   UNL     1      30.557  -9.747 -20.251  0.00  0.00    +0.139 C 
BRANCH  19  21
ATOM     20  O   UNL     1      31.436  -7.539 -19.720  0.00  0.00    -0.250 OA
ATOM     21  C   UNL     1      31.357  -8.729 -19.448  0.00  0.00    +0.318 C 
BRANCH  21  22
ATOM     22  O   UNL     1      31.987  -9.287 -18.381  0.00  0.00    -0.480 OA
ATOM     23  H   UNL     1      31.511  -9.840 -17.793  0.00  0.00    +0.295 HD
ENDBRANCH  21  22
ENDBRANCH  19  21
ENDBRANCH   3  19
TORSDOF 5
ENDMDL
MODEL 6
REMARK VINA RESULT:     -10.1      6.169      9.441
REMARK  Name = 68706
REMARK  5 active torsions:
REMARK  status: ('A' for Active; 'I' for Inactive)
REMARK    1  A    between atoms: N_1  and  C_13
REMARK    2  A    between atoms: C_3  and  C_19
REMARK    3  A    between atoms: C_4  and  C_7
REMARK    4  A    between atoms: C_19  and  C_21
REMARK    5  A    between atoms: C_21  and  O_22
REMARK                            x       y       z     vdW  Elec       q    Type
REMARK                         _______ _______ _______ _____ _____    ______ ____
ROOT
ATOM      1  N   UNL     1      34.639 -17.328 -21.611  0.00  0.00    -0.189 N 
ATOM      2  N   UNL     1      34.019 -16.300 -21.006  0.00  0.00    -0.174 NA
ATOM      3  C   UNL     1      34.499 -15.823 -23.189  0.00  0.00    +0.025 C 
ATOM      4  C   UNL     1      33.935 -15.380 -21.974  0.00  0.00    +0.097 C 
ATOM      5  C   UNL     1      34.948 -17.092 -22.918  0.00  0.00    +0.087 C 
ENDROOT
BRANCH   4   7
ATOM      6 CL   UNL     1      31.390 -10.114 -20.896  0.00  0.00    -0.082 Cl
ATOM      7  C   UNL     1      33.321 -14.107 -21.713  0.00  0.00    +0.019 C 
ATOM      8  C   UNL     1      32.531 -13.934 -20.576  0.00  0.00    +0.002 C 
ATOM      9  C   UNL     1      33.513 -13.045 -22.597  0.00  0.00    +0.002 C 
ATOM     10  C   UNL     1      31.933 -12.700 -20.324  0.00  0.00    +0.011 C 
ATOM     11  C   UNL     1      32.916 -11.811 -22.344  0.00  0.00    +0.011 C 
ATOM     12  C   UNL     1      32.126 -11.638 -21.208  0.00  0.00    +0.058 C 
ENDBRANCH   4   7
BRANCH   1  13
ATOM     13  C   UNL     1      34.911 -18.500 -20.910  0.00  0.00    +0.074 C 
ATOM     14  C   UNL     1      33.880 -19.390 -20.632  0.00  0.00    +0.017 C 
ATOM     15  C   UNL     1      36.212 -18.770 -20.501  0.00  0.00    +0.017 C 
ATOM     16  C   UNL     1      34.153 -20.566 -19.934  0.00  0.00    +0.001 C 
ATOM     17  C   UNL     1      36.484 -19.946 -19.802  0.00  0.00    +0.001 C 
ATOM     18  C   UNL     1      35.455 -20.844 -19.518  0.00  0.00    +0.000 C 
ENDBRANCH   1  13
BRANCH   3  19
ATOM     19  C   UNL     1      34.595 -15.099 -24.468  0.00  0.00    +0.139 C 
BRANCH  19  21
ATOM     20  O   UNL     1      32.912 -14.117 -25.928  0.00  0.00    -0.250 OA
ATOM     21  C   UNL     1      33.298 -15.070 -25.266  0.00  0.00    +0.318 C 
BRANCH  21  22
ATOM     22  O   UNL     1      32.599 -16.232 -25.165  0.00  0.00    -0.480 OA
ATOM     23  H   UNL     1      31.844 -16.277 -24.612  0.00  0.00    +0.295 HD
ENDBRANCH  21  22
ENDBRANCH  19  21
ENDBRANCH   3  19
TORSDOF 5
ENDMDL
MODEL 7
REMARK VINA RESULT:      -9.5      5.056      8.572
REMARK  Name = 68706
REMARK  5 active torsions:
REMARK  status: ('A' for Active; 'I' for Inactive)
REMARK    1  A    between atoms: N_1  and  C_13
REMARK    2  A    between atoms: C_3  and  C_19
REMARK    3  A    between atoms: C_4  and  C_7
REMARK    4  A    between atoms: C_19  and  C_21
REMARK    5  A    between atoms: C_21  and  O_22
REMARK                            x       y       z     vdW  Elec       q    Type
REMARK                         _______ _______ _______ _____ _____    ______ ____
ROOT
ATOM      1  N   UNL     1      34.489 -19.144 -21.065  0.00  0.00    -0.189 N 
ATOM      2  N   UNL     1      34.395 -17.830 -20.796  0.00  0.00    -0.174 NA
ATOM      3  C   UNL     1      34.227 -18.242 -23.038  0.00  0.00    +0.025 C 
ATOM      4  C   UNL     1      34.235 -17.280 -22.006  0.00  0.00    +0.097 C 
ATOM      5  C   UNL     1      34.395 -19.442 -22.392  0.00  0.00    +0.087 C 
ENDROOT
BRANCH   4   7
ATOM      6 CL   UNL     1      33.654 -11.388 -22.573  0.00  0.00    -0.082 Cl
ATOM      7  C   UNL     1      34.095 -15.857 -22.143  0.00  0.00    +0.019 C 
ATOM      8  C   UNL     1      33.867 -15.067 -21.016  0.00  0.00    +0.002 C 
ATOM      9  C   UNL     1      34.188 -15.264 -23.403  0.00  0.00    +0.002 C 
ATOM     10  C   UNL     1      33.729 -13.685 -21.149  0.00  0.00    +0.011 C 
ATOM     11  C   UNL     1      34.051 -13.883 -23.535  0.00  0.00    +0.011 C 
ATOM     12  C   UNL     1      33.822 -13.093 -22.408  0.00  0.00    +0.058 C 
ENDBRANCH   4   7
BRANCH   1  13
ATOM     13  C   UNL     1      34.664 -20.064 -20.035  0.00  0.00    +0.074 C 
ATOM     14  C   UNL     1      35.925 -20.241 -19.477  0.00  0.00    +0.017 C 
ATOM     15  C   UNL     1      33.575 -20.793 -19.571  0.00  0.00    +0.017 C 
ATOM     16  C   UNL     1      36.101 -21.160 -18.443  0.00  0.00    +0.001 C 
ATOM     17  C   UNL     1      33.751 -21.713 -18.538  0.00  0.00    +0.001 C 
ATOM     18  C   UNL     1      35.013 -21.896 -17.973  0.00  0.00    +0.000 C 
ENDBRANCH   1  13
BRANCH   3  19
ATOM     19  C   UNL     1      34.076 -18.026 -24.487  0.00  0.00    +0.139 C 
BRANCH  19  21
ATOM     20  O   UNL     1      31.817 -18.760 -25.020  0.00  0.00    -0.250 OA
ATOM     21  C   UNL     1      32.633 -17.852 -24.944  0.00  0.00    +0.318 C 
BRANCH  21  22
ATOM     22  O   UNL     1      32.340 -16.565 -25.265  0.00  0.00    -0.480 OA
ATOM     23  H   UNL     1      32.761 -15.861 -24.810  0.00  0.00    +0.295 HD
ENDBRANCH  21  22
ENDBRANCH  19  21
ENDBRANCH   3  19
TORSDOF 5
ENDMDL
MODEL 8
REMARK VINA RESULT:      -9.5      2.905      4.064
REMARK  Name = 68706
REMARK  5 active torsions:
REMARK  status: ('A' for Active; 'I' for Inactive)
REMARK    1  A    between atoms: N_1  and  C_13
REMARK    2  A    between atoms: C_3  and  C_19
REMARK    3  A    between atoms: C_4  and  C_7
REMARK    4  A    between atoms: C_19  and  C_21
REMARK    5  A    between atoms: C_21  and  O_22
REMARK                            x       y       z     vdW  Elec       q    Type
REMARK                         _______ _______ _______ _____ _____    ______ ____
ROOT
ATOM      1  N   UNL     1      34.657 -19.719 -20.361  0.00  0.00    -0.189 N 
ATOM      2  N   UNL     1      33.577 -20.225 -19.743  0.00  0.00    -0.174 NA
ATOM      3  C   UNL     1      35.514 -20.971 -18.788  0.00  0.00    +0.025 C 
ATOM      4  C   UNL     1      34.103 -20.992 -18.781  0.00  0.00    +0.097 C 
ATOM      5  C   UNL     1      35.841 -20.134 -19.827  0.00  0.00    +0.087 C 
ENDROOT
BRANCH   4   7
ATOM      6 CL   UNL     1      30.567 -24.007 -15.069  0.00  0.00    -0.082 Cl
ATOM      7  C   UNL     1      33.249 -21.721 -17.885  0.00  0.00    +0.019 C 
ATOM      8  C   UNL     1      31.865 -21.568 -17.962  0.00  0.00    +0.002 C 
ATOM      9  C   UNL     1      33.804 -22.582 -16.937  0.00  0.00    +0.002 C 
ATOM     10  C   UNL     1      31.035 -22.274 -17.091  0.00  0.00    +0.011 C 
ATOM     11  C   UNL     1      32.975 -23.288 -16.067  0.00  0.00    +0.011 C 
ATOM     12  C   UNL     1      31.591 -23.134 -16.144  0.00  0.00    +0.058 C 
ENDBRANCH   4   7
BRANCH   1  13
ATOM     13  C   UNL     1      34.512 -18.852 -21.441  0.00  0.00    +0.074 C 
ATOM     14  C   UNL     1      33.938 -19.313 -22.620  0.00  0.00    +0.017 C 
ATOM     15  C   UNL     1      34.938 -17.534 -21.327  0.00  0.00    +0.017 C 
ATOM     16  C   UNL     1      33.789 -18.444 -23.701  0.00  0.00    +0.001 C 
ATOM     17  C   UNL     1      34.790 -16.665 -22.408  0.00  0.00    +0.001 C 
ATOM     18  C   UNL     1      34.215 -17.120 -23.595  0.00  0.00    +0.000 C 
ENDBRANCH   1  13
BRANCH   3  19
ATOM     19  C   UNL     1      36.443 -21.681 -17.892  0.00  0.00    +0.139 C 
BRANCH  19  21
ATOM     20  O   UNL     1      36.795 -21.345 -15.507  0.00  0.00    -0.250 OA
ATOM     21  C   UNL     1      36.826 -20.896 -16.644  0.00  0.00    +0.318 C 
BRANCH  21  22
ATOM     22  O   UNL     1      37.212 -19.624 -16.927  0.00  0.00    -0.480 OA
ATOM     23  H   UNL     1      37.944 -19.472 -17.492  0.00  0.00    +0.295 HD
ENDBRANCH  21  22
ENDBRANCH  19  21
ENDBRANCH   3  19
TORSDOF 5
ENDMDL
MODEL 9
REMARK VINA RESULT:      -9.4     11.074     14.309
REMARK  Name = 68706
REMARK  5 active torsions:
REMARK  status: ('A' for Active; 'I' for Inactive)
REMARK    1  A    between atoms: N_1  and  C_13
REMARK    2  A    between atoms: C_3  and  C_19
REMARK    3  A    between atoms: C_4  and  C_7
REMARK    4  A    between atoms: C_19  and  C_21
REMARK    5  A    between atoms: C_21  and  O_22
REMARK                            x       y       z     vdW  Elec       q    Type
REMARK                         _______ _______ _______ _____ _____    ______ ____
ROOT
ATOM      1  N   UNL     1      32.610 -11.198 -22.784  0.00  0.00    -0.189 N 
ATOM      2  N   UNL     1      32.958 -10.128 -23.520  0.00  0.00    -0.174 NA
ATOM      3  C   UNL     1      31.745  -9.522 -21.681  0.00  0.00    +0.025 C 
ATOM      4  C   UNL     1      32.427  -9.103 -22.843  0.00  0.00    +0.097 C 
ATOM      5  C   UNL     1      31.883 -10.888 -21.673  0.00  0.00    +0.087 C 
ENDROOT
BRANCH   4   7
ATOM      6 CL   UNL     1      33.073  -3.532 -24.822  0.00  0.00    -0.082 Cl
ATOM      7  C   UNL     1      32.583  -7.758 -23.321  0.00  0.00    +0.019 C 
ATOM      8  C   UNL     1      33.723  -7.026 -22.985  0.00  0.00    +0.002 C 
ATOM      9  C   UNL     1      31.596  -7.182 -24.122  0.00  0.00    +0.002 C 
ATOM     10  C   UNL     1      33.874  -5.719 -23.448  0.00  0.00    +0.011 C 
ATOM     11  C   UNL     1      31.748  -5.876 -24.586  0.00  0.00    +0.011 C 
ATOM     12  C   UNL     1      32.887  -5.145 -24.249  0.00  0.00    +0.058 C 
ENDBRANCH   4   7
BRANCH   1  13
ATOM     13  C   UNL     1      32.992 -12.478 -23.176  0.00  0.00    +0.074 C 
ATOM     14  C   UNL     1      32.748 -12.900 -24.478  0.00  0.00    +0.017 C 
ATOM     15  C   UNL     1      33.616 -13.319 -22.262  0.00  0.00    +0.017 C 
ATOM     16  C   UNL     1      33.133 -14.181 -24.872  0.00  0.00    +0.001 C 
ATOM     17  C   UNL     1      34.000 -14.601 -22.656  0.00  0.00    +0.001 C 
ATOM     18  C   UNL     1      33.760 -15.032 -23.961  0.00  0.00    +0.000 C 
ENDBRANCH   1  13
BRANCH   3  19
ATOM     19  C   UNL     1      31.037  -8.694 -20.689  0.00  0.00    +0.139 C 
BRANCH  19  21
ATOM     20  O   UNL     1      32.298  -6.859 -19.705  0.00  0.00    -0.250 OA
ATOM     21  C   UNL     1      31.950  -8.031 -19.666  0.00  0.00    +0.318 C 
BRANCH  21  22
ATOM     22  O   UNL     1      32.347  -8.888 -18.689  0.00  0.00    -0.480 OA
ATOM     23  H   UNL     1      32.894  -9.619 -18.901  0.00  0.00    +0.295 HD
ENDBRANCH  21  22
ENDBRANCH  19  21
ENDBRANCH   3  19
TORSDOF 5
ENDMDL
