MODEL 1
REMARK VINA RESULT:     -12.6      0.000      0.000
REMARK  Name = 59473233
REMARK  3 active torsions:
REMARK  status: ('A' for Active; 'I' for Inactive)
REMARK    1  A    between atoms: N_1  and  C_25
REMARK    2  A    between atoms: C_7  and  C_14
REMARK    3  A    between atoms: C_22  and  N_29
REMARK                            x       y       z     vdW  Elec       q    Type
REMARK                         _______ _______ _______ _____ _____    ______ ____
ROOT
ATOM      1  N   UNL     1      36.256 -22.422 -16.024  0.00  0.00    -0.286 N 
ATOM      2  N   UNL     1      34.942 -23.208 -12.655  0.00  0.00    -0.260 N 
ATOM      3  N   UNL     1      34.101 -22.923 -15.277  0.00  0.00    -0.387 NA
ATOM      4  N   UNL     1      37.059 -22.755 -13.191  0.00  0.00    -0.224 NA
ATOM      5  C   UNL     1      35.380 -22.744 -15.014  0.00  0.00    +0.216 C 
ATOM      6  C   UNL     1      35.835 -22.892 -13.646  0.00  0.00    +0.180 C 
ATOM      7  C   UNL     1      33.220 -23.251 -14.246  0.00  0.00    +0.131 C 
ATOM      8  C   UNL     1      33.608 -23.389 -12.958  0.00  0.00    +0.156 C 
ATOM      9  C   UNL     1      35.644 -23.276 -11.485  0.00  0.00    +0.088 C 
ATOM     10  C   UNL     1      36.945 -22.993 -11.841  0.00  0.00    +0.117 C 
ATOM     11  H   UNL     1      37.186 -22.729 -15.917  0.00  0.00    +0.155 HD
ENDROOT
BRANCH   7  14
ATOM     12  N   UNL     1      29.077 -22.288 -16.865  0.00  0.00    -0.236 N 
ATOM     13  N   UNL     1      27.817 -22.756 -16.849  0.00  0.00    -0.180 NA
ATOM     14  C   UNL     1      31.795 -23.426 -14.605  0.00  0.00    +0.028 C 
ATOM     15  C   UNL     1      29.901 -22.861 -15.935  0.00  0.00    +0.067 C 
ATOM     16  C   UNL     1      31.249 -22.655 -15.637  0.00  0.00    +0.018 C 
ATOM     17  C   UNL     1      29.107 -23.781 -15.259  0.00  0.00    +0.035 C 
ATOM     18  C   UNL     1      31.020 -24.355 -13.909  0.00  0.00    +0.002 C 
ATOM     19  C   UNL     1      29.669 -24.547 -14.224  0.00  0.00    +0.003 C 
ATOM     20  C   UNL     1      27.839 -23.663 -15.870  0.00  0.00    +0.119 C 
ATOM     21  H   UNL     1      29.379 -21.592 -17.492  0.00  0.00    +0.174 HD
ENDBRANCH   7  14
BRANCH   1  25
ATOM     22  C   UNL     1      35.384 -20.275 -19.505  0.00  0.00    +0.048 C 
ATOM     23  C   UNL     1      36.484 -19.920 -18.724  0.00  0.00    +0.016 C 
ATOM     24  C   UNL     1      34.575 -21.345 -19.124  0.00  0.00    +0.016 C 
ATOM     25  C   UNL     1      35.965 -21.706 -17.182  0.00  0.00    +0.050 C 
ATOM     26  C   UNL     1      36.775 -20.636 -17.562  0.00  0.00    +0.016 C 
ATOM     27  C   UNL     1      34.864 -22.060 -17.963  0.00  0.00    +0.016 C 
BRANCH  22  29
ATOM     28  O   UNL     1      34.441 -17.900 -22.843  0.00  0.00    -0.350 OA
ATOM     29  N   UNL     1      35.093 -19.557 -20.670  0.00  0.00    -0.303 N 
ATOM     30  C   UNL     1      35.932 -18.396 -20.997  0.00  0.00    +0.123 C 
ATOM     31  C   UNL     1      33.712 -19.487 -21.160  0.00  0.00    +0.123 C 
ATOM     32  C   UNL     1      35.811 -18.075 -22.482  0.00  0.00    +0.164 C 
ATOM     33  C   UNL     1      33.708 -19.106 -22.637  0.00  0.00    +0.164 C 
ENDBRANCH  22  29
ENDBRANCH   1  25
TORSDOF 3
ENDMDL
MODEL 2
REMARK VINA RESULT:     -12.2      1.156      1.375
REMARK  Name = 59473233
REMARK  3 active torsions:
REMARK  status: ('A' for Active; 'I' for Inactive)
REMARK    1  A    between atoms: N_1  and  C_25
REMARK    2  A    between atoms: C_7  and  C_14
REMARK    3  A    between atoms: C_22  and  N_29
REMARK                            x       y       z     vdW  Elec       q    Type
REMARK                         _______ _______ _______ _____ _____    ______ ____
ROOT
ATOM      1  N   UNL     1      35.160 -22.911 -16.493  0.00  0.00    -0.286 N 
ATOM      2  N   UNL     1      33.750 -23.524 -13.126  0.00  0.00    -0.260 N 
ATOM      3  N   UNL     1      32.971 -22.805 -15.683  0.00  0.00    -0.387 NA
ATOM      4  N   UNL     1      35.892 -23.681 -13.726  0.00  0.00    -0.224 NA
ATOM      5  C   UNL     1      34.251 -23.034 -15.467  0.00  0.00    +0.216 C 
ATOM      6  C   UNL     1      34.673 -23.414 -14.133  0.00  0.00    +0.180 C 
ATOM      7  C   UNL     1      32.058 -22.933 -14.637  0.00  0.00    +0.131 C 
ATOM      8  C   UNL     1      32.416 -23.278 -13.380  0.00  0.00    +0.156 C 
ATOM      9  C   UNL     1      34.426 -23.887 -11.996  0.00  0.00    +0.088 C 
ATOM     10  C   UNL     1      35.744 -23.977 -12.391  0.00  0.00    +0.117 C 
ATOM     11  H   UNL     1      35.956 -23.488 -16.448  0.00  0.00    +0.155 HD
ENDROOT
BRANCH   7  14
ATOM     12  N   UNL     1      27.936 -23.066 -17.458  0.00  0.00    -0.236 N 
ATOM     13  N   UNL     1      26.679 -22.613 -17.317  0.00  0.00    -0.180 NA
ATOM     14  C   UNL     1      30.637 -22.650 -14.942  0.00  0.00    +0.028 C 
ATOM     15  C   UNL     1      28.754 -22.790 -16.395  0.00  0.00    +0.067 C 
ATOM     16  C   UNL     1      30.099 -23.083 -16.158  0.00  0.00    +0.018 C 
ATOM     17  C   UNL     1      27.957 -22.102 -15.488  0.00  0.00    +0.035 C 
ATOM     18  C   UNL     1      29.859 -21.955 -14.014  0.00  0.00    +0.002 C 
ATOM     19  C   UNL     1      28.512 -21.671 -14.271  0.00  0.00    +0.003 C 
ATOM     20  C   UNL     1      26.696 -22.027 -16.118  0.00  0.00    +0.119 C 
ATOM     21  H   UNL     1      28.243 -23.552 -18.257  0.00  0.00    +0.174 HD
ENDBRANCH   7  14
BRANCH   1  25
ATOM     22  C   UNL     1      34.888 -20.345 -19.783  0.00  0.00    +0.048 C 
ATOM     23  C   UNL     1      36.070 -20.408 -19.044  0.00  0.00    +0.016 C 
ATOM     24  C   UNL     1      33.798 -21.137 -19.424  0.00  0.00    +0.016 C 
ATOM     25  C   UNL     1      35.069 -22.055 -17.587  0.00  0.00    +0.050 C 
ATOM     26  C   UNL     1      36.160 -21.264 -17.945  0.00  0.00    +0.016 C 
ATOM     27  C   UNL     1      33.887 -21.992 -18.326  0.00  0.00    +0.016 C 
BRANCH  22  29
ATOM     28  O   UNL     1      34.515 -17.571 -22.920  0.00  0.00    -0.350 OA
ATOM     29  N   UNL     1      34.798 -19.487 -20.884  0.00  0.00    -0.303 N 
ATOM     30  C   UNL     1      35.651 -18.291 -20.903  0.00  0.00    +0.123 C 
ATOM     31  C   UNL     1      33.530 -19.361 -21.612  0.00  0.00    +0.123 C 
ATOM     32  C   UNL     1      35.798 -17.785 -22.333  0.00  0.00    +0.164 C 
ATOM     33  C   UNL     1      33.790 -18.797 -23.004  0.00  0.00    +0.164 C 
ENDBRANCH  22  29
ENDBRANCH   1  25
TORSDOF 3
ENDMDL
MODEL 3
REMARK VINA RESULT:     -11.7      1.053      1.629
REMARK  Name = 59473233
REMARK  3 active torsions:
REMARK  status: ('A' for Active; 'I' for Inactive)
REMARK    1  A    between atoms: N_1  and  C_25
REMARK    2  A    between atoms: C_7  and  C_14
REMARK    3  A    between atoms: C_22  and  N_29
REMARK                            x       y       z     vdW  Elec       q    Type
REMARK                         _______ _______ _______ _____ _____    ______ ____
ROOT
ATOM      1  N   UNL     1      36.562 -22.341 -15.995  0.00  0.00    -0.286 N 
ATOM      2  N   UNL     1      35.318 -23.176 -12.611  0.00  0.00    -0.260 N 
ATOM      3  N   UNL     1      34.427 -22.879 -15.215  0.00  0.00    -0.387 NA
ATOM      4  N   UNL     1      37.418 -22.688 -13.179  0.00  0.00    -0.224 NA
ATOM      5  C   UNL     1      35.708 -22.684 -14.973  0.00  0.00    +0.216 C 
ATOM      6  C   UNL     1      36.189 -22.839 -13.614  0.00  0.00    +0.180 C 
ATOM      7  C   UNL     1      33.569 -23.228 -14.172  0.00  0.00    +0.131 C 
ATOM      8  C   UNL     1      33.981 -23.373 -12.892  0.00  0.00    +0.156 C 
ATOM      9  C   UNL     1      36.041 -23.245 -11.454  0.00  0.00    +0.088 C 
ATOM     10  C   UNL     1      37.332 -22.941 -11.830  0.00  0.00    +0.117 C 
ATOM     11  H   UNL     1      37.497 -22.637 -15.907  0.00  0.00    +0.155 HD
ENDROOT
BRANCH   7  14
ATOM     12  N   UNL     1      29.062 -25.324 -13.675  0.00  0.00    -0.236 N 
ATOM     13  N   UNL     1      27.874 -25.168 -14.284  0.00  0.00    -0.180 NA
ATOM     14  C   UNL     1      32.141 -23.421 -14.507  0.00  0.00    +0.028 C 
ATOM     15  C   UNL     1      30.051 -24.509 -14.156  0.00  0.00    +0.067 C 
ATOM     16  C   UNL     1      31.393 -24.368 -13.800  0.00  0.00    +0.018 C 
ATOM     17  C   UNL     1      29.451 -23.760 -15.163  0.00  0.00    +0.035 C 
ATOM     18  C   UNL     1      31.564 -22.657 -15.523  0.00  0.00    +0.002 C 
ATOM     19  C   UNL     1      30.215 -22.813 -15.865  0.00  0.00    +0.003 C 
ATOM     20  C   UNL     1      28.115 -24.216 -15.188  0.00  0.00    +0.119 C 
ATOM     21  H   UNL     1      29.208 -25.969 -12.946  0.00  0.00    +0.174 HD
ENDBRANCH   7  14
BRANCH   1  25
ATOM     22  C   UNL     1      35.594 -20.169 -19.434  0.00  0.00    +0.048 C 
ATOM     23  C   UNL     1      34.892 -21.334 -19.125  0.00  0.00    +0.016 C 
ATOM     24  C   UNL     1      36.619 -19.729 -18.597  0.00  0.00    +0.016 C 
ATOM     25  C   UNL     1      36.241 -21.619 -17.141  0.00  0.00    +0.050 C 
ATOM     26  C   UNL     1      35.215 -22.060 -17.977  0.00  0.00    +0.016 C 
ATOM     27  C   UNL     1      36.943 -20.454 -17.451  0.00  0.00    +0.016 C 
BRANCH  22  29
ATOM     28  O   UNL     1      34.527 -17.779 -22.725  0.00  0.00    -0.350 OA
ATOM     29  N   UNL     1      35.269 -19.442 -20.584  0.00  0.00    -0.303 N 
ATOM     30  C   UNL     1      36.010 -18.203 -20.854  0.00  0.00    +0.123 C 
ATOM     31  C   UNL     1      33.899 -19.477 -21.110  0.00  0.00    +0.123 C 
ATOM     32  C   UNL     1      35.897 -17.846 -22.331  0.00  0.00    +0.164 C 
ATOM     33  C   UNL     1      33.898 -19.051 -22.574  0.00  0.00    +0.164 C 
ENDBRANCH  22  29
ENDBRANCH   1  25
TORSDOF 3
ENDMDL
MODEL 4
REMARK VINA RESULT:      -9.8      2.545      7.088
REMARK  Name = 59473233
REMARK  3 active torsions:
REMARK  status: ('A' for Active; 'I' for Inactive)
REMARK    1  A    between atoms: N_1  and  C_25
REMARK    2  A    between atoms: C_7  and  C_14
REMARK    3  A    between atoms: C_22  and  N_29
REMARK                            x       y       z     vdW  Elec       q    Type
REMARK                         _______ _______ _______ _____ _____    ______ ____
ROOT
ATOM      1  N   UNL     1      33.405 -23.437 -13.057  0.00  0.00    -0.286 N 
ATOM      2  N   UNL     1      36.942 -24.149 -13.882  0.00  0.00    -0.260 N 
ATOM      3  N   UNL     1      34.810 -22.595 -14.723  0.00  0.00    -0.387 NA
ATOM      4  N   UNL     1      35.748 -25.054 -12.231  0.00  0.00    -0.224 NA
ATOM      5  C   UNL     1      34.627 -23.391 -13.687  0.00  0.00    +0.216 C 
ATOM      6  C   UNL     1      35.736 -24.208 -13.235  0.00  0.00    +0.180 C 
ATOM      7  C   UNL     1      36.054 -22.555 -15.354  0.00  0.00    +0.131 C 
ATOM      8  C   UNL     1      37.107 -23.308 -14.964  0.00  0.00    +0.156 C 
ATOM      9  C   UNL     1      37.784 -25.018 -13.248  0.00  0.00    +0.088 C 
ATOM     10  C   UNL     1      37.025 -25.563 -12.234  0.00  0.00    +0.117 C 
ATOM     11  H   UNL     1      33.412 -23.647 -12.095  0.00  0.00    +0.155 HD
ENDROOT
BRANCH   7  14
ATOM     12  N   UNL     1      34.983 -20.933 -19.956  0.00  0.00    -0.236 N 
ATOM     13  N   UNL     1      35.416 -19.921 -20.727  0.00  0.00    -0.180 NA
ATOM     14  C   UNL     1      36.191 -21.651 -16.518  0.00  0.00    +0.028 C 
ATOM     15  C   UNL     1      35.578 -20.995 -18.725  0.00  0.00    +0.067 C 
ATOM     16  C   UNL     1      35.409 -21.878 -17.656  0.00  0.00    +0.018 C 
ATOM     17  C   UNL     1      36.472 -19.931 -18.696  0.00  0.00    +0.035 C 
ATOM     18  C   UNL     1      37.097 -20.591 -16.463  0.00  0.00    +0.002 C 
ATOM     19  C   UNL     1      37.251 -19.717 -17.546  0.00  0.00    +0.003 C 
ATOM     20  C   UNL     1      36.321 -19.314 -19.957  0.00  0.00    +0.119 C 
ATOM     21  H   UNL     1      34.298 -21.575 -20.253  0.00  0.00    +0.174 HD
ENDBRANCH   7  14
BRANCH   1  25
ATOM     22  C   UNL     1      29.664 -22.773 -14.805  0.00  0.00    +0.048 C 
ATOM     23  C   UNL     1      29.749 -23.227 -13.488  0.00  0.00    +0.016 C 
ATOM     24  C   UNL     1      30.828 -22.541 -15.537  0.00  0.00    +0.016 C 
ATOM     25  C   UNL     1      32.160 -23.218 -13.639  0.00  0.00    +0.050 C 
ATOM     26  C   UNL     1      30.997 -23.450 -12.905  0.00  0.00    +0.016 C 
ATOM     27  C   UNL     1      32.075 -22.763 -14.956  0.00  0.00    +0.016 C 
BRANCH  22  29
ATOM     28  O   UNL     1      26.014 -21.885 -16.692  0.00  0.00    -0.350 OA
ATOM     29  N   UNL     1      28.413 -22.550 -15.389  0.00  0.00    -0.303 N 
ATOM     30  C   UNL     1      28.287 -22.717 -16.843  0.00  0.00    +0.123 C 
ATOM     31  C   UNL     1      27.487 -21.584 -14.788  0.00  0.00    +0.123 C 
ATOM     32  C   UNL     1      26.825 -22.939 -17.210  0.00  0.00    +0.164 C 
ATOM     33  C   UNL     1      26.067 -21.865 -15.267  0.00  0.00    +0.164 C 
ENDBRANCH  22  29
ENDBRANCH   1  25
TORSDOF 3
ENDMDL
