MODEL 1
REMARK VINA RESULT:     -11.8      0.000      0.000
REMARK  Name = 71919
REMARK  6 active torsions:
REMARK  status: ('A' for Active; 'I' for Inactive)
REMARK    1  A    between atoms: N_1  and  C_15
REMARK    2  A    between atoms: N_2  and  C_9
REMARK    3  A    between atoms: C_15  and  C_16
REMARK    4  A    between atoms: C_16  and  C_17
REMARK    5  A    between atoms: C_17  and  N_20
REMARK    6  A    between atoms: C_21  and  C_24
REMARK                            x       y       z     vdW  Elec       q    Type
REMARK                         _______ _______ _______ _____ _____    ______ ____
ROOT
ATOM      1  N   UNL     1      34.274 -15.081 -22.802  0.00  0.00    +0.389 N 
ATOM      2  N   UNL     1      32.842 -12.641 -22.408  0.00  0.00    -0.312 N 
ATOM      3  C   UNL     1      33.328 -14.604 -23.818  0.00  0.00    -0.055 C 
ATOM      4  C   UNL     1      33.803 -14.704 -21.463  0.00  0.00    -0.055 C 
ATOM      5  C   UNL     1      33.189 -13.080 -23.766  0.00  0.00    +0.068 C 
ATOM      6  C   UNL     1      33.678 -13.183 -21.333  0.00  0.00    +0.068 C 
ATOM      7  H   UNL     1      35.183 -14.645 -22.966  0.00  0.00    -0.080 HD
ENDROOT
BRANCH   2   9
ATOM      8  F   UNL     1      30.473  -7.651 -21.805  0.00  0.00    -0.204 F 
ATOM      9  C   UNL     1      32.245 -11.385 -22.257  0.00  0.00    +0.048 C 
ATOM     10  C   UNL     1      32.494 -10.347 -23.178  0.00  0.00    +0.017 C 
ATOM     11  C   UNL     1      31.377 -11.119 -21.179  0.00  0.00    +0.017 C 
ATOM     12  C   UNL     1      31.899  -9.094 -23.026  0.00  0.00    +0.031 C 
ATOM     13  C   UNL     1      30.782  -9.866 -21.027  0.00  0.00    +0.031 C 
ATOM     14  C   UNL     1      31.044  -8.854 -21.951  0.00  0.00    +0.140 C 
ENDBRANCH   2   9
BRANCH   1  15
ATOM     15  C   UNL     1      34.441 -16.531 -22.896  0.00  0.00    -0.076 C 
BRANCH  15  16
ATOM     16  C   UNL     1      34.882 -17.103 -21.546  0.00  0.00    -0.003 C 
BRANCH  16  17
ATOM     17  C   UNL     1      35.634 -18.433 -21.691  0.00  0.00    +0.070 C 
ATOM     18  C   UNL     1      37.142 -18.206 -21.692  0.00  0.00    +0.021 C 
BRANCH  17  20
ATOM     19  O   UNL     1      33.098 -19.727 -21.321  0.00  0.00    -0.270 OA
ATOM     20  N   UNL     1      35.282 -19.355 -20.636  0.00  0.00    -0.303 N 
ATOM     21  C   UNL     1      34.024 -19.932 -20.541  0.00  0.00    +0.247 C 
ATOM     22  H   UNL     1      35.960 -19.583 -19.960  0.00  0.00    +0.150 HD
BRANCH  21  24
ATOM     23  N   UNL     1      34.766 -22.180 -17.653  0.00  0.00    -0.242 NA
ATOM     24  C   UNL     1      33.812 -20.838 -19.385  0.00  0.00    +0.072 C 
ATOM     25  C   UNL     1      32.535 -21.158 -18.991  0.00  0.00    +0.008 C 
ATOM     26  C   UNL     1      34.890 -21.350 -18.713  0.00  0.00    +0.103 C 
ATOM     27  C   UNL     1      32.369 -22.009 -17.904  0.00  0.00    +0.021 C 
ATOM     28  C   UNL     1      33.506 -22.488 -17.275  0.00  0.00    +0.099 C 
ENDBRANCH  21  24
ENDBRANCH  17  20
ENDBRANCH  16  17
ENDBRANCH  15  16
ENDBRANCH   1  15
TORSDOF 6
ENDMDL
MODEL 2
REMARK VINA RESULT:     -11.6      4.701     10.979
REMARK  Name = 71919
REMARK  6 active torsions:
REMARK  status: ('A' for Active; 'I' for Inactive)
REMARK    1  A    between atoms: N_1  and  C_15
REMARK    2  A    between atoms: N_2  and  C_9
REMARK    3  A    between atoms: C_15  and  C_16
REMARK    4  A    between atoms: C_16  and  C_17
REMARK    5  A    between atoms: C_17  and  N_20
REMARK    6  A    between atoms: C_21  and  C_24
REMARK                            x       y       z     vdW  Elec       q    Type
REMARK                         _______ _______ _______ _____ _____    ______ ____
ROOT
ATOM      1  N   UNL     1      34.868 -20.516 -19.292  0.00  0.00    +0.389 N 
ATOM      2  N   UNL     1      35.250 -22.142 -16.974  0.00  0.00    -0.312 N 
ATOM      3  C   UNL     1      34.046 -21.715 -19.081  0.00  0.00    -0.055 C 
ATOM      4  C   UNL     1      36.215 -20.733 -18.750  0.00  0.00    -0.055 C 
ATOM      5  C   UNL     1      33.922 -22.041 -17.591  0.00  0.00    +0.068 C 
ATOM      6  C   UNL     1      36.164 -21.029 -17.249  0.00  0.00    +0.068 C 
ATOM      7  H   UNL     1      34.438 -19.731 -18.800  0.00  0.00    -0.080 HD
ENDROOT
BRANCH   2   9
ATOM      8  F   UNL     1      35.707 -24.968 -12.212  0.00  0.00    -0.204 F 
ATOM      9  C   UNL     1      35.366 -22.854 -15.776  0.00  0.00    +0.048 C 
ATOM     10  C   UNL     1      34.229 -23.398 -15.142  0.00  0.00    +0.017 C 
ATOM     11  C   UNL     1      36.620 -23.049 -15.165  0.00  0.00    +0.017 C 
ATOM     12  C   UNL     1      34.344 -24.107 -13.946  0.00  0.00    +0.031 C 
ATOM     13  C   UNL     1      36.735 -23.759 -13.969  0.00  0.00    +0.031 C 
ATOM     14  C   UNL     1      35.597 -24.287 -13.359  0.00  0.00    +0.140 C 
ENDBRANCH   2   9
BRANCH   1  15
ATOM     15  C   UNL     1      34.935 -20.183 -20.714  0.00  0.00    -0.076 C 
BRANCH  15  16
ATOM     16  C   UNL     1      34.239 -18.845 -20.978  0.00  0.00    -0.003 C 
BRANCH  16  17
ATOM     17  C   UNL     1      35.234 -17.720 -21.300  0.00  0.00    +0.070 C 
ATOM     18  C   UNL     1      36.583 -18.294 -21.721  0.00  0.00    +0.021 C 
BRANCH  17  20
ATOM     19  O   UNL     1      34.294 -15.027 -20.973  0.00  0.00    -0.270 OA
ATOM     20  N   UNL     1      34.730 -16.852 -22.337  0.00  0.00    -0.303 N 
ATOM     21  C   UNL     1      34.296 -15.559 -22.080  0.00  0.00    +0.247 C 
ATOM     22  H   UNL     1      34.693 -17.189 -23.261  0.00  0.00    +0.150 HD
BRANCH  21  24
ATOM     23  N   UNL     1      33.149 -14.808 -25.554  0.00  0.00    -0.242 NA
ATOM     24  C   UNL     1      33.781 -14.803 -23.249  0.00  0.00    +0.072 C 
ATOM     25  C   UNL     1      33.474 -13.470 -23.120  0.00  0.00    +0.008 C 
ATOM     26  C   UNL     1      33.613 -15.437 -24.450  0.00  0.00    +0.103 C 
ATOM     27  C   UNL     1      32.994 -12.789 -24.234  0.00  0.00    +0.021 C 
ATOM     28  C   UNL     1      32.850 -13.497 -25.416  0.00  0.00    +0.099 C 
ENDBRANCH  21  24
ENDBRANCH  17  20
ENDBRANCH  16  17
ENDBRANCH  15  16
ENDBRANCH   1  15
TORSDOF 6
ENDMDL
MODEL 3
REMARK VINA RESULT:     -11.6      4.354     10.251
REMARK  Name = 71919
REMARK  6 active torsions:
REMARK  status: ('A' for Active; 'I' for Inactive)
REMARK    1  A    between atoms: N_1  and  C_15
REMARK    2  A    between atoms: N_2  and  C_9
REMARK    3  A    between atoms: C_15  and  C_16
REMARK    4  A    between atoms: C_16  and  C_17
REMARK    5  A    between atoms: C_17  and  N_20
REMARK    6  A    between atoms: C_21  and  C_24
REMARK                            x       y       z     vdW  Elec       q    Type
REMARK                         _______ _______ _______ _____ _____    ______ ____
ROOT
ATOM      1  N   UNL     1      34.459 -21.044 -19.811  0.00  0.00    +0.389 N 
ATOM      2  N   UNL     1      32.843 -21.882 -17.610  0.00  0.00    -0.312 N 
ATOM      3  C   UNL     1      35.081 -21.436 -18.540  0.00  0.00    -0.055 C 
ATOM      4  C   UNL     1      33.162 -20.405 -19.556  0.00  0.00    -0.055 C 
ATOM      5  C   UNL     1      34.196 -22.427 -17.779  0.00  0.00    +0.068 C 
ATOM      6  C   UNL     1      32.213 -21.360 -18.827  0.00  0.00    +0.068 C 
ATOM      7  H   UNL     1      34.309 -21.880 -20.377  0.00  0.00    -0.080 HD
ENDROOT
BRANCH   2   9
ATOM      8  F   UNL     1      29.679 -23.974 -13.549  0.00  0.00    -0.204 F 
ATOM      9  C   UNL     1      32.046 -22.408 -16.587  0.00  0.00    +0.048 C 
ATOM     10  C   UNL     1      32.626 -23.001 -15.447  0.00  0.00    +0.017 C 
ATOM     11  C   UNL     1      30.640 -22.362 -16.666  0.00  0.00    +0.017 C 
ATOM     12  C   UNL     1      31.832 -23.527 -14.428  0.00  0.00    +0.031 C 
ATOM     13  C   UNL     1      29.845 -22.888 -15.646  0.00  0.00    +0.031 C 
ATOM     14  C   UNL     1      30.441 -23.470 -14.528  0.00  0.00    +0.140 C 
ENDBRANCH   2   9
BRANCH   1  15
ATOM     15  C   UNL     1      35.337 -20.141 -20.555  0.00  0.00    -0.076 C 
BRANCH  15  16
ATOM     16  C   UNL     1      34.549 -18.926 -21.051  0.00  0.00    -0.003 C 
BRANCH  16  17
ATOM     17  C   UNL     1      35.453 -17.717 -21.334  0.00  0.00    +0.070 C 
ATOM     18  C   UNL     1      36.851 -18.169 -21.743  0.00  0.00    +0.021 C 
BRANCH  17  20
ATOM     19  O   UNL     1      34.352 -15.089 -20.978  0.00  0.00    -0.270 OA
ATOM     20  N   UNL     1      34.895 -16.871 -22.361  0.00  0.00    -0.303 N 
ATOM     21  C   UNL     1      34.384 -15.609 -22.091  0.00  0.00    +0.247 C 
ATOM     22  H   UNL     1      34.876 -17.200 -23.289  0.00  0.00    +0.150 HD
BRANCH  21  24
ATOM     23  N   UNL     1      33.171 -14.900 -25.551  0.00  0.00    -0.242 NA
ATOM     24  C   UNL     1      33.822 -14.875 -23.252  0.00  0.00    +0.072 C 
ATOM     25  C   UNL     1      33.449 -13.560 -23.114  0.00  0.00    +0.008 C 
ATOM     26  C   UNL     1      33.676 -15.511 -24.455  0.00  0.00    +0.103 C 
ATOM     27  C   UNL     1      32.926 -12.898 -24.219  0.00  0.00    +0.021 C 
ATOM     28  C   UNL     1      32.808 -13.607 -25.404  0.00  0.00    +0.099 C 
ENDBRANCH  21  24
ENDBRANCH  17  20
ENDBRANCH  16  17
ENDBRANCH  15  16
ENDBRANCH   1  15
TORSDOF 6
ENDMDL
MODEL 4
REMARK VINA RESULT:     -11.3      3.771      9.640
REMARK  Name = 71919
REMARK  6 active torsions:
REMARK  status: ('A' for Active; 'I' for Inactive)
REMARK    1  A    between atoms: N_1  and  C_15
REMARK    2  A    between atoms: N_2  and  C_9
REMARK    3  A    between atoms: C_15  and  C_16
REMARK    4  A    between atoms: C_16  and  C_17
REMARK    5  A    between atoms: C_17  and  N_20
REMARK    6  A    between atoms: C_21  and  C_24
REMARK                            x       y       z     vdW  Elec       q    Type
REMARK                         _______ _______ _______ _____ _____    ______ ____
ROOT
ATOM      1  N   UNL     1      34.596 -16.532 -23.519  0.00  0.00    +0.389 N 
ATOM      2  N   UNL     1      34.276 -18.586 -21.560  0.00  0.00    -0.312 N 
ATOM      3  C   UNL     1      34.562 -16.197 -22.090  0.00  0.00    -0.055 C 
ATOM      4  C   UNL     1      33.720 -17.682 -23.782  0.00  0.00    -0.055 C 
ATOM      5  C   UNL     1      35.041 -17.375 -21.238  0.00  0.00    +0.068 C 
ATOM      6  C   UNL     1      34.169 -18.909 -22.986  0.00  0.00    +0.068 C 
ATOM      7  H   UNL     1      35.551 -16.780 -23.777  0.00  0.00    -0.080 HD
ENDROOT
BRANCH   2   9
ATOM      8  F   UNL     1      34.153 -22.667 -17.789  0.00  0.00    -0.204 F 
ATOM      9  C   UNL     1      34.245 -19.614 -20.611  0.00  0.00    +0.048 C 
ATOM     10  C   UNL     1      33.022 -20.159 -20.171  0.00  0.00    +0.017 C 
ATOM     11  C   UNL     1      35.436 -20.135 -20.066  0.00  0.00    +0.017 C 
ATOM     12  C   UNL     1      32.991 -21.183 -19.224  0.00  0.00    +0.031 C 
ATOM     13  C   UNL     1      35.405 -21.160 -19.119  0.00  0.00    +0.031 C 
ATOM     14  C   UNL     1      34.183 -21.684 -18.698  0.00  0.00    +0.140 C 
ENDBRANCH   2   9
BRANCH   1  15
ATOM     15  C   UNL     1      34.189 -15.383 -24.326  0.00  0.00    -0.076 C 
BRANCH  15  16
ATOM     16  C   UNL     1      33.770 -14.221 -23.421  0.00  0.00    -0.003 C 
BRANCH  16  17
ATOM     17  C   UNL     1      33.573 -12.913 -24.200  0.00  0.00    +0.070 C 
ATOM     18  C   UNL     1      32.579 -13.105 -25.340  0.00  0.00    +0.021 C 
BRANCH  17  20
ATOM     19  O   UNL     1      31.503 -13.075 -22.217  0.00  0.00    -0.270 OA
ATOM     20  N   UNL     1      33.123 -11.848 -23.335  0.00  0.00    -0.303 N 
ATOM     21  C   UNL     1      32.110 -12.023 -22.404  0.00  0.00    +0.247 C 
ATOM     22  H   UNL     1      33.550 -10.964 -23.410  0.00  0.00    +0.150 HD
BRANCH  21  24
ATOM     23  N   UNL     1      31.336  -8.469 -21.556  0.00  0.00    -0.242 NA
ATOM     24  C   UNL     1      31.744 -10.824 -21.610  0.00  0.00    +0.072 C 
ATOM     25  C   UNL     1      31.486 -10.945 -20.266  0.00  0.00    +0.008 C 
ATOM     26  C   UNL     1      31.663  -9.601 -22.220  0.00  0.00    +0.103 C 
ATOM     27  C   UNL     1      31.147  -9.803 -19.549  0.00  0.00    +0.021 C 
ATOM     28  C   UNL     1      31.085  -8.601 -20.234  0.00  0.00    +0.099 C 
ENDBRANCH  21  24
ENDBRANCH  17  20
ENDBRANCH  16  17
ENDBRANCH  15  16
ENDBRANCH   1  15
TORSDOF 6
ENDMDL
MODEL 5
REMARK VINA RESULT:     -11.2      1.054      1.994
REMARK  Name = 71919
REMARK  6 active torsions:
REMARK  status: ('A' for Active; 'I' for Inactive)
REMARK    1  A    between atoms: N_1  and  C_15
REMARK    2  A    between atoms: N_2  and  C_9
REMARK    3  A    between atoms: C_15  and  C_16
REMARK    4  A    between atoms: C_16  and  C_17
REMARK    5  A    between atoms: C_17  and  N_20
REMARK    6  A    between atoms: C_21  and  C_24
REMARK                            x       y       z     vdW  Elec       q    Type
REMARK                         _______ _______ _______ _____ _____    ______ ____
ROOT
ATOM      1  N   UNL     1      33.856 -15.517 -22.380  0.00  0.00    +0.389 N 
ATOM      2  N   UNL     1      32.842 -12.851 -22.227  0.00  0.00    -0.312 N 
ATOM      3  C   UNL     1      33.980 -14.746 -21.137  0.00  0.00    -0.055 C 
ATOM      4  C   UNL     1      33.951 -14.618 -23.538  0.00  0.00    -0.055 C 
ATOM      5  C   UNL     1      32.869 -13.698 -21.028  0.00  0.00    +0.068 C 
ATOM      6  C   UNL     1      32.841 -13.564 -23.508  0.00  0.00    +0.068 C 
ATOM      7  H   UNL     1      32.944 -15.976 -22.395  0.00  0.00    -0.080 HD
ENDROOT
BRANCH   2   9
ATOM      8  F   UNL     1      30.412  -7.868 -21.846  0.00  0.00    -0.204 F 
ATOM      9  C   UNL     1      32.231 -11.596 -22.131  0.00  0.00    +0.048 C 
ATOM     10  C   UNL     1      31.391 -11.279 -21.043  0.00  0.00    +0.017 C 
ATOM     11  C   UNL     1      32.435 -10.611 -23.118  0.00  0.00    +0.017 C 
ATOM     12  C   UNL     1      30.780 -10.028 -20.948  0.00  0.00    +0.031 C 
ATOM     13  C   UNL     1      31.825  -9.360 -23.022  0.00  0.00    +0.031 C 
ATOM     14  C   UNL     1      30.998  -9.069 -21.938  0.00  0.00    +0.140 C 
ENDBRANCH   2   9
BRANCH   1  15
ATOM     15  C   UNL     1      34.887 -16.551 -22.449  0.00  0.00    -0.076 C 
BRANCH  15  16
ATOM     16  C   UNL     1      34.874 -17.398 -21.174  0.00  0.00    -0.003 C 
BRANCH  16  17
ATOM     17  C   UNL     1      35.716 -18.675 -21.311  0.00  0.00    +0.070 C 
ATOM     18  C   UNL     1      37.125 -18.347 -21.793  0.00  0.00    +0.021 C 
BRANCH  17  20
ATOM     19  O   UNL     1      34.325 -21.099 -20.652  0.00  0.00    -0.270 OA
ATOM     20  N   UNL     1      35.785 -19.397 -20.062  0.00  0.00    -0.303 N 
ATOM     21  C   UNL     1      35.073 -20.565 -19.837  0.00  0.00    +0.247 C 
ATOM     22  H   UNL     1      36.360 -19.046 -19.344  0.00  0.00    +0.150 HD
BRANCH  21  24
ATOM     23  N   UNL     1      34.308 -22.523 -16.749  0.00  0.00    -0.242 NA
ATOM     24  C   UNL     1      35.231 -21.172 -18.491  0.00  0.00    +0.072 C 
ATOM     25  C   UNL     1      36.386 -20.960 -17.777  0.00  0.00    +0.008 C 
ATOM     26  C   UNL     1      34.227 -21.942 -17.968  0.00  0.00    +0.103 C 
ATOM     27  C   UNL     1      36.505 -21.542 -16.519  0.00  0.00    +0.021 C 
ATOM     28  C   UNL     1      35.447 -22.307 -16.055  0.00  0.00    +0.099 C 
ENDBRANCH  21  24
ENDBRANCH  17  20
ENDBRANCH  16  17
ENDBRANCH  15  16
ENDBRANCH   1  15
TORSDOF 6
ENDMDL
MODEL 6
REMARK VINA RESULT:     -11.2      3.484      5.853
REMARK  Name = 71919
REMARK  6 active torsions:
REMARK  status: ('A' for Active; 'I' for Inactive)
REMARK    1  A    between atoms: N_1  and  C_15
REMARK    2  A    between atoms: N_2  and  C_9
REMARK    3  A    between atoms: C_15  and  C_16
REMARK    4  A    between atoms: C_16  and  C_17
REMARK    5  A    between atoms: C_17  and  N_20
REMARK    6  A    between atoms: C_21  and  C_24
REMARK                            x       y       z     vdW  Elec       q    Type
REMARK                         _______ _______ _______ _____ _____    ______ ____
ROOT
ATOM      1  N   UNL     1      35.219 -20.490 -20.225  0.00  0.00    +0.389 N 
ATOM      2  N   UNL     1      34.713 -17.852 -21.197  0.00  0.00    -0.312 N 
ATOM      3  C   UNL     1      33.851 -19.957 -20.248  0.00  0.00    -0.055 C 
ATOM      4  C   UNL     1      36.173 -19.406 -19.963  0.00  0.00    -0.055 C 
ATOM      5  C   UNL     1      33.693 -18.898 -21.343  0.00  0.00    +0.068 C 
ATOM      6  C   UNL     1      36.092 -18.327 -21.046  0.00  0.00    +0.068 C 
ATOM      7  H   UNL     1      35.429 -20.900 -21.136  0.00  0.00    -0.080 HD
ENDROOT
BRANCH   2   9
ATOM      8  F   UNL     1      33.744 -12.915 -23.555  0.00  0.00    -0.204 F 
ATOM      9  C   UNL     1      34.468 -16.609 -21.791  0.00  0.00    +0.048 C 
ATOM     10  C   UNL     1      34.526 -16.449 -23.191  0.00  0.00    +0.017 C 
ATOM     11  C   UNL     1      34.158 -15.479 -21.008  0.00  0.00    +0.017 C 
ATOM     12  C   UNL     1      34.283 -15.209 -23.783  0.00  0.00    +0.031 C 
ATOM     13  C   UNL     1      33.914 -14.239 -21.600  0.00  0.00    +0.031 C 
ATOM     14  C   UNL     1      33.978 -14.104 -22.987  0.00  0.00    +0.140 C 
ENDBRANCH   2   9
BRANCH   1  15
ATOM     15  C   UNL     1      35.344 -21.539 -19.214  0.00  0.00    -0.076 C 
BRANCH  15  16
ATOM     16  C   UNL     1      36.083 -21.004 -17.985  0.00  0.00    -0.003 C 
BRANCH  16  17
ATOM     17  C   UNL     1      36.178 -22.043 -16.859  0.00  0.00    +0.070 C 
ATOM     18  C   UNL     1      37.297 -21.688 -15.885  0.00  0.00    +0.021 C 
BRANCH  17  20
ATOM     19  O   UNL     1      35.279 -24.307 -15.339  0.00  0.00    -0.270 OA
ATOM     20  N   UNL     1      34.929 -22.160 -16.143  0.00  0.00    -0.303 N 
ATOM     21  C   UNL     1      34.582 -23.301 -15.434  0.00  0.00    +0.247 C 
ATOM     22  H   UNL     1      34.301 -21.403 -16.159  0.00  0.00    +0.150 HD
BRANCH  21  24
ATOM     23  N   UNL     1      31.900 -23.881 -12.899  0.00  0.00    -0.242 NA
ATOM     24  C   UNL     1      33.252 -23.274 -14.774  0.00  0.00    +0.072 C 
ATOM     25  C   UNL     1      32.195 -22.650 -15.392  0.00  0.00    +0.008 C 
ATOM     26  C   UNL     1      33.084 -23.869 -13.553  0.00  0.00    +0.103 C 
ATOM     27  C   UNL     1      30.962 -22.641 -14.750  0.00  0.00    +0.021 C 
ATOM     28  C   UNL     1      30.868 -23.265 -13.516  0.00  0.00    +0.099 C 
ENDBRANCH  21  24
ENDBRANCH  17  20
ENDBRANCH  16  17
ENDBRANCH  15  16
ENDBRANCH   1  15
TORSDOF 6
ENDMDL
MODEL 7
REMARK VINA RESULT:     -11.2      4.019      6.553
REMARK  Name = 71919
REMARK  6 active torsions:
REMARK  status: ('A' for Active; 'I' for Inactive)
REMARK    1  A    between atoms: N_1  and  C_15
REMARK    2  A    between atoms: N_2  and  C_9
REMARK    3  A    between atoms: C_15  and  C_16
REMARK    4  A    between atoms: C_16  and  C_17
REMARK    5  A    between atoms: C_17  and  N_20
REMARK    6  A    between atoms: C_21  and  C_24
REMARK                            x       y       z     vdW  Elec       q    Type
REMARK                         _______ _______ _______ _____ _____    ______ ____
ROOT
ATOM      1  N   UNL     1      35.308 -20.506 -20.213  0.00  0.00    +0.389 N 
ATOM      2  N   UNL     1      34.771 -17.858 -21.142  0.00  0.00    -0.312 N 
ATOM      3  C   UNL     1      33.935 -19.985 -20.220  0.00  0.00    -0.055 C 
ATOM      4  C   UNL     1      36.254 -19.416 -19.941  0.00  0.00    -0.055 C 
ATOM      5  C   UNL     1      33.760 -18.912 -21.297  0.00  0.00    +0.068 C 
ATOM      6  C   UNL     1      36.155 -18.322 -21.007  0.00  0.00    +0.068 C 
ATOM      7  H   UNL     1      35.516 -20.900 -21.131  0.00  0.00    -0.080 HD
ENDROOT
BRANCH   2   9
ATOM      8  F   UNL     1      33.739 -12.896 -23.420  0.00  0.00    -0.204 F 
ATOM      9  C   UNL     1      34.510 -16.609 -21.716  0.00  0.00    +0.048 C 
ATOM     10  C   UNL     1      34.598 -16.417 -23.110  0.00  0.00    +0.017 C 
ATOM     11  C   UNL     1      34.153 -15.504 -20.918  0.00  0.00    +0.017 C 
ATOM     12  C   UNL     1      34.340 -15.171 -23.682  0.00  0.00    +0.031 C 
ATOM     13  C   UNL     1      33.894 -14.258 -21.490  0.00  0.00    +0.031 C 
ATOM     14  C   UNL     1      33.988 -14.092 -22.871  0.00  0.00    +0.140 C 
ENDBRANCH   2   9
BRANCH   1  15
ATOM     15  C   UNL     1      35.450 -21.568 -19.218  0.00  0.00    -0.076 C 
BRANCH  15  16
ATOM     16  C   UNL     1      36.152 -21.032 -17.968  0.00  0.00    -0.003 C 
BRANCH  16  17
ATOM     17  C   UNL     1      35.645 -21.697 -16.681  0.00  0.00    +0.070 C 
ATOM     18  C   UNL     1      34.311 -22.397 -16.921  0.00  0.00    +0.021 C 
BRANCH  17  20
ATOM     19  O   UNL     1      36.003 -22.445 -13.932  0.00  0.00    -0.270 OA
ATOM     20  N   UNL     1      36.604 -22.644 -16.163  0.00  0.00    -0.303 N 
ATOM     21  C   UNL     1      36.702 -22.941 -14.811  0.00  0.00    +0.247 C 
ATOM     22  H   UNL     1      37.211 -23.096 -16.792  0.00  0.00    +0.150 HD
BRANCH  21  24
ATOM     23  N   UNL     1      38.460 -25.707 -13.019  0.00  0.00    -0.242 NA
ATOM     24  C   UNL     1      37.757 -23.916 -14.437  0.00  0.00    +0.072 C 
ATOM     25  C   UNL     1      38.948 -23.932 -15.123  0.00  0.00    +0.008 C 
ATOM     26  C   UNL     1      37.541 -24.795 -13.410  0.00  0.00    +0.103 C 
ATOM     27  C   UNL     1      39.917 -24.856 -14.749  0.00  0.00    +0.021 C 
ATOM     28  C   UNL     1      39.626 -25.714 -13.701  0.00  0.00    +0.099 C 
ENDBRANCH  21  24
ENDBRANCH  17  20
ENDBRANCH  16  17
ENDBRANCH  15  16
ENDBRANCH   1  15
TORSDOF 6
ENDMDL
MODEL 8
REMARK VINA RESULT:     -11.0      5.016      8.124
REMARK  Name = 71919
REMARK  6 active torsions:
REMARK  status: ('A' for Active; 'I' for Inactive)
REMARK    1  A    between atoms: N_1  and  C_15
REMARK    2  A    between atoms: N_2  and  C_9
REMARK    3  A    between atoms: C_15  and  C_16
REMARK    4  A    between atoms: C_16  and  C_17
REMARK    5  A    between atoms: C_17  and  N_20
REMARK    6  A    between atoms: C_21  and  C_24
REMARK                            x       y       z     vdW  Elec       q    Type
REMARK                         _______ _______ _______ _____ _____    ______ ____
ROOT
ATOM      1  N   UNL     1      33.722 -22.038 -18.551  0.00  0.00    +0.389 N 
ATOM      2  N   UNL     1      34.063 -19.838 -20.341  0.00  0.00    -0.312 N 
ATOM      3  C   UNL     1      32.606 -21.124 -18.825  0.00  0.00    -0.055 C 
ATOM      4  C   UNL     1      34.992 -21.302 -18.591  0.00  0.00    -0.055 C 
ATOM      5  C   UNL     1      32.749 -20.481 -20.207  0.00  0.00    +0.068 C 
ATOM      6  C   UNL     1      35.215 -20.663 -19.964  0.00  0.00    +0.068 C 
ATOM      7  H   UNL     1      33.739 -22.763 -19.269  0.00  0.00    -0.080 HD
ENDROOT
BRANCH   2   9
ATOM      8  F   UNL     1      34.652 -15.888 -24.204  0.00  0.00    -0.204 F 
ATOM      9  C   UNL     1      34.210 -18.843 -21.314  0.00  0.00    +0.048 C 
ATOM     10  C   UNL     1      33.827 -19.073 -22.651  0.00  0.00    +0.017 C 
ATOM     11  C   UNL     1      34.748 -17.582 -20.987  0.00  0.00    +0.017 C 
ATOM     12  C   UNL     1      33.975 -18.081 -23.621  0.00  0.00    +0.031 C 
ATOM     13  C   UNL     1      34.895 -16.590 -21.957  0.00  0.00    +0.031 C 
ATOM     14  C   UNL     1      34.510 -16.840 -23.273  0.00  0.00    +0.140 C 
ENDBRANCH   2   9
BRANCH   1  15
ATOM     15  C   UNL     1      33.547 -22.687 -17.252  0.00  0.00    -0.076 C 
BRANCH  15  16
ATOM     16  C   UNL     1      32.102 -22.530 -16.771  0.00  0.00    -0.003 C 
BRANCH  16  17
ATOM     17  C   UNL     1      31.935 -22.894 -15.289  0.00  0.00    +0.070 C 
ATOM     18  C   UNL     1      30.757 -23.842 -15.093  0.00  0.00    +0.021 C 
BRANCH  17  20
ATOM     19  O   UNL     1      32.610 -23.199 -12.515  0.00  0.00    -0.270 OA
ATOM     20  N   UNL     1      33.135 -23.493 -14.755  0.00  0.00    -0.303 N 
ATOM     21  C   UNL     1      33.373 -23.595 -13.392  0.00  0.00    +0.247 C 
ATOM     22  H   UNL     1      33.810 -23.842 -15.381  0.00  0.00    +0.150 HD
BRANCH  21  24
ATOM     23  N   UNL     1      36.145 -24.908 -11.260  0.00  0.00    -0.242 NA
ATOM     24  C   UNL     1      34.666 -24.213 -13.004  0.00  0.00    +0.072 C 
ATOM     25  C   UNL     1      35.538 -24.641 -13.976  0.00  0.00    +0.008 C 
ATOM     26  C   UNL     1      34.984 -24.355 -11.680  0.00  0.00    +0.103 C 
ATOM     27  C   UNL     1      36.742 -25.215 -13.582  0.00  0.00    +0.021 C 
ATOM     28  C   UNL     1      36.995 -25.325 -12.224  0.00  0.00    +0.099 C 
ENDBRANCH  21  24
ENDBRANCH  17  20
ENDBRANCH  16  17
ENDBRANCH  15  16
ENDBRANCH   1  15
TORSDOF 6
ENDMDL
MODEL 9
REMARK VINA RESULT:     -10.8      4.018      6.628
REMARK  Name = 71919
REMARK  6 active torsions:
REMARK  status: ('A' for Active; 'I' for Inactive)
REMARK    1  A    between atoms: N_1  and  C_15
REMARK    2  A    between atoms: N_2  and  C_9
REMARK    3  A    between atoms: C_15  and  C_16
REMARK    4  A    between atoms: C_16  and  C_17
REMARK    5  A    between atoms: C_17  and  N_20
REMARK    6  A    between atoms: C_21  and  C_24
REMARK                            x       y       z     vdW  Elec       q    Type
REMARK                         _______ _______ _______ _____ _____    ______ ____
ROOT
ATOM      1  N   UNL     1      35.423 -19.987 -19.772  0.00  0.00    +0.389 N 
ATOM      2  N   UNL     1      34.681 -18.126 -21.808  0.00  0.00    -0.312 N 
ATOM      3  C   UNL     1      36.443 -19.400 -20.650  0.00  0.00    -0.055 C 
ATOM      4  C   UNL     1      34.165 -20.156 -20.512  0.00  0.00    -0.055 C 
ATOM      5  C   UNL     1      36.000 -18.031 -21.170  0.00  0.00    +0.068 C 
ATOM      6  C   UNL     1      33.646 -18.812 -21.029  0.00  0.00    +0.068 C 
ATOM      7  H   UNL     1      35.260 -19.355 -18.987  0.00  0.00    -0.080 HD
ENDROOT
BRANCH   2   9
ATOM      8  F   UNL     1      33.232 -14.149 -25.409  0.00  0.00    -0.204 F 
ATOM      9  C   UNL     1      34.317 -17.125 -22.715  0.00  0.00    +0.048 C 
ATOM     10  C   UNL     1      34.479 -15.761 -22.395  0.00  0.00    +0.017 C 
ATOM     11  C   UNL     1      33.776 -17.448 -23.976  0.00  0.00    +0.017 C 
ATOM     12  C   UNL     1      34.114 -14.762 -23.299  0.00  0.00    +0.031 C 
ATOM     13  C   UNL     1      33.412 -16.450 -24.880  0.00  0.00    +0.031 C 
ATOM     14  C   UNL     1      33.581 -15.107 -24.541  0.00  0.00    +0.140 C 
ENDBRANCH   2   9
BRANCH   1  15
ATOM     15  C   UNL     1      35.880 -21.269 -19.238  0.00  0.00    -0.076 C 
BRANCH  15  16
ATOM     16  C   UNL     1      35.394 -21.446 -17.797  0.00  0.00    -0.003 C 
BRANCH  16  17
ATOM     17  C   UNL     1      36.553 -21.516 -16.793  0.00  0.00    +0.070 C 
ATOM     18  C   UNL     1      37.280 -20.178 -16.709  0.00  0.00    +0.021 C 
BRANCH  17  20
ATOM     19  O   UNL     1      37.967 -23.125 -14.880  0.00  0.00    -0.270 OA
ATOM     20  N   UNL     1      36.090 -21.901 -15.480  0.00  0.00    -0.303 N 
ATOM     21  C   UNL     1      36.850 -22.685 -14.624  0.00  0.00    +0.247 C 
ATOM     22  H   UNL     1      35.204 -21.596 -15.182  0.00  0.00    +0.150 HD
BRANCH  21  24
ATOM     23  N   UNL     1      34.324 -23.851 -12.132  0.00  0.00    -0.242 NA
ATOM     24  C   UNL     1      36.222 -23.016 -13.320  0.00  0.00    +0.072 C 
ATOM     25  C   UNL     1      36.917 -22.806 -12.153  0.00  0.00    +0.008 C 
ATOM     26  C   UNL     1      34.953 -23.529 -13.285  0.00  0.00    +0.103 C 
ATOM     27  C   UNL     1      36.301 -23.125 -10.947  0.00  0.00    +0.021 C 
ATOM     28  C   UNL     1      35.016 -23.641 -10.991  0.00  0.00    +0.099 C 
ENDBRANCH  21  24
ENDBRANCH  17  20
ENDBRANCH  16  17
ENDBRANCH  15  16
ENDBRANCH   1  15
TORSDOF 6
ENDMDL
