MODEL 1
REMARK VINA RESULT:     -13.7      0.000      0.000
REMARK  Name = 11952989
REMARK  5 active torsions:
REMARK  status: ('A' for Active; 'I' for Inactive)
REMARK    1  A    between atoms: C_4  and  C_21
REMARK    2  A    between atoms: C_6  and  C_11
REMARK    3  A    between atoms: C_24  and  C_27
REMARK    4  A    between atoms: C_27  and  C_29
REMARK    5  A    between atoms: C_29  and  O_30
REMARK                            x       y       z     vdW  Elec       q    Type
REMARK                         _______ _______ _______ _____ _____    ______ ____
ROOT
ATOM      1  N   UNL     1      32.989 -13.901 -25.697  0.00  0.00    -0.297 N 
ATOM      2  N   UNL     1      33.961 -16.083 -25.388  0.00  0.00    -0.229 NA
ATOM      3  C   UNL     1      33.275 -14.568 -23.586  0.00  0.00    +0.033 C 
ATOM      4  C   UNL     1      32.695 -13.272 -23.583  0.00  0.00    +0.017 C 
ATOM      5  C   UNL     1      33.445 -14.932 -24.919  0.00  0.00    +0.132 C 
ATOM      6  C   UNL     1      34.223 -16.698 -23.040  0.00  0.00    +0.019 C 
ATOM      7  C   UNL     1      33.681 -15.490 -22.608  0.00  0.00    +0.004 C 
ATOM      8  C   UNL     1      32.531 -12.887 -24.897  0.00  0.00    +0.063 C 
ATOM      9  C   UNL     1      34.335 -16.933 -24.403  0.00  0.00    +0.100 C 
ATOM     10  H   UNL     1      32.989 -13.891 -26.683  0.00  0.00    +0.154 HD
ENDROOT
BRANCH   6  11
ATOM     11  C   UNL     1      34.661 -17.691 -22.083  0.00  0.00    +0.001 C 
ATOM     12  C   UNL     1      34.143 -19.537 -20.584  0.00  0.00    +0.000 C 
ATOM     13  C   UNL     1      33.735 -18.567 -21.515  0.00  0.00    +0.000 C 
ATOM     14  C   UNL     1      35.510 -19.618 -20.225  0.00  0.00    +0.000 C 
ATOM     15  C   UNL     1      36.004 -17.771 -21.729  0.00  0.00    +0.000 C 
ATOM     16  C   UNL     1      36.428 -18.728 -20.806  0.00  0.00    +0.000 C 
ATOM     17  C   UNL     1      33.226 -20.427 -20.002  0.00  0.00    +0.000 C 
ATOM     18  C   UNL     1      35.918 -20.587 -19.294  0.00  0.00    +0.000 C 
ATOM     19  C   UNL     1      33.650 -21.383 -19.079  0.00  0.00    +0.000 C 
ATOM     20  C   UNL     1      34.993 -21.464 -18.725  0.00  0.00    +0.000 C 
ENDBRANCH   6  11
BRANCH   4  21
ATOM     21  C   UNL     1      32.316 -12.434 -22.483  0.00  0.00    +0.001 C 
ATOM     22  C   UNL     1      31.977 -11.098 -22.706  0.00  0.00    -0.000 C 
ATOM     23  C   UNL     1      32.285 -12.952 -21.188  0.00  0.00    -0.000 C 
ATOM     24  C   UNL     1      31.577 -10.803 -20.342  0.00  0.00    -0.011 C 
ATOM     25  C   UNL     1      31.608 -10.284 -21.636  0.00  0.00    -0.004 C 
ATOM     26  C   UNL     1      31.915 -12.138 -20.118  0.00  0.00    -0.004 C 
BRANCH  24  27
ATOM     27  C   UNL     1      31.179  -9.932 -19.198  0.00  0.00    +0.136 C 
BRANCH  27  29
ATOM     28  O   UNL     1      30.826  -7.675 -20.043  0.00  0.00    -0.250 OA
ATOM     29  C   UNL     1      31.511  -8.468 -19.410  0.00  0.00    +0.318 C 
BRANCH  29  30
ATOM     30  O   UNL     1      32.678  -8.121 -18.807  0.00  0.00    -0.480 OA
ATOM     31  H   UNL     1      33.456  -8.618 -18.971  0.00  0.00    +0.295 HD
ENDBRANCH  29  30
ENDBRANCH  27  29
ENDBRANCH  24  27
ENDBRANCH   4  21
TORSDOF 5
ENDMDL
MODEL 2
REMARK VINA RESULT:     -13.4      7.909     12.388
REMARK  Name = 11952989
REMARK  5 active torsions:
REMARK  status: ('A' for Active; 'I' for Inactive)
REMARK    1  A    between atoms: C_4  and  C_21
REMARK    2  A    between atoms: C_6  and  C_11
REMARK    3  A    between atoms: C_24  and  C_27
REMARK    4  A    between atoms: C_27  and  C_29
REMARK    5  A    between atoms: C_29  and  O_30
REMARK                            x       y       z     vdW  Elec       q    Type
REMARK                         _______ _______ _______ _____ _____    ______ ____
ROOT
ATOM      1  N   UNL     1      31.911 -24.000 -14.578  0.00  0.00    -0.297 N 
ATOM      2  N   UNL     1      31.093 -22.731 -16.454  0.00  0.00    -0.229 NA
ATOM      3  C   UNL     1      33.456 -23.077 -15.899  0.00  0.00    +0.033 C 
ATOM      4  C   UNL     1      34.108 -23.783 -14.853  0.00  0.00    +0.017 C 
ATOM      5  C   UNL     1      32.087 -23.233 -15.699  0.00  0.00    +0.132 C 
ATOM      6  C   UNL     1      32.874 -21.774 -17.822  0.00  0.00    +0.019 C 
ATOM      7  C   UNL     1      33.865 -22.317 -17.006  0.00  0.00    +0.004 C 
ATOM      8  C   UNL     1      33.131 -24.340 -14.055  0.00  0.00    +0.063 C 
ATOM      9  C   UNL     1      31.543 -22.008 -17.506  0.00  0.00    +0.100 C 
ATOM     10  H   UNL     1      31.039 -24.268 -14.204  0.00  0.00    +0.154 HD
ENDROOT
BRANCH   6  11
ATOM     11  C   UNL     1      33.229 -20.980 -18.978  0.00  0.00    +0.001 C 
ATOM     12  C   UNL     1      34.917 -19.828 -20.298  0.00  0.00    +0.000 C 
ATOM     13  C   UNL     1      34.556 -20.599 -19.181  0.00  0.00    +0.000 C 
ATOM     14  C   UNL     1      33.918 -19.438 -21.222  0.00  0.00    +0.000 C 
ATOM     15  C   UNL     1      32.246 -20.597 -19.886  0.00  0.00    +0.000 C 
ATOM     16  C   UNL     1      32.587 -19.831 -21.002  0.00  0.00    +0.000 C 
ATOM     17  C   UNL     1      36.247 -19.435 -20.519  0.00  0.00    +0.000 C 
ATOM     18  C   UNL     1      34.279 -18.667 -22.339  0.00  0.00    +0.000 C 
ATOM     19  C   UNL     1      36.587 -18.669 -21.634  0.00  0.00    +0.000 C 
ATOM     20  C   UNL     1      35.605 -18.285 -22.543  0.00  0.00    +0.000 C 
ENDBRANCH   6  11
BRANCH   4  21
ATOM     21  C   UNL     1      35.507 -23.947 -14.584  0.00  0.00    +0.001 C 
ATOM     22  C   UNL     1      35.945 -24.996 -13.775  0.00  0.00    -0.000 C 
ATOM     23  C   UNL     1      36.433 -23.057 -15.131  0.00  0.00    -0.000 C 
ATOM     24  C   UNL     1      38.230 -24.265 -14.061  0.00  0.00    -0.011 C 
ATOM     25  C   UNL     1      37.306 -25.155 -13.514  0.00  0.00    -0.004 C 
ATOM     26  C   UNL     1      37.793 -23.216 -14.870  0.00  0.00    -0.004 C 
BRANCH  24  27
ATOM     27  C   UNL     1      39.686 -24.438 -13.784  0.00  0.00    +0.136 C 
BRANCH  27  29
ATOM     28  O   UNL     1      40.809 -26.598 -13.784  0.00  0.00    -0.250 OA
ATOM     29  C   UNL     1      40.275 -25.688 -14.404  0.00  0.00    +0.318 C 
BRANCH  29  30
ATOM     30  O   UNL     1      40.145 -25.692 -15.757  0.00  0.00    -0.480 OA
ATOM     31  H   UNL     1      39.413 -26.122 -16.156  0.00  0.00    +0.295 HD
ENDBRANCH  29  30
ENDBRANCH  27  29
ENDBRANCH  24  27
ENDBRANCH   4  21
TORSDOF 5
ENDMDL
MODEL 3
REMARK VINA RESULT:     -12.8      6.603     10.506
REMARK  Name = 11952989
REMARK  5 active torsions:
REMARK  status: ('A' for Active; 'I' for Inactive)
REMARK    1  A    between atoms: C_4  and  C_21
REMARK    2  A    between atoms: C_6  and  C_11
REMARK    3  A    between atoms: C_24  and  C_27
REMARK    4  A    between atoms: C_27  and  C_29
REMARK    5  A    between atoms: C_29  and  O_30
REMARK                            x       y       z     vdW  Elec       q    Type
REMARK                         _______ _______ _______ _____ _____    ______ ____
ROOT
ATOM      1  N   UNL     1      30.510 -22.748 -16.172  0.00  0.00    -0.297 N 
ATOM      2  N   UNL     1      31.659 -23.952 -14.431  0.00  0.00    -0.229 NA
ATOM      3  C   UNL     1      32.740 -22.770 -16.287  0.00  0.00    +0.033 C 
ATOM      4  C   UNL     1      32.231 -22.022 -17.382  0.00  0.00    +0.017 C 
ATOM      5  C   UNL     1      31.642 -23.208 -15.553  0.00  0.00    +0.132 C 
ATOM      6  C   UNL     1      34.088 -23.904 -14.665  0.00  0.00    +0.019 C 
ATOM      7  C   UNL     1      34.014 -23.133 -15.823  0.00  0.00    +0.004 C 
ATOM      8  C   UNL     1      30.856 -22.026 -17.285  0.00  0.00    +0.063 C 
ATOM      9  C   UNL     1      32.911 -24.272 -14.030  0.00  0.00    +0.100 C 
ATOM     10  H   UNL     1      29.588 -22.910 -15.865  0.00  0.00    +0.154 HD
ENDROOT
BRANCH   6  11
ATOM     11  C   UNL     1      35.371 -24.312 -14.135  0.00  0.00    +0.001 C 
ATOM     12  C   UNL     1      37.749 -24.708 -14.461  0.00  0.00    +0.000 C 
ATOM     13  C   UNL     1      36.497 -24.314 -14.960  0.00  0.00    +0.000 C 
ATOM     14  C   UNL     1      37.861 -25.104 -13.107  0.00  0.00    +0.000 C 
ATOM     15  C   UNL     1      35.481 -24.702 -12.804  0.00  0.00    +0.000 C 
ATOM     16  C   UNL     1      36.718 -25.095 -12.291  0.00  0.00    +0.000 C 
ATOM     17  C   UNL     1      38.893 -24.717 -15.277  0.00  0.00    +0.000 C 
ATOM     18  C   UNL     1      39.114 -25.498 -12.608  0.00  0.00    +0.000 C 
ATOM     19  C   UNL     1      40.129 -25.111 -14.763  0.00  0.00    +0.000 C 
ATOM     20  C   UNL     1      40.240 -25.501 -13.432  0.00  0.00    +0.000 C 
ENDBRANCH   6  11
BRANCH   4  21
ATOM     21  C   UNL     1      32.925 -21.351 -18.443  0.00  0.00    +0.001 C 
ATOM     22  C   UNL     1      32.219 -20.560 -19.350  0.00  0.00    -0.000 C 
ATOM     23  C   UNL     1      34.308 -21.487 -18.569  0.00  0.00    -0.000 C 
ATOM     24  C   UNL     1      34.277 -20.045 -20.505  0.00  0.00    -0.011 C 
ATOM     25  C   UNL     1      32.895 -19.908 -20.380  0.00  0.00    -0.004 C 
ATOM     26  C   UNL     1      34.984 -20.835 -19.599  0.00  0.00    -0.004 C 
BRANCH  24  27
ATOM     27  C   UNL     1      34.999 -19.344 -21.607  0.00  0.00    +0.136 C 
BRANCH  27  29
ATOM     28  O   UNL     1      35.240 -17.130 -20.623  0.00  0.00    -0.250 OA
ATOM     29  C   UNL     1      35.750 -18.110 -21.148  0.00  0.00    +0.318 C 
BRANCH  29  30
ATOM     30  O   UNL     1      37.085 -18.211 -21.388  0.00  0.00    -0.480 OA
ATOM     31  H   UNL     1      37.684 -18.294 -20.671  0.00  0.00    +0.295 HD
ENDBRANCH  29  30
ENDBRANCH  27  29
ENDBRANCH  24  27
ENDBRANCH   4  21
TORSDOF 5
ENDMDL
MODEL 4
REMARK VINA RESULT:     -12.1      5.044      7.440
REMARK  Name = 11952989
REMARK  5 active torsions:
REMARK  status: ('A' for Active; 'I' for Inactive)
REMARK    1  A    between atoms: C_4  and  C_21
REMARK    2  A    between atoms: C_6  and  C_11
REMARK    3  A    between atoms: C_24  and  C_27
REMARK    4  A    between atoms: C_27  and  C_29
REMARK    5  A    between atoms: C_29  and  O_30
REMARK                            x       y       z     vdW  Elec       q    Type
REMARK                         _______ _______ _______ _____ _____    ______ ____
ROOT
ATOM      1  N   UNL     1      30.890  -7.258 -21.297  0.00  0.00    -0.297 N 
ATOM      2  N   UNL     1      30.994  -9.609 -20.781  0.00  0.00    -0.229 NA
ATOM      3  C   UNL     1      31.970  -8.548 -22.765  0.00  0.00    +0.033 C 
ATOM      4  C   UNL     1      32.005  -7.203 -23.221  0.00  0.00    +0.017 C 
ATOM      5  C   UNL     1      31.268  -8.547 -21.563  0.00  0.00    +0.132 C 
ATOM      6  C   UNL     1      32.199 -10.911 -22.458  0.00  0.00    +0.019 C 
ATOM      7  C   UNL     1      32.455  -9.780 -23.230  0.00  0.00    +0.004 C 
ATOM      8  C   UNL     1      31.332  -6.432 -22.297  0.00  0.00    +0.063 C 
ATOM      9  C   UNL     1      31.485 -10.768 -21.276  0.00  0.00    +0.100 C 
ATOM     10  H   UNL     1      30.378  -6.968 -20.506  0.00  0.00    +0.154 HD
ENDROOT
BRANCH   6  11
ATOM     11  C   UNL     1      32.671 -12.212 -22.881  0.00  0.00    +0.001 C 
ATOM     12  C   UNL     1      33.673 -14.361 -22.339  0.00  0.00    +0.000 C 
ATOM     13  C   UNL     1      33.210 -13.095 -21.946  0.00  0.00    +0.000 C 
ATOM     14  C   UNL     1      33.588 -14.736 -23.702  0.00  0.00    +0.000 C 
ATOM     15  C   UNL     1      32.587 -12.580 -24.220  0.00  0.00    +0.000 C 
ATOM     16  C   UNL     1      33.041 -13.834 -24.630  0.00  0.00    +0.000 C 
ATOM     17  C   UNL     1      34.220 -15.263 -21.412  0.00  0.00    +0.000 C 
ATOM     18  C   UNL     1      34.051 -16.002 -24.096  0.00  0.00    +0.000 C 
ATOM     19  C   UNL     1      34.674 -16.517 -21.822  0.00  0.00    +0.000 C 
ATOM     20  C   UNL     1      34.591 -16.886 -23.161  0.00  0.00    +0.000 C 
ENDBRANCH   6  11
BRANCH   4  21
ATOM     21  C   UNL     1      32.598  -6.645 -24.402  0.00  0.00    +0.001 C 
ATOM     22  C   UNL     1      31.787  -6.202 -25.448  0.00  0.00    -0.000 C 
ATOM     23  C   UNL     1      33.986  -6.545 -24.507  0.00  0.00    -0.000 C 
ATOM     24  C   UNL     1      33.751  -5.560 -26.700  0.00  0.00    -0.011 C 
ATOM     25  C   UNL     1      32.364  -5.660 -26.596  0.00  0.00    -0.004 C 
ATOM     26  C   UNL     1      34.562  -6.003 -25.655  0.00  0.00    -0.004 C 
BRANCH  24  27
ATOM     27  C   UNL     1      34.367  -4.977 -27.928  0.00  0.00    +0.136 C 
BRANCH  27  29
ATOM     28  O   UNL     1      33.217  -6.022 -29.802  0.00  0.00    -0.250 OA
ATOM     29  C   UNL     1      33.458  -5.022 -29.139  0.00  0.00    +0.318 C 
BRANCH  29  30
ATOM     30  O   UNL     1      32.925  -3.803 -29.419  0.00  0.00    -0.480 OA
ATOM     31  H   UNL     1      32.149  -3.519 -28.976  0.00  0.00    +0.295 HD
ENDBRANCH  29  30
ENDBRANCH  27  29
ENDBRANCH  24  27
ENDBRANCH   4  21
TORSDOF 5
ENDMDL
MODEL 5
REMARK VINA RESULT:     -11.7      7.196     11.366
REMARK  Name = 11952989
REMARK  5 active torsions:
REMARK  status: ('A' for Active; 'I' for Inactive)
REMARK    1  A    between atoms: C_4  and  C_21
REMARK    2  A    between atoms: C_6  and  C_11
REMARK    3  A    between atoms: C_24  and  C_27
REMARK    4  A    between atoms: C_27  and  C_29
REMARK    5  A    between atoms: C_29  and  O_30
REMARK                            x       y       z     vdW  Elec       q    Type
REMARK                         _______ _______ _______ _____ _____    ______ ____
ROOT
ATOM      1  N   UNL     1      36.012 -23.516 -14.225  0.00  0.00    -0.297 N 
ATOM      2  N   UNL     1      36.978 -22.260 -16.040  0.00  0.00    -0.229 NA
ATOM      3  C   UNL     1      34.593 -22.763 -15.775  0.00  0.00    +0.033 C 
ATOM      4  C   UNL     1      33.860 -23.475 -14.788  0.00  0.00    +0.017 C 
ATOM      5  C   UNL     1      35.931 -22.807 -15.394  0.00  0.00    +0.132 C 
ATOM      6  C   UNL     1      35.328 -21.492 -17.667  0.00  0.00    +0.019 C 
ATOM      7  C   UNL     1      34.280 -22.077 -16.960  0.00  0.00    +0.004 C 
ATOM      8  C   UNL     1      34.760 -23.926 -13.847  0.00  0.00    +0.063 C 
ATOM      9  C   UNL     1      36.619 -21.613 -17.172  0.00  0.00    +0.100 C 
ATOM     10  H   UNL     1      36.843 -23.702 -13.730  0.00  0.00    +0.154 HD
ENDROOT
BRANCH   6  11
ATOM     11  C   UNL     1      35.074 -20.772 -18.895  0.00  0.00    +0.001 C 
ATOM     12  C   UNL     1      35.844 -19.271 -20.648  0.00  0.00    +0.000 C 
ATOM     13  C   UNL     1      36.074 -19.977 -19.457  0.00  0.00    +0.000 C 
ATOM     14  C   UNL     1      34.581 -19.372 -21.280  0.00  0.00    +0.000 C 
ATOM     15  C   UNL     1      33.832 -20.871 -19.515  0.00  0.00    +0.000 C 
ATOM     16  C   UNL     1      33.586 -20.176 -20.700  0.00  0.00    +0.000 C 
ATOM     17  C   UNL     1      36.839 -18.467 -21.228  0.00  0.00    +0.000 C 
ATOM     18  C   UNL     1      34.351 -18.665 -22.471  0.00  0.00    +0.000 C 
ATOM     19  C   UNL     1      36.592 -17.772 -22.412  0.00  0.00    +0.000 C 
ATOM     20  C   UNL     1      35.350 -17.870 -23.033  0.00  0.00    +0.000 C 
ENDBRANCH   6  11
BRANCH   4  21
ATOM     21  C   UNL     1      32.452 -23.734 -14.694  0.00  0.00    +0.001 C 
ATOM     22  C   UNL     1      31.578 -23.199 -15.640  0.00  0.00    -0.000 C 
ATOM     23  C   UNL     1      31.955 -24.523 -13.655  0.00  0.00    -0.000 C 
ATOM     24  C   UNL     1      29.714 -24.241 -14.510  0.00  0.00    -0.011 C 
ATOM     25  C   UNL     1      30.210 -23.452 -15.548  0.00  0.00    -0.004 C 
ATOM     26  C   UNL     1      30.587 -24.776 -13.563  0.00  0.00    -0.004 C 
BRANCH  24  27
ATOM     27  C   UNL     1      28.250 -24.513 -14.414  0.00  0.00    +0.136 C 
BRANCH  27  29
ATOM     28  O   UNL     1      26.809 -22.748 -15.272  0.00  0.00    -0.250 OA
ATOM     29  C   UNL     1      27.431 -23.785 -15.460  0.00  0.00    +0.318 C 
BRANCH  29  30
ATOM     30  O   UNL     1      27.460 -24.423 -16.661  0.00  0.00    -0.480 OA
ATOM     31  H   UNL     1      26.709 -24.899 -16.956  0.00  0.00    +0.295 HD
ENDBRANCH  29  30
ENDBRANCH  27  29
ENDBRANCH  24  27
ENDBRANCH   4  21
TORSDOF 5
ENDMDL
MODEL 6
REMARK VINA RESULT:     -11.5      5.373     10.909
REMARK  Name = 11952989
REMARK  5 active torsions:
REMARK  status: ('A' for Active; 'I' for Inactive)
REMARK    1  A    between atoms: C_4  and  C_21
REMARK    2  A    between atoms: C_6  and  C_11
REMARK    3  A    between atoms: C_24  and  C_27
REMARK    4  A    between atoms: C_27  and  C_29
REMARK    5  A    between atoms: C_29  and  O_30
REMARK                            x       y       z     vdW  Elec       q    Type
REMARK                         _______ _______ _______ _____ _____    ______ ____
ROOT
ATOM      1  N   UNL     1      31.200 -10.428 -19.764  0.00  0.00    -0.297 N 
ATOM      2  N   UNL     1      31.084  -8.176 -20.612  0.00  0.00    -0.229 NA
ATOM      3  C   UNL     1      31.964 -10.109 -21.837  0.00  0.00    +0.033 C 
ATOM      4  C   UNL     1      32.106 -11.482 -21.502  0.00  0.00    +0.017 C 
ATOM      5  C   UNL     1      31.396  -9.480 -20.733  0.00  0.00    +0.132 C 
ATOM      6  C   UNL     1      31.947  -7.956 -22.885  0.00  0.00    +0.019 C 
ATOM      7  C   UNL     1      32.250  -9.313 -22.959  0.00  0.00    +0.004 C 
ATOM      8  C   UNL     1      31.627 -11.648 -20.220  0.00  0.00    +0.063 C 
ATOM      9  C   UNL     1      31.381  -7.458 -21.720  0.00  0.00    +0.100 C 
ATOM     10  H   UNL     1      30.811 -10.259 -18.875  0.00  0.00    +0.154 HD
ENDROOT
BRANCH   6  11
ATOM     11  C   UNL     1      32.218  -7.081 -24.005  0.00  0.00    +0.001 C 
ATOM     12  C   UNL     1      33.693  -5.510 -25.134  0.00  0.00    +0.000 C 
ATOM     13  C   UNL     1      33.414  -6.364 -24.055  0.00  0.00    +0.000 C 
ATOM     14  C   UNL     1      32.744  -5.382 -26.178  0.00  0.00    +0.000 C 
ATOM     15  C   UNL     1      31.286  -6.955 -25.030  0.00  0.00    +0.000 C 
ATOM     16  C   UNL     1      31.546  -6.112 -26.111  0.00  0.00    +0.000 C 
ATOM     17  C   UNL     1      34.891  -4.780 -25.202  0.00  0.00    +0.000 C 
ATOM     18  C   UNL     1      33.023  -4.528 -27.257  0.00  0.00    +0.000 C 
ATOM     19  C   UNL     1      35.150  -3.936 -26.282  0.00  0.00    +0.000 C 
ATOM     20  C   UNL     1      34.218  -3.810 -27.308  0.00  0.00    +0.000 C 
ENDBRANCH   6  11
BRANCH   4  21
ATOM     21  C   UNL     1      32.633 -12.570 -22.273  0.00  0.00    +0.001 C 
ATOM     22  C   UNL     1      33.419 -13.546 -21.658  0.00  0.00    -0.000 C 
ATOM     23  C   UNL     1      32.362 -12.655 -23.639  0.00  0.00    -0.000 C 
ATOM     24  C   UNL     1      33.659 -14.688 -23.773  0.00  0.00    -0.011 C 
ATOM     25  C   UNL     1      33.932 -14.603 -22.408  0.00  0.00    -0.004 C 
ATOM     26  C   UNL     1      32.874 -13.713 -24.389  0.00  0.00    -0.004 C 
BRANCH  24  27
ATOM     27  C   UNL     1      34.206 -15.821 -24.574  0.00  0.00    +0.136 C 
BRANCH  27  29
ATOM     28  O   UNL     1      33.786 -18.061 -23.716  0.00  0.00    -0.250 OA
ATOM     29  C   UNL     1      33.431 -17.112 -24.402  0.00  0.00    +0.318 C 
BRANCH  29  30
ATOM     30  O   UNL     1      32.270 -17.103 -25.109  0.00  0.00    -0.480 OA
ATOM     31  H   UNL     1      31.910 -16.291 -25.409  0.00  0.00    +0.295 HD
ENDBRANCH  29  30
ENDBRANCH  27  29
ENDBRANCH  24  27
ENDBRANCH   4  21
TORSDOF 5
ENDMDL
MODEL 7
REMARK VINA RESULT:     -11.0      1.279      2.193
REMARK  Name = 11952989
REMARK  5 active torsions:
REMARK  status: ('A' for Active; 'I' for Inactive)
REMARK    1  A    between atoms: C_4  and  C_21
REMARK    2  A    between atoms: C_6  and  C_11
REMARK    3  A    between atoms: C_24  and  C_27
REMARK    4  A    between atoms: C_27  and  C_29
REMARK    5  A    between atoms: C_29  and  O_30
REMARK                            x       y       z     vdW  Elec       q    Type
REMARK                         _______ _______ _______ _____ _____    ______ ____
ROOT
ATOM      1  N   UNL     1      34.009 -16.210 -25.201  0.00  0.00    -0.297 N 
ATOM      2  N   UNL     1      34.564 -18.420 -24.418  0.00  0.00    -0.229 NA
ATOM      3  C   UNL     1      33.853 -16.550 -23.000  0.00  0.00    +0.033 C 
ATOM      4  C   UNL     1      33.493 -15.205 -23.284  0.00  0.00    +0.017 C 
ATOM      5  C   UNL     1      34.169 -17.149 -24.216  0.00  0.00    +0.132 C 
ATOM      6  C   UNL     1      34.355 -18.666 -21.998  0.00  0.00    +0.019 C 
ATOM      7  C   UNL     1      33.950 -17.342 -21.845  0.00  0.00    +0.004 C 
ATOM      8  C   UNL     1      33.598 -15.026 -24.647  0.00  0.00    +0.063 C 
ATOM      9  C   UNL     1      34.640 -19.136 -23.272  0.00  0.00    +0.100 C 
ATOM     10  H   UNL     1      34.165 -16.363 -26.162  0.00  0.00    +0.154 HD
ENDROOT
BRANCH   6  11
ATOM     11  C   UNL     1      34.475 -19.535 -20.848  0.00  0.00    +0.001 C 
ATOM     12  C   UNL     1      33.430 -20.929 -19.149  0.00  0.00    +0.000 C 
ATOM     13  C   UNL     1      33.331 -20.083 -20.266  0.00  0.00    +0.000 C 
ATOM     14  C   UNL     1      34.708 -21.222 -18.615  0.00  0.00    +0.000 C 
ATOM     15  C   UNL     1      35.731 -19.824 -20.322  0.00  0.00    +0.000 C 
ATOM     16  C   UNL     1      35.848 -20.662 -19.213  0.00  0.00    +0.000 C 
ATOM     17  C   UNL     1      32.289 -21.489 -18.551  0.00  0.00    +0.000 C 
ATOM     18  C   UNL     1      34.806 -22.068 -17.498  0.00  0.00    +0.000 C 
ATOM     19  C   UNL     1      32.408 -22.327 -17.441  0.00  0.00    +0.000 C 
ATOM     20  C   UNL     1      33.663 -22.616 -16.915  0.00  0.00    +0.000 C 
ENDBRANCH   6  11
BRANCH   4  21
ATOM     21  C   UNL     1      33.083 -14.154 -22.399  0.00  0.00    +0.001 C 
ATOM     22  C   UNL     1      32.367 -13.063 -22.894  0.00  0.00    -0.000 C 
ATOM     23  C   UNL     1      33.400 -14.220 -21.041  0.00  0.00    -0.000 C 
ATOM     24  C   UNL     1      32.286 -12.108 -20.676  0.00  0.00    -0.011 C 
ATOM     25  C   UNL     1      31.969 -12.041 -22.033  0.00  0.00    -0.004 C 
ATOM     26  C   UNL     1      33.002 -13.198 -20.180  0.00  0.00    -0.004 C 
BRANCH  24  27
ATOM     27  C   UNL     1      31.857 -11.016 -19.755  0.00  0.00    +0.136 C 
BRANCH  27  29
ATOM     28  O   UNL     1      30.001 -10.168 -21.084  0.00  0.00    -0.250 OA
ATOM     29  C   UNL     1      31.013  -9.953 -20.430  0.00  0.00    +0.318 C 
BRANCH  29  30
ATOM     30  O   UNL     1      31.510  -8.705 -20.226  0.00  0.00    -0.480 OA
ATOM     31  H   UNL     1      32.049  -8.532 -19.479  0.00  0.00    +0.295 HD
ENDBRANCH  29  30
ENDBRANCH  27  29
ENDBRANCH  24  27
ENDBRANCH   4  21
TORSDOF 5
ENDMDL
MODEL 8
REMARK VINA RESULT:     -10.9      3.904      8.792
REMARK  Name = 11952989
REMARK  5 active torsions:
REMARK  status: ('A' for Active; 'I' for Inactive)
REMARK    1  A    between atoms: C_4  and  C_21
REMARK    2  A    between atoms: C_6  and  C_11
REMARK    3  A    between atoms: C_24  and  C_27
REMARK    4  A    between atoms: C_27  and  C_29
REMARK    5  A    between atoms: C_29  and  O_30
REMARK                            x       y       z     vdW  Elec       q    Type
REMARK                         _______ _______ _______ _____ _____    ______ ____
ROOT
ATOM      1  N   UNL     1      33.956 -16.784 -25.462  0.00  0.00    -0.297 N 
ATOM      2  N   UNL     1      33.051 -14.566 -25.208  0.00  0.00    -0.229 NA
ATOM      3  C   UNL     1      33.749 -16.032 -23.370  0.00  0.00    +0.033 C 
ATOM      4  C   UNL     1      34.294 -17.343 -23.335  0.00  0.00    +0.017 C 
ATOM      5  C   UNL     1      33.550 -15.713 -24.710  0.00  0.00    +0.132 C 
ATOM      6  C   UNL     1      32.874 -13.858 -22.878  0.00  0.00    +0.019 C 
ATOM      7  C   UNL     1      33.396 -15.063 -22.416  0.00  0.00    +0.004 C 
ATOM      8  C   UNL     1      34.410 -17.780 -24.637  0.00  0.00    +0.063 C 
ATOM      9  C   UNL     1      32.729 -13.670 -24.246  0.00  0.00    +0.100 C 
ATOM     10  H   UNL     1      33.927 -16.831 -26.446  0.00  0.00    +0.154 HD
ENDROOT
BRANCH   6  11
ATOM     11  C   UNL     1      32.490 -12.818 -21.948  0.00  0.00    +0.001 C 
ATOM     12  C   UNL     1      31.860 -10.507 -21.522  0.00  0.00    +0.000 C 
ATOM     13  C   UNL     1      32.233 -11.528 -22.412  0.00  0.00    +0.000 C 
ATOM     14  C   UNL     1      31.746 -10.800 -20.142  0.00  0.00    +0.000 C 
ATOM     15  C   UNL     1      32.378 -13.107 -20.591  0.00  0.00    +0.000 C 
ATOM     16  C   UNL     1      32.008 -12.105 -19.693  0.00  0.00    +0.000 C 
ATOM     17  C   UNL     1      31.597  -9.203 -21.971  0.00  0.00    +0.000 C 
ATOM     18  C   UNL     1      31.373  -9.780 -19.252  0.00  0.00    +0.000 C 
ATOM     19  C   UNL     1      31.228  -8.202 -21.072  0.00  0.00    +0.000 C 
ATOM     20  C   UNL     1      31.116  -8.489 -19.715  0.00  0.00    +0.000 C 
ENDBRANCH   6  11
BRANCH   4  21
ATOM     21  C   UNL     1      34.683 -18.150 -22.215  0.00  0.00    +0.001 C 
ATOM     22  C   UNL     1      33.766 -19.029 -21.635  0.00  0.00    -0.000 C 
ATOM     23  C   UNL     1      35.978 -18.058 -21.704  0.00  0.00    -0.000 C 
ATOM     24  C   UNL     1      35.440 -19.721 -20.036  0.00  0.00    -0.011 C 
ATOM     25  C   UNL     1      34.145 -19.813 -20.547  0.00  0.00    -0.004 C 
ATOM     26  C   UNL     1      36.357 -18.843 -20.615  0.00  0.00    -0.004 C 
BRANCH  24  27
ATOM     27  C   UNL     1      35.845 -20.563 -18.873  0.00  0.00    +0.136 C 
BRANCH  27  29
ATOM     28  O   UNL     1      34.363 -22.387 -19.513  0.00  0.00    -0.250 OA
ATOM     29  C   UNL     1      34.928 -21.747 -18.636  0.00  0.00    +0.318 C 
BRANCH  29  30
ATOM     30  O   UNL     1      34.798 -22.029 -17.313  0.00  0.00    -0.480 OA
ATOM     31  H   UNL     1      35.530 -21.926 -16.737  0.00  0.00    +0.295 HD
ENDBRANCH  29  30
ENDBRANCH  27  29
ENDBRANCH  24  27
ENDBRANCH   4  21
TORSDOF 5
ENDMDL
MODEL 9
REMARK VINA RESULT:     -10.9      5.738     11.363
REMARK  Name = 11952989
REMARK  5 active torsions:
REMARK  status: ('A' for Active; 'I' for Inactive)
REMARK    1  A    between atoms: C_4  and  C_21
REMARK    2  A    between atoms: C_6  and  C_11
REMARK    3  A    between atoms: C_24  and  C_27
REMARK    4  A    between atoms: C_27  and  C_29
REMARK    5  A    between atoms: C_29  and  O_30
REMARK                            x       y       z     vdW  Elec       q    Type
REMARK                         _______ _______ _______ _____ _____    ______ ____
ROOT
ATOM      1  N   UNL     1      30.750  -9.019 -19.620  0.00  0.00    -0.297 N 
ATOM      2  N   UNL     1      31.094  -6.805 -20.506  0.00  0.00    -0.229 NA
ATOM      3  C   UNL     1      31.932  -8.880 -21.509  0.00  0.00    +0.033 C 
ATOM      4  C   UNL     1      31.826 -10.245 -21.132  0.00  0.00    +0.017 C 
ATOM      5  C   UNL     1      31.250  -8.142 -20.546  0.00  0.00    +0.132 C 
ATOM      6  C   UNL     1      32.397  -6.784 -22.570  0.00  0.00    +0.019 C 
ATOM      7  C   UNL     1      32.528  -8.171 -22.564  0.00  0.00    +0.004 C 
ATOM      8  C   UNL     1      31.094 -10.300 -19.966  0.00  0.00    +0.063 C 
ATOM      9  C   UNL     1      31.688  -6.174 -21.545  0.00  0.00    +0.100 C 
ATOM     10  H   UNL     1      30.223  -8.767 -18.826  0.00  0.00    +0.154 HD
ENDROOT
BRANCH   6  11
ATOM     11  C   UNL     1      32.988  -5.995 -23.629  0.00  0.00    +0.001 C 
ATOM     12  C   UNL     1      33.130  -3.901 -24.859  0.00  0.00    +0.000 C 
ATOM     13  C   UNL     1      32.567  -4.681 -23.837  0.00  0.00    +0.000 C 
ATOM     14  C   UNL     1      34.136  -4.462 -25.683  0.00  0.00    +0.000 C 
ATOM     15  C   UNL     1      33.977  -6.546 -24.438  0.00  0.00    +0.000 C 
ATOM     16  C   UNL     1      34.548  -5.786 -25.459  0.00  0.00    +0.000 C 
ATOM     17  C   UNL     1      32.718  -2.577 -25.084  0.00  0.00    +0.000 C 
ATOM     18  C   UNL     1      34.699  -3.682 -26.706  0.00  0.00    +0.000 C 
ATOM     19  C   UNL     1      33.290  -1.818 -26.105  0.00  0.00    +0.000 C 
ATOM     20  C   UNL     1      34.278  -2.368 -26.915  0.00  0.00    +0.000 C 
ENDBRANCH   6  11
BRANCH   4  21
ATOM     21  C   UNL     1      32.346 -11.420 -21.770  0.00  0.00    +0.001 C 
ATOM     22  C   UNL     1      32.782 -11.362 -23.094  0.00  0.00    -0.000 C 
ATOM     23  C   UNL     1      32.417 -12.624 -21.067  0.00  0.00    -0.000 C 
ATOM     24  C   UNL     1      33.358 -13.707 -23.010  0.00  0.00    -0.011 C 
ATOM     25  C   UNL     1      33.287 -12.504 -23.713  0.00  0.00    -0.004 C 
ATOM     26  C   UNL     1      32.922 -13.766 -21.686  0.00  0.00    -0.004 C 
BRANCH  24  27
ATOM     27  C   UNL     1      33.901 -14.928 -23.673  0.00  0.00    +0.136 C 
BRANCH  27  29
ATOM     28  O   UNL     1      33.232 -14.515 -25.978  0.00  0.00    -0.250 OA
ATOM     29  C   UNL     1      33.232 -15.245 -24.995  0.00  0.00    +0.318 C 
BRANCH  29  30
ATOM     30  O   UNL     1      32.618 -16.458 -24.975  0.00  0.00    -0.480 OA
ATOM     31  H   UNL     1      32.944 -17.157 -25.507  0.00  0.00    +0.295 HD
ENDBRANCH  29  30
ENDBRANCH  27  29
ENDBRANCH  24  27
ENDBRANCH   4  21
TORSDOF 5
ENDMDL
