MODEL 1
REMARK VINA RESULT:     -11.5      0.000      0.000
REMARK  Name = 24832022
REMARK  5 active torsions:
REMARK  status: ('A' for Active; 'I' for Inactive)
REMARK    1  A    between atoms: C_1  and  C_19
REMARK    2  A    between atoms: C_2  and  C_7
REMARK    3  A    between atoms: C_8  and  C_12
REMARK    4  A    between atoms: C_19  and  N_20
REMARK    5  A    between atoms: N_20  and  N_24
REMARK                            x       y       z     vdW  Elec       q    Type
REMARK                         _______ _______ _______ _____ _____    ______ ____
ROOT
ATOM      1  C   UNL     1      33.721 -21.684 -18.321  0.00  0.00    +0.003 C 
ATOM      2  C   UNL     1      35.075 -21.450 -18.081  0.00  0.00    +0.039 C 
ATOM      3  C   UNL     1      33.117 -21.165 -19.466  0.00  0.00    -0.002 C 
ATOM      4  C   UNL     1      35.825 -20.699 -18.985  0.00  0.00    +0.008 C 
ATOM      5  C   UNL     1      33.867 -20.413 -20.371  0.00  0.00    -0.000 C 
ATOM      6  C   UNL     1      35.221 -20.180 -20.130  0.00  0.00    +0.001 C 
ENDROOT
BRANCH   2   7
ATOM      7  C   UNL     1      35.719 -21.971 -16.913  0.00  0.00    -0.058 C 
ATOM      8  C   UNL     1      36.260 -22.408 -15.932  0.00  0.00    -0.031 C 
BRANCH   8  12
ATOM      9  N   UNL     1      36.441 -22.439 -13.597  0.00  0.00    -0.324 NA
ATOM     10  N   UNL     1      38.041 -23.836 -12.457  0.00  0.00    -0.337 NA
ATOM     11  N   UNL     1      36.588 -22.439 -11.255  0.00  0.00    -0.283 N 
ATOM     12  C   UNL     1      36.903 -22.929 -14.766  0.00  0.00    +0.171 C 
ATOM     13  C   UNL     1      38.453 -24.283 -13.662  0.00  0.00    +0.108 C 
ATOM     14  C   UNL     1      37.916 -23.861 -14.861  0.00  0.00    +0.124 C 
ATOM     15  C   UNL     1      39.554 -25.290 -13.663  0.00  0.00    +0.063 C 
ATOM     16  C   UNL     1      37.046 -22.929 -12.498  0.00  0.00    +0.196 C 
ATOM     17  H   UNL     1      35.864 -21.773 -11.225  0.00  0.00    +0.156 HD
ATOM     18  H   UNL     1      36.995 -22.762 -10.419  0.00  0.00    +0.156 HD
ENDBRANCH   8  12
ENDBRANCH   2   7
BRANCH   1  19
ATOM     19  C   UNL     1      32.886 -22.484 -17.374  0.00  0.00    +0.115 C 
BRANCH  19  20
ATOM     20  N   UNL     1      31.446 -22.143 -17.459  0.00  0.00    -0.215 NA
ATOM     21  H   UNL     1      31.004 -21.718 -18.229  0.00  0.00    +0.146 HD
BRANCH  20  24
ATOM     22  O   UNL     1      29.215 -22.906 -14.772  0.00  0.00    -0.404 OA
ATOM     23  O   UNL     1      28.595 -22.063 -16.826  0.00  0.00    -0.224 OA
ATOM     24  N   UNL     1      30.830 -22.513 -16.295  0.00  0.00    -0.163 N 
ATOM     25  C   UNL     1      31.463 -22.993 -15.207  0.00  0.00    +0.129 C 
ATOM     26  C   UNL     1      29.474 -22.448 -16.065  0.00  0.00    +0.427 C 
ATOM     27  C   UNL     1      30.502 -23.220 -14.322  0.00  0.00    +0.202 C 
ENDBRANCH  20  24
ENDBRANCH  19  20
ENDBRANCH   1  19
TORSDOF 5
ENDMDL
MODEL 2
REMARK VINA RESULT:     -11.2      0.848      1.703
REMARK  Name = 24832022
REMARK  5 active torsions:
REMARK  status: ('A' for Active; 'I' for Inactive)
REMARK    1  A    between atoms: C_1  and  C_19
REMARK    2  A    between atoms: C_2  and  C_7
REMARK    3  A    between atoms: C_8  and  C_12
REMARK    4  A    between atoms: C_19  and  N_20
REMARK    5  A    between atoms: N_20  and  N_24
REMARK                            x       y       z     vdW  Elec       q    Type
REMARK                         _______ _______ _______ _____ _____    ______ ____
ROOT
ATOM      1  C   UNL     1      33.767 -21.822 -18.181  0.00  0.00    +0.003 C 
ATOM      2  C   UNL     1      35.104 -21.615 -17.844  0.00  0.00    +0.039 C 
ATOM      3  C   UNL     1      33.254 -21.286 -19.362  0.00  0.00    -0.002 C 
ATOM      4  C   UNL     1      35.930 -20.875 -18.690  0.00  0.00    +0.008 C 
ATOM      5  C   UNL     1      34.080 -20.544 -20.208  0.00  0.00    -0.000 C 
ATOM      6  C   UNL     1      35.418 -20.339 -19.871  0.00  0.00    +0.001 C 
ENDROOT
BRANCH   2   7
ATOM      7  C   UNL     1      35.654 -22.154 -16.638  0.00  0.00    -0.058 C 
ATOM      8  C   UNL     1      36.116 -22.605 -15.624  0.00  0.00    -0.031 C 
BRANCH   8  12
ATOM      9  N   UNL     1      37.762 -23.912 -14.589  0.00  0.00    -0.324 NA
ATOM     10  N   UNL     1      37.822 -24.237 -12.201  0.00  0.00    -0.337 NA
ATOM     11  N   UNL     1      39.430 -25.228 -13.594  0.00  0.00    -0.283 N 
ATOM     12  C   UNL     1      36.666 -23.143 -14.418  0.00  0.00    +0.171 C 
ATOM     13  C   UNL     1      36.725 -23.459 -12.105  0.00  0.00    +0.108 C 
ATOM     14  C   UNL     1      36.098 -22.880 -13.189  0.00  0.00    +0.124 C 
ATOM     15  C   UNL     1      36.183 -23.231 -10.733  0.00  0.00    +0.063 C 
ATOM     16  C   UNL     1      38.282 -24.419 -13.455  0.00  0.00    +0.196 C 
ATOM     17  H   UNL     1      39.809 -25.396 -14.488  0.00  0.00    +0.156 HD
ATOM     18  H   UNL     1      39.852 -25.626 -12.799  0.00  0.00    +0.156 HD
ENDBRANCH   8  12
ENDBRANCH   2   7
BRANCH   1  19
ATOM     19  C   UNL     1      32.852 -22.610 -17.300  0.00  0.00    +0.115 C 
BRANCH  19  20
ATOM     20  N   UNL     1      31.440 -22.170 -17.408  0.00  0.00    -0.215 NA
ATOM     21  H   UNL     1      31.040 -21.721 -18.188  0.00  0.00    +0.146 HD
BRANCH  20  24
ATOM     22  O   UNL     1      29.114 -22.823 -14.774  0.00  0.00    -0.404 OA
ATOM     23  O   UNL     1      28.566 -22.083 -16.887  0.00  0.00    -0.224 OA
ATOM     24  N   UNL     1      30.783 -22.490 -16.252  0.00  0.00    -0.163 N 
ATOM     25  C   UNL     1      31.377 -22.912 -15.120  0.00  0.00    +0.129 C 
ATOM     26  C   UNL     1      29.418 -22.424 -16.077  0.00  0.00    +0.427 C 
ATOM     27  C   UNL     1      30.385 -23.104 -14.262  0.00  0.00    +0.202 C 
ENDBRANCH  20  24
ENDBRANCH  19  20
ENDBRANCH   1  19
TORSDOF 5
ENDMDL
MODEL 3
REMARK VINA RESULT:     -11.2      3.240      7.245
REMARK  Name = 24832022
REMARK  5 active torsions:
REMARK  status: ('A' for Active; 'I' for Inactive)
REMARK    1  A    between atoms: C_1  and  C_19
REMARK    2  A    between atoms: C_2  and  C_7
REMARK    3  A    between atoms: C_8  and  C_12
REMARK    4  A    between atoms: C_19  and  N_20
REMARK    5  A    between atoms: N_20  and  N_24
REMARK                            x       y       z     vdW  Elec       q    Type
REMARK                         _______ _______ _______ _____ _____    ______ ____
ROOT
ATOM      1  C   UNL     1      35.303 -22.647 -15.426  0.00  0.00    +0.003 C 
ATOM      2  C   UNL     1      34.332 -22.335 -16.378  0.00  0.00    +0.039 C 
ATOM      3  C   UNL     1      36.642 -22.343 -15.670  0.00  0.00    -0.002 C 
ATOM      4  C   UNL     1      34.700 -21.718 -17.573  0.00  0.00    +0.008 C 
ATOM      5  C   UNL     1      37.010 -21.727 -16.867  0.00  0.00    -0.000 C 
ATOM      6  C   UNL     1      36.039 -21.414 -17.819  0.00  0.00    +0.001 C 
ENDROOT
BRANCH   2   7
ATOM      7  C   UNL     1      32.952 -22.638 -16.151  0.00  0.00    -0.058 C 
ATOM      8  C   UNL     1      31.793 -22.891 -15.959  0.00  0.00    -0.031 C 
BRANCH   8  12
ATOM      9  N   UNL     1      30.190 -24.284 -14.969  0.00  0.00    -0.324 NA
ATOM     10  N   UNL     1      27.825 -23.891 -15.217  0.00  0.00    -0.337 NA
ATOM     11  N   UNL     1      28.620 -25.704 -13.958  0.00  0.00    -0.283 N 
ATOM     12  C   UNL     1      30.414 -23.194 -15.733  0.00  0.00    +0.171 C 
ATOM     13  C   UNL     1      28.121 -22.813 -15.973  0.00  0.00    +0.108 C 
ATOM     14  C   UNL     1      29.409 -22.414 -16.267  0.00  0.00    +0.124 C 
ATOM     15  C   UNL     1      26.969 -22.031 -16.507  0.00  0.00    +0.063 C 
ATOM     16  C   UNL     1      28.892 -24.571 -14.754  0.00  0.00    +0.196 C 
ATOM     17  H   UNL     1      29.362 -26.240 -13.593  0.00  0.00    +0.156 HD
ATOM     18  H   UNL     1      27.689 -25.961 -13.768  0.00  0.00    +0.156 HD
ENDBRANCH   8  12
ENDBRANCH   2   7
BRANCH   1  19
ATOM     19  C   UNL     1      34.946 -23.308 -14.134  0.00  0.00    +0.115 C 
BRANCH  19  20
ATOM     20  N   UNL     1      34.862 -24.783 -14.254  0.00  0.00    -0.215 NA
ATOM     21  H   UNL     1      34.045 -25.294 -14.454  0.00  0.00    +0.146 HD
BRANCH  20  24
ATOM     22  O   UNL     1      37.946 -26.591 -14.307  0.00  0.00    -0.404 OA
ATOM     23  O   UNL     1      36.223 -26.844 -15.817  0.00  0.00    -0.224 OA
ATOM     24  N   UNL     1      36.103 -25.320 -14.043  0.00  0.00    -0.163 N 
ATOM     25  C   UNL     1      36.932 -24.972 -13.041  0.00  0.00    +0.129 C 
ATOM     26  C   UNL     1      36.684 -26.294 -14.825  0.00  0.00    +0.427 C 
ATOM     27  C   UNL     1      38.009 -25.726 -13.208  0.00  0.00    +0.202 C 
ENDBRANCH  20  24
ENDBRANCH  19  20
ENDBRANCH   1  19
TORSDOF 5
ENDMDL
MODEL 4
REMARK VINA RESULT:     -11.1      2.800      6.752
REMARK  Name = 24832022
REMARK  5 active torsions:
REMARK  status: ('A' for Active; 'I' for Inactive)
REMARK    1  A    between atoms: C_1  and  C_19
REMARK    2  A    between atoms: C_2  and  C_7
REMARK    3  A    between atoms: C_8  and  C_12
REMARK    4  A    between atoms: C_19  and  N_20
REMARK    5  A    between atoms: N_20  and  N_24
REMARK                            x       y       z     vdW  Elec       q    Type
REMARK                         _______ _______ _______ _____ _____    ______ ____
ROOT
ATOM      1  C   UNL     1      34.757 -21.784 -17.607  0.00  0.00    +0.003 C 
ATOM      2  C   UNL     1      33.514 -21.582 -18.206  0.00  0.00    +0.039 C 
ATOM      3  C   UNL     1      35.920 -21.363 -18.252  0.00  0.00    -0.002 C 
ATOM      4  C   UNL     1      33.433 -20.956 -19.450  0.00  0.00    +0.008 C 
ATOM      5  C   UNL     1      35.838 -20.738 -19.497  0.00  0.00    -0.000 C 
ATOM      6  C   UNL     1      34.595 -20.535 -20.096  0.00  0.00    +0.001 C 
ENDROOT
BRANCH   2   7
ATOM      7  C   UNL     1      32.308 -22.006 -17.564  0.00  0.00    -0.058 C 
ATOM      8  C   UNL     1      31.293 -22.361 -17.025  0.00  0.00    -0.031 C 
BRANCH   8  12
ATOM      9  N   UNL     1      28.985 -22.092 -16.734  0.00  0.00    -0.324 NA
ATOM     10  N   UNL     1      27.714 -23.488 -15.235  0.00  0.00    -0.337 NA
ATOM     11  N   UNL     1      26.673 -21.788 -16.473  0.00  0.00    -0.283 N 
ATOM     12  C   UNL     1      30.088 -22.785 -16.383  0.00  0.00    +0.171 C 
ATOM     13  C   UNL     1      28.856 -24.138 -14.931  0.00  0.00    +0.108 C 
ATOM     14  C   UNL     1      30.084 -23.827 -15.479  0.00  0.00    +0.124 C 
ATOM     15  C   UNL     1      28.752 -25.251 -13.943  0.00  0.00    +0.063 C 
ATOM     16  C   UNL     1      27.848 -22.490 -16.131  0.00  0.00    +0.196 C 
ATOM     17  H   UNL     1      26.713 -21.048 -17.122  0.00  0.00    +0.156 HD
ATOM     18  H   UNL     1      25.813 -22.036 -16.063  0.00  0.00    +0.156 HD
ENDBRANCH   8  12
ENDBRANCH   2   7
BRANCH   1  19
ATOM     19  C   UNL     1      34.883 -22.451 -16.275  0.00  0.00    +0.115 C 
BRANCH  19  20
ATOM     20  N   UNL     1      36.272 -22.884 -15.985  0.00  0.00    -0.215 NA
ATOM     21  H   UNL     1      37.046 -22.752 -16.578  0.00  0.00    +0.146 HD
BRANCH  20  24
ATOM     22  O   UNL     1      36.173 -25.095 -13.178  0.00  0.00    -0.404 OA
ATOM     23  O   UNL     1      35.768 -25.695 -15.367  0.00  0.00    -0.224 OA
ATOM     24  N   UNL     1      36.302 -23.496 -14.762  0.00  0.00    -0.163 N 
ATOM     25  C   UNL     1      36.578 -22.879 -13.598  0.00  0.00    +0.129 C 
ATOM     26  C   UNL     1      36.052 -24.834 -14.544  0.00  0.00    +0.427 C 
ATOM     27  C   UNL     1      36.500 -23.830 -12.677  0.00  0.00    +0.202 C 
ENDBRANCH  20  24
ENDBRANCH  19  20
ENDBRANCH   1  19
TORSDOF 5
ENDMDL
MODEL 5
REMARK VINA RESULT:     -10.4      3.624      7.138
REMARK  Name = 24832022
REMARK  5 active torsions:
REMARK  status: ('A' for Active; 'I' for Inactive)
REMARK    1  A    between atoms: C_1  and  C_19
REMARK    2  A    between atoms: C_2  and  C_7
REMARK    3  A    between atoms: C_8  and  C_12
REMARK    4  A    between atoms: C_19  and  N_20
REMARK    5  A    between atoms: N_20  and  N_24
REMARK                            x       y       z     vdW  Elec       q    Type
REMARK                         _______ _______ _______ _____ _____    ______ ____
ROOT
ATOM      1  C   UNL     1      35.051 -21.905 -17.056  0.00  0.00    +0.003 C 
ATOM      2  C   UNL     1      34.517 -22.482 -15.905  0.00  0.00    +0.039 C 
ATOM      3  C   UNL     1      36.419 -21.650 -17.138  0.00  0.00    -0.002 C 
ATOM      4  C   UNL     1      35.351 -22.807 -14.836  0.00  0.00    +0.008 C 
ATOM      5  C   UNL     1      37.254 -21.974 -16.068  0.00  0.00    -0.000 C 
ATOM      6  C   UNL     1      36.720 -22.552 -14.917  0.00  0.00    +0.001 C 
ENDROOT
BRANCH   2   7
ATOM      7  C   UNL     1      33.116 -22.753 -15.795  0.00  0.00    -0.058 C 
ATOM      8  C   UNL     1      31.939 -22.980 -15.705  0.00  0.00    -0.031 C 
BRANCH   8  12
ATOM      9  N   UNL     1      30.224 -24.316 -14.830  0.00  0.00    -0.324 NA
ATOM     10  N   UNL     1      27.900 -23.881 -15.298  0.00  0.00    -0.337 NA
ATOM     11  N   UNL     1      28.539 -25.679 -13.932  0.00  0.00    -0.283 N 
ATOM     12  C   UNL     1      30.538 -23.250 -15.596  0.00  0.00    +0.171 C 
ATOM     13  C   UNL     1      28.286 -22.828 -16.048  0.00  0.00    +0.108 C 
ATOM     14  C   UNL     1      29.603 -22.462 -16.235  0.00  0.00    +0.124 C 
ATOM     15  C   UNL     1      27.203 -22.036 -16.701  0.00  0.00    +0.063 C 
ATOM     16  C   UNL     1      28.906 -24.571 -14.726  0.00  0.00    +0.196 C 
ATOM     17  H   UNL     1      29.233 -26.220 -13.491  0.00  0.00    +0.156 HD
ATOM     18  H   UNL     1      27.589 -25.912 -13.821  0.00  0.00    +0.156 HD
ENDBRANCH   8  12
ENDBRANCH   2   7
BRANCH   1  19
ATOM     19  C   UNL     1      34.187 -21.543 -18.221  0.00  0.00    +0.115 C 
BRANCH  19  20
ATOM     20  N   UNL     1      34.904 -21.647 -19.515  0.00  0.00    -0.215 NA
ATOM     21  H   UNL     1      35.296 -22.470 -19.886  0.00  0.00    +0.146 HD
BRANCH  20  24
ATOM     22  O   UNL     1      34.249 -18.527 -21.132  0.00  0.00    -0.404 OA
ATOM     23  O   UNL     1      32.666 -20.119 -20.606  0.00  0.00    -0.224 OA
ATOM     24  N   UNL     1      34.935 -20.415 -20.108  0.00  0.00    -0.163 N 
ATOM     25  C   UNL     1      36.045 -19.676 -20.294  0.00  0.00    +0.129 C 
ATOM     26  C   UNL     1      33.834 -19.751 -20.603  0.00  0.00    +0.427 C 
ATOM     27  C   UNL     1      35.627 -18.571 -20.896  0.00  0.00    +0.202 C 
ENDBRANCH  20  24
ENDBRANCH  19  20
ENDBRANCH   1  19
TORSDOF 5
ENDMDL
MODEL 6
REMARK VINA RESULT:     -10.2      3.253      7.345
REMARK  Name = 24832022
REMARK  5 active torsions:
REMARK  status: ('A' for Active; 'I' for Inactive)
REMARK    1  A    between atoms: C_1  and  C_19
REMARK    2  A    between atoms: C_2  and  C_7
REMARK    3  A    between atoms: C_8  and  C_12
REMARK    4  A    between atoms: C_19  and  N_20
REMARK    5  A    between atoms: N_20  and  N_24
REMARK                            x       y       z     vdW  Elec       q    Type
REMARK                         _______ _______ _______ _____ _____    ______ ____
ROOT
ATOM      1  C   UNL     1      31.352 -24.009 -14.037  0.00  0.00    +0.003 C 
ATOM      2  C   UNL     1      30.732 -23.679 -15.241  0.00  0.00    +0.039 C 
ATOM      3  C   UNL     1      30.638 -24.680 -13.045  0.00  0.00    -0.002 C 
ATOM      4  C   UNL     1      29.397 -24.022 -15.455  0.00  0.00    +0.008 C 
ATOM      5  C   UNL     1      29.302 -25.023 -13.258  0.00  0.00    -0.000 C 
ATOM      6  C   UNL     1      28.682 -24.693 -14.463  0.00  0.00    +0.001 C 
ENDROOT
BRANCH   2   7
ATOM      7  C   UNL     1      31.443 -22.989 -16.274  0.00  0.00    -0.058 C 
ATOM      8  C   UNL     1      32.039 -22.410 -17.142  0.00  0.00    -0.031 C 
BRANCH   8  12
ATOM      9  N   UNL     1      31.969 -21.095 -19.080  0.00  0.00    -0.324 NA
ATOM     10  N   UNL     1      33.973 -20.366 -20.204  0.00  0.00    -0.337 NA
ATOM     11  N   UNL     1      31.853 -19.777 -21.017  0.00  0.00    -0.283 N 
ATOM     12  C   UNL     1      32.750 -21.722 -18.175  0.00  0.00    +0.171 C 
ATOM     13  C   UNL     1      34.692 -21.015 -19.264  0.00  0.00    +0.108 C 
ATOM     14  C   UNL     1      34.129 -21.717 -18.217  0.00  0.00    +0.124 C 
ATOM     15  C   UNL     1      36.177 -20.953 -19.394  0.00  0.00    +0.063 C 
ATOM     16  C   UNL     1      32.637 -20.446 -20.053  0.00  0.00    +0.196 C 
ATOM     17  H   UNL     1      30.870 -19.802 -20.957  0.00  0.00    +0.156 HD
ATOM     18  H   UNL     1      32.288 -19.287 -21.751  0.00  0.00    +0.156 HD
ENDBRANCH   8  12
ENDBRANCH   2   7
BRANCH   1  19
ATOM     19  C   UNL     1      32.781 -23.657 -13.772  0.00  0.00    +0.115 C 
BRANCH  19  20
ATOM     20  N   UNL     1      33.317 -24.328 -12.563  0.00  0.00    -0.215 NA
ATOM     21  H   UNL     1      32.842 -25.003 -12.027  0.00  0.00    +0.146 HD
BRANCH  20  24
ATOM     22  O   UNL     1      36.532 -23.458 -11.264  0.00  0.00    -0.404 OA
ATOM     23  O   UNL     1      34.954 -24.743 -10.179  0.00  0.00    -0.224 OA
ATOM     24  N   UNL     1      34.577 -23.858 -12.314  0.00  0.00    -0.163 N 
ATOM     25  C   UNL     1      35.297 -23.096 -13.160  0.00  0.00    +0.129 C 
ATOM     26  C   UNL     1      35.293 -24.094 -11.161  0.00  0.00    +0.427 C 
ATOM     27  C   UNL     1      36.442 -22.870 -12.530  0.00  0.00    +0.202 C 
ENDBRANCH  20  24
ENDBRANCH  19  20
ENDBRANCH   1  19
TORSDOF 5
ENDMDL
MODEL 7
REMARK VINA RESULT:     -10.2      2.449      4.738
REMARK  Name = 24832022
REMARK  5 active torsions:
REMARK  status: ('A' for Active; 'I' for Inactive)
REMARK    1  A    between atoms: C_1  and  C_19
REMARK    2  A    between atoms: C_2  and  C_7
REMARK    3  A    between atoms: C_8  and  C_12
REMARK    4  A    between atoms: C_19  and  N_20
REMARK    5  A    between atoms: N_20  and  N_24
REMARK                            x       y       z     vdW  Elec       q    Type
REMARK                         _______ _______ _______ _____ _____    ______ ____
ROOT
ATOM      1  C   UNL     1      31.286 -22.640 -16.158  0.00  0.00    +0.003 C 
ATOM      2  C   UNL     1      31.287 -22.931 -14.794  0.00  0.00    +0.039 C 
ATOM      3  C   UNL     1      30.094 -22.307 -16.800  0.00  0.00    -0.002 C 
ATOM      4  C   UNL     1      30.095 -22.887 -14.071  0.00  0.00    +0.008 C 
ATOM      5  C   UNL     1      28.901 -22.264 -16.076  0.00  0.00    -0.000 C 
ATOM      6  C   UNL     1      28.902 -22.554 -14.712  0.00  0.00    +0.001 C 
ENDROOT
BRANCH   2   7
ATOM      7  C   UNL     1      32.497 -23.277 -14.113  0.00  0.00    -0.058 C 
ATOM      8  C   UNL     1      33.514 -23.568 -13.541  0.00  0.00    -0.031 C 
BRANCH   8  12
ATOM      9  N   UNL     1      34.764 -23.552 -11.560  0.00  0.00    -0.324 NA
ATOM     10  N   UNL     1      36.972 -24.511 -11.434  0.00  0.00    -0.337 NA
ATOM     11  N   UNL     1      35.981 -23.515  -9.554  0.00  0.00    -0.283 N 
ATOM     12  C   UNL     1      34.723 -23.914 -12.860  0.00  0.00    +0.171 C 
ATOM     13  C   UNL     1      36.862 -24.843 -12.737  0.00  0.00    +0.108 C 
ATOM     14  C   UNL     1      35.751 -24.567 -13.507  0.00  0.00    +0.124 C 
ATOM     15  C   UNL     1      38.026 -25.547 -13.350  0.00  0.00    +0.063 C 
ATOM     16  C   UNL     1      35.902 -23.878 -10.917  0.00  0.00    +0.196 C 
ATOM     17  H   UNL     1      35.228 -23.049  -9.124  0.00  0.00    +0.156 HD
ATOM     18  H   UNL     1      36.789 -23.728  -9.035  0.00  0.00    +0.156 HD
ENDBRANCH   8  12
ENDBRANCH   2   7
BRANCH   1  19
ATOM     19  C   UNL     1      32.544 -22.677 -16.965  0.00  0.00    +0.115 C 
BRANCH  19  20
ATOM     20  N   UNL     1      32.356 -22.144 -18.336  0.00  0.00    -0.215 NA
ATOM     21  H   UNL     1      31.531 -22.216 -18.868  0.00  0.00    +0.146 HD
BRANCH  20  24
ATOM     22  O   UNL     1      34.928 -20.181 -19.854  0.00  0.00    -0.404 OA
ATOM     23  O   UNL     1      32.684 -20.072 -20.369  0.00  0.00    -0.224 OA
ATOM     24  N   UNL     1      33.512 -21.536 -18.741  0.00  0.00    -0.163 N 
ATOM     25  C   UNL     1      34.737 -21.804 -18.249  0.00  0.00    +0.129 C 
ATOM     26  C   UNL     1      33.593 -20.561 -19.711  0.00  0.00    +0.427 C 
ATOM     27  C   UNL     1      35.557 -21.001 -18.912  0.00  0.00    +0.202 C 
ENDBRANCH  20  24
ENDBRANCH  19  20
ENDBRANCH   1  19
TORSDOF 5
ENDMDL
MODEL 8
REMARK VINA RESULT:     -10.0      2.069      6.113
REMARK  Name = 24832022
REMARK  5 active torsions:
REMARK  status: ('A' for Active; 'I' for Inactive)
REMARK    1  A    between atoms: C_1  and  C_19
REMARK    2  A    between atoms: C_2  and  C_7
REMARK    3  A    between atoms: C_8  and  C_12
REMARK    4  A    between atoms: C_19  and  N_20
REMARK    5  A    between atoms: N_20  and  N_24
REMARK                            x       y       z     vdW  Elec       q    Type
REMARK                         _______ _______ _______ _____ _____    ______ ____
ROOT
ATOM      1  C   UNL     1      35.716 -23.752 -13.095  0.00  0.00    +0.003 C 
ATOM      2  C   UNL     1      36.522 -23.653 -14.230  0.00  0.00    +0.039 C 
ATOM      3  C   UNL     1      36.197 -24.389 -11.952  0.00  0.00    -0.002 C 
ATOM      4  C   UNL     1      37.809 -24.189 -14.220  0.00  0.00    +0.008 C 
ATOM      5  C   UNL     1      37.485 -24.926 -11.943  0.00  0.00    -0.000 C 
ATOM      6  C   UNL     1      38.291 -24.826 -13.076  0.00  0.00    +0.001 C 
ENDROOT
BRANCH   2   7
ATOM      7  C   UNL     1      36.051 -23.004 -15.415  0.00  0.00    -0.058 C 
ATOM      8  C   UNL     1      35.657 -22.460 -16.412  0.00  0.00    -0.031 C 
BRANCH   8  12
ATOM      9  N   UNL     1      33.898 -22.060 -17.906  0.00  0.00    -0.324 NA
ATOM     10  N   UNL     1      34.156 -20.637 -19.835  0.00  0.00    -0.337 NA
ATOM     11  N   UNL     1      32.108 -21.686 -19.377  0.00  0.00    -0.283 N 
ATOM     12  C   UNL     1      35.187 -21.811 -17.597  0.00  0.00    +0.171 C 
ATOM     13  C   UNL     1      35.437 -20.432 -19.465  0.00  0.00    +0.108 C 
ATOM     14  C   UNL     1      36.013 -20.998 -18.346  0.00  0.00    +0.124 C 
ATOM     15  C   UNL     1      36.252 -19.537 -20.338  0.00  0.00    +0.063 C 
ATOM     16  C   UNL     1      33.453 -21.449 -19.022  0.00  0.00    +0.196 C 
ATOM     17  H   UNL     1      31.547 -22.273 -18.819  0.00  0.00    +0.156 HD
ATOM     18  H   UNL     1      31.730 -21.266 -20.182  0.00  0.00    +0.156 HD
ENDBRANCH   8  12
ENDBRANCH   2   7
BRANCH   1  19
ATOM     19  C   UNL     1      34.331 -23.189 -13.069  0.00  0.00    +0.115 C 
BRANCH  19  20
ATOM     20  N   UNL     1      33.292 -24.243 -12.981  0.00  0.00    -0.215 NA
ATOM     21  H   UNL     1      33.351 -25.059 -12.434  0.00  0.00    +0.146 HD
BRANCH  20  24
ATOM     22  O   UNL     1      30.124 -23.612 -14.514  0.00  0.00    -0.404 OA
ATOM     23  O   UNL     1      30.439 -24.574 -12.442  0.00  0.00    -0.224 OA
ATOM     24  N   UNL     1      32.237 -23.897 -13.781  0.00  0.00    -0.163 N 
ATOM     25  C   UNL     1      32.346 -23.326 -14.995  0.00  0.00    +0.129 C 
ATOM     26  C   UNL     1      30.910 -24.084 -13.461  0.00  0.00    +0.427 C 
ATOM     27  C   UNL     1      31.098 -23.164 -15.413  0.00  0.00    +0.202 C 
ENDBRANCH  20  24
ENDBRANCH  19  20
ENDBRANCH   1  19
TORSDOF 5
ENDMDL
MODEL 9
REMARK VINA RESULT:      -9.7      3.167      6.485
REMARK  Name = 24832022
REMARK  5 active torsions:
REMARK  status: ('A' for Active; 'I' for Inactive)
REMARK    1  A    between atoms: C_1  and  C_19
REMARK    2  A    between atoms: C_2  and  C_7
REMARK    3  A    between atoms: C_8  and  C_12
REMARK    4  A    between atoms: C_19  and  N_20
REMARK    5  A    between atoms: N_20  and  N_24
REMARK                            x       y       z     vdW  Elec       q    Type
REMARK                         _______ _______ _______ _____ _____    ______ ____
ROOT
ATOM      1  C   UNL     1      30.862 -24.390 -14.280  0.00  0.00    +0.003 C 
ATOM      2  C   UNL     1      30.680 -23.615 -15.425  0.00  0.00    +0.039 C 
ATOM      3  C   UNL     1      29.757 -24.914 -13.610  0.00  0.00    -0.002 C 
ATOM      4  C   UNL     1      29.393 -23.365 -15.902  0.00  0.00    +0.008 C 
ATOM      5  C   UNL     1      28.469 -24.663 -14.086  0.00  0.00    -0.000 C 
ATOM      6  C   UNL     1      28.288 -23.889 -15.232  0.00  0.00    +0.001 C 
ENDROOT
BRANCH   2   7
ATOM      7  C   UNL     1      31.798 -23.065 -16.130  0.00  0.00    -0.058 C 
ATOM      8  C   UNL     1      32.737 -22.603 -16.721  0.00  0.00    -0.031 C 
BRANCH   8  12
ATOM      9  N   UNL     1      35.040 -22.179 -16.796  0.00  0.00    -0.324 NA
ATOM     10  N   UNL     1      36.072 -21.047 -18.657  0.00  0.00    -0.337 NA
ATOM     11  N   UNL     1      37.351 -21.776 -16.829  0.00  0.00    -0.283 N 
ATOM     12  C   UNL     1      33.853 -22.052 -17.426  0.00  0.00    +0.171 C 
ATOM     13  C   UNL     1      34.854 -20.956 -19.229  0.00  0.00    +0.108 C 
ATOM     14  C   UNL     1      33.699 -21.445 -18.655  0.00  0.00    +0.124 C 
ATOM     15  C   UNL     1      34.787 -20.282 -20.559  0.00  0.00    +0.063 C 
ATOM     16  C   UNL     1      36.092 -21.662 -17.458  0.00  0.00    +0.196 C 
ATOM     17  H   UNL     1      37.424 -22.215 -15.951  0.00  0.00    +0.156 HD
ATOM     18  H   UNL     1      38.155 -21.415 -17.267  0.00  0.00    +0.156 HD
ENDBRANCH   8  12
ENDBRANCH   2   7
BRANCH   1  19
ATOM     19  C   UNL     1      32.226 -24.678 -13.740  0.00  0.00    +0.115 C 
BRANCH  19  20
ATOM     20  N   UNL     1      32.653 -23.691 -12.720  0.00  0.00    -0.215 NA
ATOM     21  H   UNL     1      32.052 -23.188 -12.125  0.00  0.00    +0.146 HD
BRANCH  20  24
ATOM     22  O   UNL     1      36.173 -23.761 -12.100  0.00  0.00    -0.404 OA
ATOM     23  O   UNL     1      34.549 -24.561 -10.673  0.00  0.00    -0.224 OA
ATOM     24  N   UNL     1      34.018 -23.593 -12.738  0.00  0.00    -0.163 N 
ATOM     25  C   UNL     1      34.738 -23.057 -13.742  0.00  0.00    +0.129 C 
ATOM     26  C   UNL     1      34.853 -24.026 -11.732  0.00  0.00    +0.427 C 
ATOM     27  C   UNL     1      36.001 -23.163 -13.353  0.00  0.00    +0.202 C 
ENDBRANCH  20  24
ENDBRANCH  19  20
ENDBRANCH   1  19
TORSDOF 5
ENDMDL
