MODEL 1
REMARK VINA RESULT:     -12.8      0.000      0.000
REMARK  Name = 9799284
REMARK  5 active torsions:
REMARK  status: ('A' for Active; 'I' for Inactive)
REMARK    1  A    between atoms: N_1  and  C_19
REMARK    2  A    between atoms: C_2  and  C_8
REMARK    3  A    between atoms: C_8  and  N_10
REMARK    4  A    between atoms: C_19  and  C_21
REMARK    5  A    between atoms: C_21  and  C_23
REMARK                            x       y       z     vdW  Elec       q    Type
REMARK                         _______ _______ _______ _____ _____    ______ ____
ROOT
ATOM      1  N   UNL     1      33.661 -14.783 -22.640  0.00  0.00    +0.392 N 
ATOM      2  C   UNL     1      32.367 -12.388 -21.550  0.00  0.00    +0.016 C 
ATOM      3  C   UNL     1      32.262 -12.779 -23.028  0.00  0.00    -0.021 C 
ATOM      4  C   UNL     1      32.636 -13.636 -20.702  0.00  0.00    -0.021 C 
ATOM      5  C   UNL     1      33.480 -13.589 -23.477  0.00  0.00    -0.077 C 
ATOM      6  C   UNL     1      33.841 -14.418 -21.228  0.00  0.00    -0.077 C 
ATOM      7  H   UNL     1      32.815 -15.349 -22.713  0.00  0.00    -0.079 HD
ENDROOT
BRANCH   2   8
ATOM      8  C   UNL     1      31.106 -11.667 -21.081  0.00  0.00    +0.094 C 
BRANCH   8  10
ATOM      9  O   UNL     1      31.112  -9.750 -18.749  0.00  0.00    -0.270 OA
ATOM     10  N   UNL     1      31.305 -10.249 -21.054  0.00  0.00    -0.272 N 
ATOM     11  C   UNL     1      31.557  -9.479 -22.275  0.00  0.00    +0.121 C 
ATOM     12  C   UNL     1      31.290  -9.440 -19.912  0.00  0.00    +0.249 C 
ATOM     13  C   UNL     1      31.697  -8.089 -21.756  0.00  0.00    +0.002 C 
ATOM     14  C   UNL     1      31.540  -8.069 -20.370  0.00  0.00    +0.051 C 
ATOM     15  C   UNL     1      31.946  -6.918 -22.447  0.00  0.00    -0.002 C 
ATOM     16  C   UNL     1      31.621  -6.907 -19.626  0.00  0.00    +0.004 C 
ATOM     17  C   UNL     1      32.033  -5.728 -21.718  0.00  0.00    -0.000 C 
ATOM     18  C   UNL     1      31.873  -5.723 -20.320  0.00  0.00    +0.000 C 
ENDBRANCH   8  10
ENDBRANCH   2   8
BRANCH   1  19
ATOM     19  C   UNL     1      34.796 -15.573 -23.114  0.00  0.00    -0.006 C 
BRANCH  19  21
ATOM     20  O   UNL     1      33.691 -17.425 -24.197  0.00  0.00    -0.294 OA
ATOM     21  C   UNL     1      34.368 -17.023 -23.253  0.00  0.00    +0.152 C 
BRANCH  21  23
ATOM     22  F   UNL     1      35.946 -20.648 -19.311  0.00  0.00    -0.204 F 
ATOM     23  C   UNL     1      34.790 -17.993 -22.200  0.00  0.00    +0.033 C 
ATOM     24  C   UNL     1      36.059 -17.887 -21.678  0.00  0.00    +0.005 C 
ATOM     25  C   UNL     1      33.894 -18.954 -21.791  0.00  0.00    +0.005 C 
ATOM     26  C   UNL     1      36.453 -18.792 -20.692  0.00  0.00    +0.030 C 
ATOM     27  C   UNL     1      34.287 -19.858 -20.807  0.00  0.00    +0.030 C 
ATOM     28  C   UNL     1      35.567 -19.778 -20.257  0.00  0.00    +0.140 C 
ENDBRANCH  21  23
ENDBRANCH  19  21
ENDBRANCH   1  19
TORSDOF 5
ENDMDL
MODEL 2
REMARK VINA RESULT:     -12.8      4.099      7.356
REMARK  Name = 9799284
REMARK  5 active torsions:
REMARK  status: ('A' for Active; 'I' for Inactive)
REMARK    1  A    between atoms: N_1  and  C_19
REMARK    2  A    between atoms: C_2  and  C_8
REMARK    3  A    between atoms: C_8  and  N_10
REMARK    4  A    between atoms: C_19  and  C_21
REMARK    5  A    between atoms: C_21  and  C_23
REMARK                            x       y       z     vdW  Elec       q    Type
REMARK                         _______ _______ _______ _____ _____    ______ ____
ROOT
ATOM      1  N   UNL     1      35.026 -20.794 -19.681  0.00  0.00    +0.392 N 
ATOM      2  C   UNL     1      34.884 -18.477 -21.471  0.00  0.00    +0.016 C 
ATOM      3  C   UNL     1      36.211 -19.141 -21.090  0.00  0.00    -0.021 C 
ATOM      4  C   UNL     1      33.742 -19.491 -21.347  0.00  0.00    -0.021 C 
ATOM      5  C   UNL     1      36.122 -19.817 -19.720  0.00  0.00    -0.077 C 
ATOM      6  C   UNL     1      33.734 -20.155 -19.968  0.00  0.00    -0.077 C 
ATOM      7  H   UNL     1      35.200 -21.491 -20.406  0.00  0.00    -0.079 HD
ENDROOT
BRANCH   2   8
ATOM      8  C   UNL     1      34.947 -17.892 -22.880  0.00  0.00    +0.094 C 
BRANCH   8  10
ATOM      9  O   UNL     1      33.864 -16.246 -25.167  0.00  0.00    -0.270 OA
ATOM     10  N   UNL     1      34.464 -16.543 -22.897  0.00  0.00    -0.272 N 
ATOM     11  C   UNL     1      34.431 -15.716 -21.688  0.00  0.00    +0.121 C 
ATOM     12  C   UNL     1      33.978 -15.861 -24.018  0.00  0.00    +0.249 C 
ATOM     13  C   UNL     1      33.864 -14.433 -22.192  0.00  0.00    +0.002 C 
ATOM     14  C   UNL     1      33.599 -14.520 -23.559  0.00  0.00    +0.051 C 
ATOM     15  C   UNL     1      33.597 -13.265 -21.502  0.00  0.00    -0.002 C 
ATOM     16  C   UNL     1      33.068 -13.472 -24.284  0.00  0.00    +0.004 C 
ATOM     17  C   UNL     1      33.058 -12.188 -22.213  0.00  0.00    -0.000 C 
ATOM     18  C   UNL     1      32.796 -12.291 -23.592  0.00  0.00    +0.000 C 
ENDBRANCH   8  10
ENDBRANCH   2   8
BRANCH   1  19
ATOM     19  C   UNL     1      34.986 -21.468 -18.384  0.00  0.00    -0.006 C 
BRANCH  19  21
ATOM     20  O   UNL     1      33.516 -23.132 -19.329  0.00  0.00    -0.294 OA
ATOM     21  C   UNL     1      33.816 -22.435 -18.362  0.00  0.00    +0.152 C 
BRANCH  21  23
ATOM     22  F   UNL     1      30.776 -22.828 -13.696  0.00  0.00    -0.204 F 
ATOM     23  C   UNL     1      33.003 -22.540 -17.114  0.00  0.00    +0.033 C 
ATOM     24  C   UNL     1      31.639 -22.378 -17.202  0.00  0.00    +0.005 C 
ATOM     25  C   UNL     1      33.649 -22.794 -15.927  0.00  0.00    +0.005 C 
ATOM     26  C   UNL     1      30.879 -22.477 -16.036  0.00  0.00    +0.030 C 
ATOM     27  C   UNL     1      32.890 -22.893 -14.761  0.00  0.00    +0.030 C 
ATOM     28  C   UNL     1      31.505 -22.734 -14.816  0.00  0.00    +0.140 C 
ENDBRANCH  21  23
ENDBRANCH  19  21
ENDBRANCH   1  19
TORSDOF 5
ENDMDL
MODEL 3
REMARK VINA RESULT:     -12.6      5.232     11.024
REMARK  Name = 9799284
REMARK  5 active torsions:
REMARK  status: ('A' for Active; 'I' for Inactive)
REMARK    1  A    between atoms: N_1  and  C_19
REMARK    2  A    between atoms: C_2  and  C_8
REMARK    3  A    between atoms: C_8  and  N_10
REMARK    4  A    between atoms: C_19  and  C_21
REMARK    5  A    between atoms: C_21  and  C_23
REMARK                            x       y       z     vdW  Elec       q    Type
REMARK                         _______ _______ _______ _____ _____    ______ ____
ROOT
ATOM      1  N   UNL     1      35.201 -19.207 -20.946  0.00  0.00    +0.392 N 
ATOM      2  C   UNL     1      33.976 -21.143 -19.116  0.00  0.00    +0.016 C 
ATOM      3  C   UNL     1      33.181 -20.438 -20.221  0.00  0.00    -0.021 C 
ATOM      4  C   UNL     1      35.459 -21.197 -19.500  0.00  0.00    -0.021 C 
ATOM      5  C   UNL     1      33.789 -19.077 -20.562  0.00  0.00    -0.077 C 
ATOM      6  C   UNL     1      35.991 -19.810 -19.865  0.00  0.00    -0.077 C 
ATOM      7  H   UNL     1      35.251 -19.826 -21.755  0.00  0.00    -0.079 HD
ENDROOT
BRANCH   2   8
ATOM      8  C   UNL     1      33.426 -22.541 -18.850  0.00  0.00    +0.094 C 
BRANCH   8  10
ATOM      9  O   UNL     1      34.811 -23.314 -16.281  0.00  0.00    -0.270 OA
ATOM     10  N   UNL     1      32.908 -22.645 -17.519  0.00  0.00    -0.272 N 
ATOM     11  C   UNL     1      31.505 -22.357 -17.208  0.00  0.00    +0.121 C 
ATOM     12  C   UNL     1      33.636 -23.014 -16.381  0.00  0.00    +0.249 C 
ATOM     13  C   UNL     1      31.446 -22.593 -15.738  0.00  0.00    +0.002 C 
ATOM     14  C   UNL     1      32.697 -22.978 -15.256  0.00  0.00    +0.051 C 
ATOM     15  C   UNL     1      30.371 -22.479 -14.877  0.00  0.00    -0.002 C 
ATOM     16  C   UNL     1      32.928 -23.260 -13.923  0.00  0.00    +0.004 C 
ATOM     17  C   UNL     1      30.577 -22.759 -13.523  0.00  0.00    -0.000 C 
ATOM     18  C   UNL     1      31.845 -23.146 -13.050  0.00  0.00    +0.000 C 
ENDBRANCH   8  10
ENDBRANCH   2   8
BRANCH   1  19
ATOM     19  C   UNL     1      35.753 -17.905 -21.319  0.00  0.00    -0.006 C 
BRANCH  19  21
ATOM     20  O   UNL     1      34.597 -17.923 -23.438  0.00  0.00    -0.294 OA
ATOM     21  C   UNL     1      34.901 -17.302 -22.422  0.00  0.00    +0.152 C 
BRANCH  21  23
ATOM     22  F   UNL     1      33.086 -12.058 -21.811  0.00  0.00    -0.204 F 
ATOM     23  C   UNL     1      34.417 -15.899 -22.258  0.00  0.00    +0.033 C 
ATOM     24  C   UNL     1      34.243 -15.127 -23.384  0.00  0.00    +0.005 C 
ATOM     25  C   UNL     1      34.162 -15.434 -20.989  0.00  0.00    +0.005 C 
ATOM     26  C   UNL     1      33.789 -13.817 -23.232  0.00  0.00    +0.030 C 
ATOM     27  C   UNL     1      33.708 -14.124 -20.836  0.00  0.00    +0.030 C 
ATOM     28  C   UNL     1      33.522 -13.316 -21.958  0.00  0.00    +0.140 C 
ENDBRANCH  21  23
ENDBRANCH  19  21
ENDBRANCH   1  19
TORSDOF 5
ENDMDL
MODEL 4
REMARK VINA RESULT:     -11.9      3.712     10.203
REMARK  Name = 9799284
REMARK  5 active torsions:
REMARK  status: ('A' for Active; 'I' for Inactive)
REMARK    1  A    between atoms: N_1  and  C_19
REMARK    2  A    between atoms: C_2  and  C_8
REMARK    3  A    between atoms: C_8  and  N_10
REMARK    4  A    between atoms: C_19  and  C_21
REMARK    5  A    between atoms: C_21  and  C_23
REMARK                            x       y       z     vdW  Elec       q    Type
REMARK                         _______ _______ _______ _____ _____    ______ ____
ROOT
ATOM      1  N   UNL     1      33.300 -13.277 -22.601  0.00  0.00    +0.392 N 
ATOM      2  C   UNL     1      34.062 -16.107 -22.671  0.00  0.00    +0.016 C 
ATOM      3  C   UNL     1      34.028 -15.233 -23.929  0.00  0.00    -0.021 C 
ATOM      4  C   UNL     1      34.278 -15.227 -21.435  0.00  0.00    -0.021 C 
ATOM      5  C   UNL     1      33.017 -14.094 -23.788  0.00  0.00    -0.077 C 
ATOM      6  C   UNL     1      33.259 -14.088 -21.377  0.00  0.00    -0.077 C 
ATOM      7  H   UNL     1      34.243 -12.899 -22.697  0.00  0.00    -0.079 HD
ENDROOT
BRANCH   2   8
ATOM      8  C   UNL     1      35.142 -17.180 -22.776  0.00  0.00    +0.094 C 
BRANCH   8  10
ATOM      9  O   UNL     1      37.068 -18.513 -20.870  0.00  0.00    -0.270 OA
ATOM     10  N   UNL     1      34.920 -18.226 -21.823  0.00  0.00    -0.272 N 
ATOM     11  C   UNL     1      33.601 -18.838 -21.636  0.00  0.00    +0.121 C 
ATOM     12  C   UNL     1      35.886 -18.784 -20.976  0.00  0.00    +0.249 C 
ATOM     13  C   UNL     1      33.862 -19.844 -20.568  0.00  0.00    +0.002 C 
ATOM     14  C   UNL     1      35.202 -19.811 -20.183  0.00  0.00    +0.051 C 
ATOM     15  C   UNL     1      32.986 -20.732 -19.972  0.00  0.00    -0.002 C 
ATOM     16  C   UNL     1      35.720 -20.641 -19.208  0.00  0.00    +0.004 C 
ATOM     17  C   UNL     1      33.484 -21.584 -18.981  0.00  0.00    -0.000 C 
ATOM     18  C   UNL     1      34.839 -21.539 -18.603  0.00  0.00    +0.000 C 
ENDBRANCH   8  10
ENDBRANCH   2   8
BRANCH   1  19
ATOM     19  C   UNL     1      32.358 -12.162 -22.509  0.00  0.00    -0.006 C 
BRANCH  19  21
ATOM     20  O   UNL     1      33.864 -11.047 -24.030  0.00  0.00    -0.294 OA
ATOM     21  C   UNL     1      32.945 -10.956 -23.220  0.00  0.00    +0.152 C 
BRANCH  21  23
ATOM     22  F   UNL     1      30.823  -5.916 -22.093  0.00  0.00    -0.204 F 
ATOM     23  C   UNL     1      32.377  -9.608 -22.917  0.00  0.00    +0.033 C 
ATOM     24  C   UNL     1      33.160  -8.499 -23.142  0.00  0.00    +0.005 C 
ATOM     25  C   UNL     1      31.095  -9.528 -22.427  0.00  0.00    +0.005 C 
ATOM     26  C   UNL     1      32.630  -7.239 -22.862  0.00  0.00    +0.030 C 
ATOM     27  C   UNL     1      30.564  -8.270 -22.147  0.00  0.00    +0.030 C 
ATOM     28  C   UNL     1      31.332  -7.125 -22.363  0.00  0.00    +0.140 C 
ENDBRANCH  21  23
ENDBRANCH  19  21
ENDBRANCH   1  19
TORSDOF 5
ENDMDL
MODEL 5
REMARK VINA RESULT:     -11.7      4.795      8.259
REMARK  Name = 9799284
REMARK  5 active torsions:
REMARK  status: ('A' for Active; 'I' for Inactive)
REMARK    1  A    between atoms: N_1  and  C_19
REMARK    2  A    between atoms: C_2  and  C_8
REMARK    3  A    between atoms: C_8  and  N_10
REMARK    4  A    between atoms: C_19  and  C_21
REMARK    5  A    between atoms: C_21  and  C_23
REMARK                            x       y       z     vdW  Elec       q    Type
REMARK                         _______ _______ _______ _____ _____    ______ ____
ROOT
ATOM      1  N   UNL     1      32.883 -21.299 -19.148  0.00  0.00    +0.392 N 
ATOM      2  C   UNL     1      34.279 -19.314 -20.794  0.00  0.00    +0.016 C 
ATOM      3  C   UNL     1      35.002 -20.498 -20.143  0.00  0.00    -0.021 C 
ATOM      4  C   UNL     1      32.800 -19.661 -21.000  0.00  0.00    -0.021 C 
ATOM      5  C   UNL     1      34.285 -20.957 -18.872  0.00  0.00    -0.077 C 
ATOM      6  C   UNL     1      32.156 -20.148 -19.701  0.00  0.00    -0.077 C 
ATOM      7  H   UNL     1      32.872 -22.043 -19.846  0.00  0.00    -0.079 HD
ENDROOT
BRANCH   2   8
ATOM      8  C   UNL     1      34.940 -18.924 -22.113  0.00  0.00    +0.094 C 
BRANCH   8  10
ATOM      9  O   UNL     1      33.738 -17.971 -24.713  0.00  0.00    -0.270 OA
ATOM     10  N   UNL     1      34.543 -17.609 -22.517  0.00  0.00    -0.272 N 
ATOM     11  C   UNL     1      34.682 -16.450 -21.631  0.00  0.00    +0.121 C 
ATOM     12  C   UNL     1      33.989 -17.263 -23.756  0.00  0.00    +0.249 C 
ATOM     13  C   UNL     1      34.148 -15.339 -22.468  0.00  0.00    +0.002 C 
ATOM     14  C   UNL     1      33.743 -15.818 -23.714  0.00  0.00    +0.051 C 
ATOM     15  C   UNL     1      34.024 -13.997 -22.163  0.00  0.00    -0.002 C 
ATOM     16  C   UNL     1      33.207 -15.000 -24.690  0.00  0.00    +0.004 C 
ATOM     17  C   UNL     1      33.485 -13.146 -23.133  0.00  0.00    -0.000 C 
ATOM     18  C   UNL     1      33.080 -13.644 -24.386  0.00  0.00    +0.000 C 
ENDBRANCH   8  10
ENDBRANCH   2   8
BRANCH   1  19
ATOM     19  C   UNL     1      32.225 -21.786 -17.936  0.00  0.00    -0.006 C 
BRANCH  19  21
ATOM     20  O   UNL     1      33.208 -23.971 -18.226  0.00  0.00    -0.294 OA
ATOM     21  C   UNL     1      32.924 -23.049 -17.466  0.00  0.00    +0.152 C 
BRANCH  21  23
ATOM     22  F   UNL     1      34.244 -23.500 -12.059  0.00  0.00    -0.204 F 
ATOM     23  C   UNL     1      33.277 -23.168 -16.019  0.00  0.00    +0.033 C 
ATOM     24  C   UNL     1      32.258 -23.229 -15.096  0.00  0.00    +0.005 C 
ATOM     25  C   UNL     1      34.606 -23.215 -15.667  0.00  0.00    +0.005 C 
ATOM     26  C   UNL     1      32.588 -23.342 -13.745  0.00  0.00    +0.030 C 
ATOM     27  C   UNL     1      34.936 -23.328 -14.318  0.00  0.00    +0.030 C 
ATOM     28  C   UNL     1      33.927 -23.391 -13.356  0.00  0.00    +0.140 C 
ENDBRANCH  21  23
ENDBRANCH  19  21
ENDBRANCH   1  19
TORSDOF 5
ENDMDL
MODEL 6
REMARK VINA RESULT:     -11.7      4.801      8.161
REMARK  Name = 9799284
REMARK  5 active torsions:
REMARK  status: ('A' for Active; 'I' for Inactive)
REMARK    1  A    between atoms: N_1  and  C_19
REMARK    2  A    between atoms: C_2  and  C_8
REMARK    3  A    between atoms: C_8  and  N_10
REMARK    4  A    between atoms: C_19  and  C_21
REMARK    5  A    between atoms: C_21  and  C_23
REMARK                            x       y       z     vdW  Elec       q    Type
REMARK                         _______ _______ _______ _____ _____    ______ ____
ROOT
ATOM      1  N   UNL     1      34.116 -21.546 -18.978  0.00  0.00    +0.392 N 
ATOM      2  C   UNL     1      34.726 -19.375 -20.852  0.00  0.00    +0.016 C 
ATOM      3  C   UNL     1      35.776 -20.400 -20.410  0.00  0.00    -0.021 C 
ATOM      4  C   UNL     1      33.324 -19.981 -20.724  0.00  0.00    -0.021 C 
ATOM      5  C   UNL     1      35.461 -20.956 -19.021  0.00  0.00    -0.077 C 
ATOM      6  C   UNL     1      33.090 -20.552 -19.324  0.00  0.00    -0.077 C 
ATOM      7  H   UNL     1      34.077 -22.292 -19.672  0.00  0.00    -0.079 HD
ENDROOT
BRANCH   2   8
ATOM      8  C   UNL     1      34.989 -18.898 -22.278  0.00  0.00    +0.094 C 
BRANCH   8  10
ATOM      9  O   UNL     1      34.956 -16.634 -20.280  0.00  0.00    -0.270 OA
ATOM     10  N   UNL     1      34.598 -17.530 -22.441  0.00  0.00    -0.272 N 
ATOM     11  C   UNL     1      34.120 -17.008 -23.725  0.00  0.00    +0.121 C 
ATOM     12  C   UNL     1      34.618 -16.545 -21.446  0.00  0.00    +0.249 C 
ATOM     13  C   UNL     1      33.845 -15.578 -23.410  0.00  0.00    +0.002 C 
ATOM     14  C   UNL     1      34.138 -15.309 -22.072  0.00  0.00    +0.051 C 
ATOM     15  C   UNL     1      33.370 -14.577 -24.235  0.00  0.00    -0.002 C 
ATOM     16  C   UNL     1      33.974 -14.059 -21.510  0.00  0.00    +0.004 C 
ATOM     17  C   UNL     1      33.195 -13.301 -23.691  0.00  0.00    -0.000 C 
ATOM     18  C   UNL     1      33.495 -13.044 -22.340  0.00  0.00    +0.000 C 
ENDBRANCH   8  10
ENDBRANCH   2   8
BRANCH   1  19
ATOM     19  C   UNL     1      33.849 -22.119 -17.660  0.00  0.00    -0.006 C 
BRANCH  19  21
ATOM     20  O   UNL     1      31.539 -21.849 -18.303  0.00  0.00    -0.294 OA
ATOM     21  C   UNL     1      32.348 -22.207 -17.451  0.00  0.00    +0.152 C 
BRANCH  21  23
ATOM     22  F   UNL     1      30.454 -24.248 -12.612  0.00  0.00    -0.204 F 
ATOM     23  C   UNL     1      31.842 -22.752 -16.156  0.00  0.00    +0.033 C 
ATOM     24  C   UNL     1      30.481 -22.818 -15.957  0.00  0.00    +0.005 C 
ATOM     25  C   UNL     1      32.753 -23.168 -15.214  0.00  0.00    +0.005 C 
ATOM     26  C   UNL     1      30.008 -23.329 -14.748  0.00  0.00    +0.030 C 
ATOM     27  C   UNL     1      32.281 -23.678 -14.006  0.00  0.00    +0.030 C 
ATOM     28  C   UNL     1      30.908 -23.758 -13.772  0.00  0.00    +0.140 C 
ENDBRANCH  21  23
ENDBRANCH  19  21
ENDBRANCH   1  19
TORSDOF 5
ENDMDL
MODEL 7
REMARK VINA RESULT:     -11.7      5.227     11.245
REMARK  Name = 9799284
REMARK  5 active torsions:
REMARK  status: ('A' for Active; 'I' for Inactive)
REMARK    1  A    between atoms: N_1  and  C_19
REMARK    2  A    between atoms: C_2  and  C_8
REMARK    3  A    between atoms: C_8  and  N_10
REMARK    4  A    between atoms: C_19  and  C_21
REMARK    5  A    between atoms: C_21  and  C_23
REMARK                            x       y       z     vdW  Elec       q    Type
REMARK                         _______ _______ _______ _____ _____    ______ ____
ROOT
ATOM      1  N   UNL     1      34.291 -19.808 -21.411  0.00  0.00    +0.392 N 
ATOM      2  C   UNL     1      33.586 -21.112 -18.882  0.00  0.00    +0.016 C 
ATOM      3  C   UNL     1      32.529 -20.588 -19.860  0.00  0.00    -0.021 C 
ATOM      4  C   UNL     1      34.879 -21.431 -19.639  0.00  0.00    -0.021 C 
ATOM      5  C   UNL     1      33.069 -19.424 -20.692  0.00  0.00    -0.077 C 
ATOM      6  C   UNL     1      35.342 -20.239 -20.478  0.00  0.00    -0.077 C 
ATOM      7  H   UNL     1      34.065 -20.597 -22.017  0.00  0.00    -0.079 HD
ENDROOT
BRANCH   2   8
ATOM      8  C   UNL     1      33.076 -22.336 -18.125  0.00  0.00    +0.094 C 
BRANCH   8  10
ATOM      9  O   UNL     1      32.079 -23.338 -15.458  0.00  0.00    -0.270 OA
ATOM     10  N   UNL     1      33.771 -22.498 -16.884  0.00  0.00    -0.272 N 
ATOM     11  C   UNL     1      35.192 -22.168 -16.742  0.00  0.00    +0.121 C 
ATOM     12  C   UNL     1      33.218 -22.975 -15.690  0.00  0.00    +0.249 C 
ATOM     13  C   UNL     1      35.457 -22.497 -15.313  0.00  0.00    +0.002 C 
ATOM     14  C   UNL     1      34.298 -22.970 -14.698  0.00  0.00    +0.051 C 
ATOM     15  C   UNL     1      36.634 -22.390 -14.595  0.00  0.00    -0.002 C 
ATOM     16  C   UNL     1      34.259 -23.350 -13.371  0.00  0.00    +0.004 C 
ATOM     17  C   UNL     1      36.622 -22.768 -13.249  0.00  0.00    -0.000 C 
ATOM     18  C   UNL     1      35.445 -23.244 -12.642  0.00  0.00    +0.000 C 
ENDBRANCH   8  10
ENDBRANCH   2   8
BRANCH   1  19
ATOM     19  C   UNL     1      34.766 -18.703 -22.242  0.00  0.00    -0.006 C 
BRANCH  19  21
ATOM     20  O   UNL     1      35.944 -17.680 -20.400  0.00  0.00    -0.294 OA
ATOM     21  C   UNL     1      35.170 -17.546 -21.345  0.00  0.00    +0.152 C 
BRANCH  21  23
ATOM     22  F   UNL     1      33.041 -12.496 -22.408  0.00  0.00    -0.204 F 
ATOM     23  C   UNL     1      34.602 -16.195 -21.629  0.00  0.00    +0.033 C 
ATOM     24  C   UNL     1      34.544 -15.766 -22.936  0.00  0.00    +0.005 C 
ATOM     25  C   UNL     1      34.156 -15.433 -20.575  0.00  0.00    +0.005 C 
ATOM     26  C   UNL     1      34.012 -14.504 -23.202  0.00  0.00    +0.030 C 
ATOM     27  C   UNL     1      33.624 -14.172 -20.839  0.00  0.00    +0.030 C 
ATOM     28  C   UNL     1      33.552 -13.707 -22.153  0.00  0.00    +0.140 C 
ENDBRANCH  21  23
ENDBRANCH  19  21
ENDBRANCH   1  19
TORSDOF 5
ENDMDL
MODEL 8
REMARK VINA RESULT:     -11.5      6.525     12.641
REMARK  Name = 9799284
REMARK  5 active torsions:
REMARK  status: ('A' for Active; 'I' for Inactive)
REMARK    1  A    between atoms: N_1  and  C_19
REMARK    2  A    between atoms: C_2  and  C_8
REMARK    3  A    between atoms: C_8  and  N_10
REMARK    4  A    between atoms: C_19  and  C_21
REMARK    5  A    between atoms: C_21  and  C_23
REMARK                            x       y       z     vdW  Elec       q    Type
REMARK                         _______ _______ _______ _____ _____    ______ ____
ROOT
ATOM      1  N   UNL     1      34.630 -20.817 -19.427  0.00  0.00    +0.392 N 
ATOM      2  C   UNL     1      34.054 -22.577 -17.154  0.00  0.00    +0.016 C 
ATOM      3  C   UNL     1      35.293 -21.675 -17.204  0.00  0.00    -0.021 C 
ATOM      4  C   UNL     1      32.950 -21.989 -18.040  0.00  0.00    -0.021 C 
ATOM      5  C   UNL     1      35.726 -21.404 -18.645  0.00  0.00    -0.077 C 
ATOM      6  C   UNL     1      33.462 -21.707 -19.454  0.00  0.00    -0.077 C 
ATOM      7  H   UNL     1      34.352 -19.946 -18.975  0.00  0.00    -0.079 HD
ENDROOT
BRANCH   2   8
ATOM      8  C   UNL     1      33.566 -22.763 -15.720  0.00  0.00    +0.094 C 
BRANCH   8  10
ATOM      9  O   UNL     1      34.849 -25.493 -15.594  0.00  0.00    -0.270 OA
ATOM     10  N   UNL     1      34.619 -23.249 -14.879  0.00  0.00    -0.272 N 
ATOM     11  C   UNL     1      35.268 -22.396 -13.879  0.00  0.00    +0.121 C 
ATOM     12  C   UNL     1      35.151 -24.543 -14.895  0.00  0.00    +0.249 C 
ATOM     13  C   UNL     1      36.270 -23.317 -13.273  0.00  0.00    +0.002 C 
ATOM     14  C   UNL     1      36.199 -24.576 -13.871  0.00  0.00    +0.051 C 
ATOM     15  C   UNL     1      37.184 -23.074 -12.265  0.00  0.00    -0.002 C 
ATOM     16  C   UNL     1      37.018 -25.625 -13.500  0.00  0.00    +0.004 C 
ATOM     17  C   UNL     1      38.026 -24.119 -11.871  0.00  0.00    -0.000 C 
ATOM     18  C   UNL     1      37.943 -25.384 -12.483  0.00  0.00    +0.000 C 
ENDBRANCH   8  10
ENDBRANCH   2   8
BRANCH   1  19
ATOM     19  C   UNL     1      35.075 -20.515 -20.787  0.00  0.00    -0.006 C 
BRANCH  19  21
ATOM     20  O   UNL     1      36.346 -18.592 -20.074  0.00  0.00    -0.294 OA
ATOM     21  C   UNL     1      35.523 -19.066 -20.853  0.00  0.00    +0.152 C 
BRANCH  21  23
ATOM     22  F   UNL     1      33.327 -15.786 -24.802  0.00  0.00    -0.204 F 
ATOM     23  C   UNL     1      34.937 -18.189 -21.910  0.00  0.00    +0.033 C 
ATOM     24  C   UNL     1      34.318 -18.780 -22.988  0.00  0.00    +0.005 C 
ATOM     25  C   UNL     1      35.036 -16.825 -21.763  0.00  0.00    +0.005 C 
ATOM     26  C   UNL     1      33.769 -17.961 -23.974  0.00  0.00    +0.030 C 
ATOM     27  C   UNL     1      34.487 -16.005 -22.749  0.00  0.00    +0.030 C 
ATOM     28  C   UNL     1      33.854 -16.573 -23.854  0.00  0.00    +0.140 C 
ENDBRANCH  21  23
ENDBRANCH  19  21
ENDBRANCH   1  19
TORSDOF 5
ENDMDL
MODEL 9
REMARK VINA RESULT:     -11.4      1.513      2.107
REMARK  Name = 9799284
REMARK  5 active torsions:
REMARK  status: ('A' for Active; 'I' for Inactive)
REMARK    1  A    between atoms: N_1  and  C_19
REMARK    2  A    between atoms: C_2  and  C_8
REMARK    3  A    between atoms: C_8  and  N_10
REMARK    4  A    between atoms: C_19  and  C_21
REMARK    5  A    between atoms: C_21  and  C_23
REMARK                            x       y       z     vdW  Elec       q    Type
REMARK                         _______ _______ _______ _____ _____    ______ ____
ROOT
ATOM      1  N   UNL     1      33.122 -13.208 -22.680  0.00  0.00    +0.392 N 
ATOM      2  C   UNL     1      31.683 -10.787 -21.865  0.00  0.00    +0.016 C 
ATOM      3  C   UNL     1      32.109 -11.041 -23.315  0.00  0.00    -0.021 C 
ATOM      4  C   UNL     1      31.530 -12.121 -21.128  0.00  0.00    -0.021 C 
ATOM      5  C   UNL     1      33.348 -11.937 -23.381  0.00  0.00    -0.077 C 
ATOM      6  C   UNL     1      32.788 -12.981 -21.267  0.00  0.00    -0.077 C 
ATOM      7  H   UNL     1      32.328 -13.673 -23.120  0.00  0.00    -0.079 HD
ENDROOT
BRANCH   2   8
ATOM      8  C   UNL     1      30.390  -9.977 -21.807  0.00  0.00    +0.094 C 
BRANCH   8  10
ATOM      9  O   UNL     1      31.954  -8.089 -20.044  0.00  0.00    -0.270 OA
ATOM     10  N   UNL     1      30.654  -8.578 -21.961  0.00  0.00    -0.272 N 
ATOM     11  C   UNL     1      30.150  -7.815 -23.107  0.00  0.00    +0.121 C 
ATOM     12  C   UNL     1      31.397  -7.781 -21.082  0.00  0.00    +0.249 C 
ATOM     13  C   UNL     1      30.669  -6.445 -22.835  0.00  0.00    +0.002 C 
ATOM     14  C   UNL     1      31.400  -6.427 -21.647  0.00  0.00    +0.051 C 
ATOM     15  C   UNL     1      30.514  -5.288 -23.576  0.00  0.00    -0.002 C 
ATOM     16  C   UNL     1      31.996  -5.283 -21.154  0.00  0.00    +0.004 C 
ATOM     17  C   UNL     1      31.108  -4.115 -23.100  0.00  0.00    -0.000 C 
ATOM     18  C   UNL     1      31.842  -4.112 -21.899  0.00  0.00    +0.000 C 
ENDBRANCH   8  10
ENDBRANCH   2   8
BRANCH   1  19
ATOM     19  C   UNL     1      34.295 -14.073 -22.797  0.00  0.00    -0.006 C 
BRANCH  19  21
ATOM     20  O   UNL     1      33.317 -15.375 -24.578  0.00  0.00    -0.294 OA
ATOM     21  C   UNL     1      33.894 -15.361 -23.494  0.00  0.00    +0.152 C 
BRANCH  21  23
ATOM     22  F   UNL     1      35.108 -20.213 -21.013  0.00  0.00    -0.204 F 
ATOM     23  C   UNL     1      34.218 -16.659 -22.829  0.00  0.00    +0.033 C 
ATOM     24  C   UNL     1      33.948 -17.828 -23.503  0.00  0.00    +0.005 C 
ATOM     25  C   UNL     1      34.774 -16.634 -21.572  0.00  0.00    +0.005 C 
ATOM     26  C   UNL     1      34.252 -19.040 -22.883  0.00  0.00    +0.030 C 
ATOM     27  C   UNL     1      35.079 -17.845 -20.952  0.00  0.00    +0.030 C 
ATOM     28  C   UNL     1      34.817 -19.049 -21.608  0.00  0.00    +0.140 C 
ENDBRANCH  21  23
ENDBRANCH  19  21
ENDBRANCH   1  19
TORSDOF 5
ENDMDL
