MODEL 1
REMARK VINA RESULT:     -13.8      0.000      0.000
REMARK  Name = 198752
REMARK  6 active torsions:
REMARK  status: ('A' for Active; 'I' for Inactive)
REMARK    1  A    between atoms: C_1  and  C_3
REMARK    2  A    between atoms: C_1  and  C_16
REMARK    3  A    between atoms: N_2  and  C_9
REMARK    4  A    between atoms: C_9  and  C_10
REMARK    5  A    between atoms: C_16  and  C_18
REMARK    6  A    between atoms: C_18  and  C_20
REMARK                            x       y       z     vdW  Elec       q    Type
REMARK                         _______ _______ _______ _____ _____    ______ ____
ROOT
ATOM      1  C   UNL     1      35.735 -21.050 -18.889  0.00  0.00    +0.008 C 
ENDROOT
BRANCH   1   3
ATOM      2  N   UNL     1      34.800 -17.879 -21.669  0.00  0.00    +0.390 N 
ATOM      3  C   UNL     1      35.546 -20.311 -20.210  0.00  0.00    -0.004 C 
ATOM      4  C   UNL     1      36.464 -19.087 -20.293  0.00  0.00    -0.023 C 
ATOM      5  C   UNL     1      34.087 -19.877 -20.395  0.00  0.00    -0.023 C 
ATOM      6  C   UNL     1      36.208 -18.285 -21.571  0.00  0.00    -0.077 C 
ATOM      7  C   UNL     1      33.911 -19.049 -21.669  0.00  0.00    -0.077 C 
ATOM      8  H   UNL     1      34.576 -17.315 -20.850  0.00  0.00    -0.079 HD
BRANCH   2   9
ATOM      9  C   UNL     1      34.581 -17.070 -22.868  0.00  0.00    -0.050 C 
BRANCH   9  10
ATOM     10  C   UNL     1      34.223 -15.649 -22.527  0.00  0.00    -0.043 C 
ATOM     11  C   UNL     1      34.124 -15.270 -21.195  0.00  0.00    -0.006 C 
ATOM     12  C   UNL     1      33.996 -14.736 -23.548  0.00  0.00    -0.006 C 
ATOM     13  C   UNL     1      33.791 -13.952 -20.880  0.00  0.00    -0.000 C 
ATOM     14  C   UNL     1      33.665 -13.419 -23.232  0.00  0.00    -0.000 C 
ATOM     15  C   UNL     1      33.561 -13.027 -21.897  0.00  0.00    -0.000 C 
ENDBRANCH   9  10
ENDBRANCH   2   9
ENDBRANCH   1   3
BRANCH   1  16
ATOM     16  C   UNL     1      34.440 -21.720 -18.430  0.00  0.00    +0.069 C 
BRANCH  16  18
ATOM     17  O   UNL     1      35.660 -22.562 -16.529  0.00  0.00    -0.291 OA
ATOM     18  C   UNL     1      34.536 -22.340 -17.023  0.00  0.00    +0.173 C 
BRANCH  18  20
ATOM     19  N   UNL     1      29.683 -22.394 -16.817  0.00  0.00    -0.333 N 
ATOM     20  C   UNL     1      33.323 -22.660 -16.288  0.00  0.00    +0.036 C 
ATOM     21  C   UNL     1      30.963 -23.285 -14.889  0.00  0.00    -0.009 C 
ATOM     22  C   UNL     1      29.760 -23.708 -14.069  0.00  0.00    +0.028 C 
ATOM     23  C   UNL     1      30.873 -22.716 -16.178  0.00  0.00    +0.041 C 
ATOM     24  C   UNL     1      28.682 -24.416 -14.889  0.00  0.00    +0.006 C 
ATOM     25  C   UNL     1      27.782 -23.474 -15.687  0.00  0.00    +0.022 C 
ATOM     26  C   UNL     1      32.073 -22.429 -16.863  0.00  0.00    +0.017 C 
ATOM     27  C   UNL     1      28.437 -22.170 -16.119  0.00  0.00    +0.087 C 
ATOM     28  C   UNL     1      33.404 -23.184 -15.007  0.00  0.00    +0.003 C 
ATOM     29  C   UNL     1      32.236 -23.492 -14.313  0.00  0.00    -0.003 C 
ATOM     30  H   UNL     1      29.688 -22.312 -17.799  0.00  0.00    +0.147 HD
ENDBRANCH  18  20
ENDBRANCH  16  18
ENDBRANCH   1  16
TORSDOF 6
ENDMDL
MODEL 2
REMARK VINA RESULT:     -13.2      2.258      3.678
REMARK  Name = 198752
REMARK  6 active torsions:
REMARK  status: ('A' for Active; 'I' for Inactive)
REMARK    1  A    between atoms: C_1  and  C_3
REMARK    2  A    between atoms: C_1  and  C_16
REMARK    3  A    between atoms: N_2  and  C_9
REMARK    4  A    between atoms: C_9  and  C_10
REMARK    5  A    between atoms: C_16  and  C_18
REMARK    6  A    between atoms: C_18  and  C_20
REMARK                            x       y       z     vdW  Elec       q    Type
REMARK                         _______ _______ _______ _____ _____    ______ ____
ROOT
ATOM      1  C   UNL     1      34.957 -21.294 -18.921  0.00  0.00    +0.008 C 
ENDROOT
BRANCH   1   3
ATOM      2  N   UNL     1      34.819 -17.874 -21.556  0.00  0.00    +0.390 N 
ATOM      3  C   UNL     1      35.062 -20.459 -20.193  0.00  0.00    -0.004 C 
ATOM      4  C   UNL     1      36.104 -19.346 -20.037  0.00  0.00    -0.023 C 
ATOM      5  C   UNL     1      33.706 -19.851 -20.567  0.00  0.00    -0.023 C 
ATOM      6  C   UNL     1      36.143 -18.444 -21.272  0.00  0.00    -0.077 C 
ATOM      7  C   UNL     1      33.826 -18.932 -21.785  0.00  0.00    -0.077 C 
ATOM      8  H   UNL     1      34.526 -17.339 -20.739  0.00  0.00    -0.079 HD
BRANCH   2   9
ATOM      9  C   UNL     1      34.883 -16.974 -22.707  0.00  0.00    -0.050 C 
BRANCH   9  10
ATOM     10  C   UNL     1      34.385 -15.595 -22.369  0.00  0.00    -0.043 C 
ATOM     11  C   UNL     1      34.149 -15.260 -21.042  0.00  0.00    -0.006 C 
ATOM     12  C   UNL     1      34.169 -14.676 -23.387  0.00  0.00    -0.006 C 
ATOM     13  C   UNL     1      33.686 -13.982 -20.729  0.00  0.00    -0.000 C 
ATOM     14  C   UNL     1      33.707 -13.399 -23.073  0.00  0.00    -0.000 C 
ATOM     15  C   UNL     1      33.465 -13.052 -21.744  0.00  0.00    -0.000 C 
ENDBRANCH   9  10
ENDBRANCH   2   9
ENDBRANCH   1   3
BRANCH   1  16
ATOM     16  C   UNL     1      33.812 -22.303 -19.005  0.00  0.00    +0.069 C 
BRANCH  16  18
ATOM     17  O   UNL     1      31.679 -21.794 -18.004  0.00  0.00    -0.291 OA
ATOM     18  C   UNL     1      32.836 -22.224 -17.816  0.00  0.00    +0.173 C 
BRANCH  18  20
ATOM     19  N   UNL     1      36.458 -23.272 -14.755  0.00  0.00    -0.333 N 
ATOM     20  C   UNL     1      33.267 -22.647 -16.494  0.00  0.00    +0.036 C 
ATOM     21  C   UNL     1      34.124 -23.449 -13.937  0.00  0.00    -0.009 C 
ATOM     22  C   UNL     1      34.474 -23.838 -12.514  0.00  0.00    +0.028 C 
ATOM     23  C   UNL     1      35.086 -23.157 -14.929  0.00  0.00    +0.041 C 
ATOM     24  C   UNL     1      35.617 -23.017 -11.920  0.00  0.00    +0.006 C 
ATOM     25  C   UNL     1      37.008 -23.467 -12.364  0.00  0.00    +0.022 C 
ATOM     26  C   UNL     1      34.627 -22.740 -16.197  0.00  0.00    +0.017 C 
ATOM     27  C   UNL     1      37.068 -24.106 -13.744  0.00  0.00    +0.087 C 
ATOM     28  C   UNL     1      32.328 -22.971 -15.526  0.00  0.00    +0.003 C 
ATOM     29  C   UNL     1      32.752 -23.370 -14.261  0.00  0.00    -0.003 C 
ATOM     30  H   UNL     1      37.049 -22.759 -15.354  0.00  0.00    +0.147 HD
ENDBRANCH  18  20
ENDBRANCH  16  18
ENDBRANCH   1  16
TORSDOF 6
ENDMDL
MODEL 3
REMARK VINA RESULT:     -13.2      3.856      7.579
REMARK  Name = 198752
REMARK  6 active torsions:
REMARK  status: ('A' for Active; 'I' for Inactive)
REMARK    1  A    between atoms: C_1  and  C_3
REMARK    2  A    between atoms: C_1  and  C_16
REMARK    3  A    between atoms: N_2  and  C_9
REMARK    4  A    between atoms: C_9  and  C_10
REMARK    5  A    between atoms: C_16  and  C_18
REMARK    6  A    between atoms: C_18  and  C_20
REMARK                            x       y       z     vdW  Elec       q    Type
REMARK                         _______ _______ _______ _____ _____    ______ ____
ROOT
ATOM      1  C   UNL     1      34.188 -14.840 -22.124  0.00  0.00    +0.008 C 
ENDROOT
BRANCH   1   3
ATOM      2  N   UNL     1      32.020 -11.117 -21.820  0.00  0.00    +0.390 N 
ATOM      3  C   UNL     1      33.068 -13.816 -22.281  0.00  0.00    -0.004 C 
ATOM      4  C   UNL     1      33.541 -12.602 -23.086  0.00  0.00    -0.023 C 
ATOM      5  C   UNL     1      32.544 -13.360 -20.915  0.00  0.00    -0.023 C 
ATOM      6  C   UNL     1      32.455 -11.527 -23.162  0.00  0.00    -0.077 C 
ATOM      7  C   UNL     1      31.491 -12.260 -21.063  0.00  0.00    -0.077 C 
ATOM      8  H   UNL     1      32.834 -10.759 -21.321  0.00  0.00    -0.079 HD
BRANCH   2   9
ATOM      9  C   UNL     1      31.019 -10.054 -21.907  0.00  0.00    -0.050 C 
BRANCH   9  10
ATOM     10  C   UNL     1      31.571  -8.727 -21.459  0.00  0.00    -0.043 C 
ATOM     11  C   UNL     1      31.356  -8.303 -20.154  0.00  0.00    -0.006 C 
ATOM     12  C   UNL     1      32.288  -7.946 -22.354  0.00  0.00    -0.006 C 
ATOM     13  C   UNL     1      31.867  -7.073 -19.739  0.00  0.00    -0.000 C 
ATOM     14  C   UNL     1      32.800  -6.717 -21.939  0.00  0.00    -0.000 C 
ATOM     15  C   UNL     1      32.589  -6.280 -20.631  0.00  0.00    -0.000 C 
ENDBRANCH   9  10
ENDBRANCH   2   9
ENDBRANCH   1   3
BRANCH   1  16
ATOM     16  C   UNL     1      34.628 -15.402 -23.477  0.00  0.00    +0.069 C 
BRANCH  16  18
ATOM     17  O   UNL     1      33.868 -17.330 -24.707  0.00  0.00    -0.291 OA
ATOM     18  C   UNL     1      34.349 -16.908 -23.635  0.00  0.00    +0.173 C 
BRANCH  18  20
ATOM     19  N   UNL     1      32.811 -20.257 -20.472  0.00  0.00    -0.333 N 
ATOM     20  C   UNL     1      34.647 -17.820 -22.543  0.00  0.00    +0.036 C 
ATOM     21  C   UNL     1      35.203 -19.603 -20.439  0.00  0.00    -0.009 C 
ATOM     22  C   UNL     1      35.625 -20.563 -19.344  0.00  0.00    +0.028 C 
ATOM     23  C   UNL     1      33.890 -19.530 -20.955  0.00  0.00    +0.041 C 
ATOM     24  C   UNL     1      35.036 -21.965 -19.502  0.00  0.00    +0.006 C 
ATOM     25  C   UNL     1      33.589 -22.093 -19.029  0.00  0.00    +0.022 C 
ATOM     26  C   UNL     1      33.645 -18.640 -22.022  0.00  0.00    +0.017 C 
ATOM     27  C   UNL     1      32.760 -20.823 -19.142  0.00  0.00    +0.087 C 
ATOM     28  C   UNL     1      35.924 -17.871 -22.007  0.00  0.00    +0.003 C 
ATOM     29  C   UNL     1      36.199 -18.752 -20.964  0.00  0.00    -0.003 C 
ATOM     30  H   UNL     1      32.038 -20.394 -21.066  0.00  0.00    +0.147 HD
ENDBRANCH  18  20
ENDBRANCH  16  18
ENDBRANCH   1  16
TORSDOF 6
ENDMDL
MODEL 4
REMARK VINA RESULT:     -12.8      3.315      4.578
REMARK  Name = 198752
REMARK  6 active torsions:
REMARK  status: ('A' for Active; 'I' for Inactive)
REMARK    1  A    between atoms: C_1  and  C_3
REMARK    2  A    between atoms: C_1  and  C_16
REMARK    3  A    between atoms: N_2  and  C_9
REMARK    4  A    between atoms: C_9  and  C_10
REMARK    5  A    between atoms: C_16  and  C_18
REMARK    6  A    between atoms: C_18  and  C_20
REMARK                            x       y       z     vdW  Elec       q    Type
REMARK                         _______ _______ _______ _____ _____    ______ ____
ROOT
ATOM      1  C   UNL     1      34.759 -20.889 -19.181  0.00  0.00    +0.008 C 
ENDROOT
BRANCH   1   3
ATOM      2  N   UNL     1      34.637 -17.647 -22.033  0.00  0.00    +0.390 N 
ATOM      3  C   UNL     1      34.914 -20.127 -20.494  0.00  0.00    -0.004 C 
ATOM      4  C   UNL     1      35.880 -18.949 -20.336  0.00  0.00    -0.023 C 
ATOM      5  C   UNL     1      33.560 -19.621 -21.002  0.00  0.00    -0.023 C 
ATOM      6  C   UNL     1      35.964 -18.122 -21.620  0.00  0.00    -0.077 C 
ATOM      7  C   UNL     1      33.721 -18.772 -22.264  0.00  0.00    -0.077 C 
ATOM      8  H   UNL     1      34.255 -17.081 -21.275  0.00  0.00    -0.079 HD
BRANCH   2   9
ATOM      9  C   UNL     1      34.739 -16.816 -23.232  0.00  0.00    -0.050 C 
BRANCH   9  10
ATOM     10  C   UNL     1      34.126 -15.456 -23.025  0.00  0.00    -0.043 C 
ATOM     11  C   UNL     1      33.535 -14.803 -24.098  0.00  0.00    -0.006 C 
ATOM     12  C   UNL     1      34.160 -14.874 -21.766  0.00  0.00    -0.006 C 
ATOM     13  C   UNL     1      32.968 -13.543 -23.907  0.00  0.00    -0.000 C 
ATOM     14  C   UNL     1      33.593 -13.615 -21.574  0.00  0.00    -0.000 C 
ATOM     15  C   UNL     1      32.997 -12.949 -22.646  0.00  0.00    -0.000 C 
ENDBRANCH   9  10
ENDBRANCH   2   9
ENDBRANCH   1   3
BRANCH   1  16
ATOM     16  C   UNL     1      36.092 -21.468 -18.707  0.00  0.00    +0.069 C 
BRANCH  16  18
ATOM     17  O   UNL     1      36.992 -19.897 -17.115  0.00  0.00    -0.291 OA
ATOM     18  C   UNL     1      36.482 -21.024 -17.285  0.00  0.00    +0.173 C 
BRANCH  18  20
ATOM     19  N   UNL     1      38.236 -24.254 -14.110  0.00  0.00    -0.333 N 
ATOM     20  C   UNL     1      36.253 -21.915 -16.159  0.00  0.00    +0.036 C 
ATOM     21  C   UNL     1      35.838 -23.634 -13.970  0.00  0.00    -0.009 C 
ATOM     22  C   UNL     1      35.514 -24.487 -12.760  0.00  0.00    +0.028 C 
ATOM     23  C   UNL     1      37.130 -23.530 -14.533  0.00  0.00    +0.041 C 
ATOM     24  C   UNL     1      36.570 -24.409 -11.658  0.00  0.00    +0.006 C 
ATOM     25  C   UNL     1      37.805 -25.273 -11.911  0.00  0.00    +0.022 C 
ATOM     26  C   UNL     1      37.312 -22.646 -15.619  0.00  0.00    +0.017 C 
ATOM     27  C   UNL     1      38.143 -25.497 -13.378  0.00  0.00    +0.087 C 
ATOM     28  C   UNL     1      34.982 -22.050 -15.624  0.00  0.00    +0.003 C 
ATOM     29  C   UNL     1      34.775 -22.902 -14.542  0.00  0.00    -0.003 C 
ATOM     30  H   UNL     1      39.132 -23.903 -14.320  0.00  0.00    +0.147 HD
ENDBRANCH  18  20
ENDBRANCH  16  18
ENDBRANCH   1  16
TORSDOF 6
ENDMDL
MODEL 5
REMARK VINA RESULT:     -12.7      2.406      9.681
REMARK  Name = 198752
REMARK  6 active torsions:
REMARK  status: ('A' for Active; 'I' for Inactive)
REMARK    1  A    between atoms: C_1  and  C_3
REMARK    2  A    between atoms: C_1  and  C_16
REMARK    3  A    between atoms: N_2  and  C_9
REMARK    4  A    between atoms: C_9  and  C_10
REMARK    5  A    between atoms: C_16  and  C_18
REMARK    6  A    between atoms: C_18  and  C_20
REMARK                            x       y       z     vdW  Elec       q    Type
REMARK                         _______ _______ _______ _____ _____    ______ ____
ROOT
ATOM      1  C   UNL     1      35.957 -18.470 -20.872  0.00  0.00    +0.008 C 
ENDROOT
BRANCH   1   3
ATOM      2  N   UNL     1      33.637 -21.462 -18.792  0.00  0.00    +0.390 N 
ATOM      3  C   UNL     1      35.212 -19.774 -20.600  0.00  0.00    -0.004 C 
ATOM      4  C   UNL     1      33.730 -19.511 -20.311  0.00  0.00    -0.023 C 
ATOM      5  C   UNL     1      35.841 -20.533 -19.427  0.00  0.00    -0.023 C 
ATOM      6  C   UNL     1      32.998 -20.802 -19.938  0.00  0.00    -0.077 C 
ATOM      7  C   UNL     1      35.039 -21.790 -19.084  0.00  0.00    -0.077 C 
ATOM      8  H   UNL     1      33.624 -20.812 -18.007  0.00  0.00    -0.079 HD
BRANCH   2   9
ATOM      9  C   UNL     1      32.897 -22.666 -18.416  0.00  0.00    -0.050 C 
BRANCH   9  10
ATOM     10  C   UNL     1      32.530 -22.664 -16.956  0.00  0.00    -0.043 C 
ATOM     11  C   UNL     1      31.200 -22.511 -16.586  0.00  0.00    -0.006 C 
ATOM     12  C   UNL     1      33.524 -22.817 -15.999  0.00  0.00    -0.006 C 
ATOM     13  C   UNL     1      30.860 -22.509 -15.233  0.00  0.00    -0.000 C 
ATOM     14  C   UNL     1      33.184 -22.815 -14.647  0.00  0.00    -0.000 C 
ATOM     15  C   UNL     1      31.851 -22.661 -14.264  0.00  0.00    -0.000 C 
ENDBRANCH   9  10
ENDBRANCH   2   9
ENDBRANCH   1   3
BRANCH   1  16
ATOM     16  C   UNL     1      36.026 -18.166 -22.369  0.00  0.00    +0.069 C 
BRANCH  16  18
ATOM     17  O   UNL     1      34.098 -18.078 -23.813  0.00  0.00    -0.291 OA
ATOM     18  C   UNL     1      34.751 -17.500 -22.919  0.00  0.00    +0.173 C 
BRANCH  18  20
ATOM     19  N   UNL     1      33.243 -12.961 -23.761  0.00  0.00    -0.333 N 
ATOM     20  C   UNL     1      34.321 -16.213 -22.398  0.00  0.00    +0.036 C 
ATOM     21  C   UNL     1      33.473 -13.719 -21.411  0.00  0.00    -0.009 C 
ATOM     22  C   UNL     1      32.981 -12.435 -20.771  0.00  0.00    +0.028 C 
ATOM     23  C   UNL     1      33.536 -13.925 -22.807  0.00  0.00    +0.041 C 
ATOM     24  C   UNL     1      31.745 -11.849 -21.452  0.00  0.00    +0.006 C 
ATOM     25  C   UNL     1      32.046 -11.072 -22.734  0.00  0.00    +0.022 C 
ATOM     26  C   UNL     1      33.948 -15.192 -23.273  0.00  0.00    +0.017 C 
ATOM     27  C   UNL     1      33.276 -11.540 -23.497  0.00  0.00    +0.087 C 
ATOM     28  C   UNL     1      34.292 -15.991 -21.030  0.00  0.00    +0.003 C 
ATOM     29  C   UNL     1      33.873 -14.756 -20.541  0.00  0.00    -0.003 C 
ATOM     30  H   UNL     1      33.001 -13.260 -24.668  0.00  0.00    +0.147 HD
ENDBRANCH  18  20
ENDBRANCH  16  18
ENDBRANCH   1  16
TORSDOF 6
ENDMDL
MODEL 6
REMARK VINA RESULT:     -12.7      1.353      1.988
REMARK  Name = 198752
REMARK  6 active torsions:
REMARK  status: ('A' for Active; 'I' for Inactive)
REMARK    1  A    between atoms: C_1  and  C_3
REMARK    2  A    between atoms: C_1  and  C_16
REMARK    3  A    between atoms: N_2  and  C_9
REMARK    4  A    between atoms: C_9  and  C_10
REMARK    5  A    between atoms: C_16  and  C_18
REMARK    6  A    between atoms: C_18  and  C_20
REMARK                            x       y       z     vdW  Elec       q    Type
REMARK                         _______ _______ _______ _____ _____    ______ ____
ROOT
ATOM      1  C   UNL     1      35.131 -21.350 -19.397  0.00  0.00    +0.008 C 
ENDROOT
BRANCH   1   3
ATOM      2  N   UNL     1      34.965 -17.646 -21.613  0.00  0.00    +0.390 N 
ATOM      3  C   UNL     1      35.256 -20.365 -20.556  0.00  0.00    -0.004 C 
ATOM      4  C   UNL     1      36.242 -19.241 -20.219  0.00  0.00    -0.023 C 
ATOM      5  C   UNL     1      33.894 -19.766 -20.920  0.00  0.00    -0.023 C 
ATOM      6  C   UNL     1      36.298 -18.196 -21.336  0.00  0.00    -0.077 C 
ATOM      7  C   UNL     1      34.027 -18.704 -22.013  0.00  0.00    -0.077 C 
ATOM      8  H   UNL     1      34.613 -17.223 -20.754  0.00  0.00    -0.079 HD
BRANCH   2   9
ATOM      9  C   UNL     1      35.041 -16.612 -22.646  0.00  0.00    -0.050 C 
BRANCH   9  10
ATOM     10  C   UNL     1      34.358 -15.341 -22.218  0.00  0.00    -0.043 C 
ATOM     11  C   UNL     1      34.040 -15.154 -20.879  0.00  0.00    -0.006 C 
ATOM     12  C   UNL     1      34.056 -14.373 -23.166  0.00  0.00    -0.006 C 
ATOM     13  C   UNL     1      33.406 -13.976 -20.483  0.00  0.00    -0.000 C 
ATOM     14  C   UNL     1      33.423 -13.196 -22.769  0.00  0.00    -0.000 C 
ATOM     15  C   UNL     1      33.098 -12.997 -21.427  0.00  0.00    -0.000 C 
ENDBRANCH   9  10
ENDBRANCH   2   9
ENDBRANCH   1   3
BRANCH   1  16
ATOM     16  C   UNL     1      36.077 -20.991 -18.251  0.00  0.00    +0.069 C 
BRANCH  16  18
ATOM     17  O   UNL     1      36.824 -22.149 -16.273  0.00  0.00    -0.291 OA
ATOM     18  C   UNL     1      35.845 -21.829 -16.980  0.00  0.00    +0.173 C 
BRANCH  18  20
ATOM     19  N   UNL     1      32.784 -23.561 -13.631  0.00  0.00    -0.333 N 
ATOM     20  C   UNL     1      34.498 -22.237 -16.615  0.00  0.00    +0.036 C 
ATOM     21  C   UNL     1      31.896 -23.016 -15.882  0.00  0.00    -0.009 C 
ATOM     22  C   UNL     1      30.451 -23.361 -15.581  0.00  0.00    +0.028 C 
ATOM     23  C   UNL     1      32.935 -23.088 -14.927  0.00  0.00    +0.041 C 
ATOM     24  C   UNL     1      29.968 -22.838 -14.229  0.00  0.00    +0.006 C 
ATOM     25  C   UNL     1      30.399 -23.691 -13.037  0.00  0.00    +0.022 C 
ATOM     26  C   UNL     1      34.226 -22.674 -15.318  0.00  0.00    +0.017 C 
ATOM     27  C   UNL     1      31.711 -24.439 -13.221  0.00  0.00    +0.087 C 
ATOM     28  C   UNL     1      33.482 -22.204 -17.556  0.00  0.00    +0.003 C 
ATOM     29  C   UNL     1      32.194 -22.592 -17.195  0.00  0.00    -0.003 C 
ATOM     30  H   UNL     1      33.443 -23.285 -12.954  0.00  0.00    +0.147 HD
ENDBRANCH  18  20
ENDBRANCH  16  18
ENDBRANCH   1  16
TORSDOF 6
ENDMDL
MODEL 7
REMARK VINA RESULT:     -12.7      2.964     10.303
REMARK  Name = 198752
REMARK  6 active torsions:
REMARK  status: ('A' for Active; 'I' for Inactive)
REMARK    1  A    between atoms: C_1  and  C_3
REMARK    2  A    between atoms: C_1  and  C_16
REMARK    3  A    between atoms: N_2  and  C_9
REMARK    4  A    between atoms: C_9  and  C_10
REMARK    5  A    between atoms: C_16  and  C_18
REMARK    6  A    between atoms: C_18  and  C_20
REMARK                            x       y       z     vdW  Elec       q    Type
REMARK                         _______ _______ _______ _____ _____    ______ ____
ROOT
ATOM      1  C   UNL     1      35.561 -20.774 -19.990  0.00  0.00    +0.008 C 
ENDROOT
BRANCH   1   3
ATOM      2  N   UNL     1      34.860 -22.852 -16.269  0.00  0.00    +0.390 N 
ATOM      3  C   UNL     1      35.108 -21.035 -18.557  0.00  0.00    -0.004 C 
ATOM      4  C   UNL     1      36.297 -21.397 -17.661  0.00  0.00    -0.023 C 
ATOM      5  C   UNL     1      34.061 -22.153 -18.504  0.00  0.00    -0.023 C 
ATOM      6  C   UNL     1      35.839 -21.757 -16.246  0.00  0.00    -0.077 C 
ATOM      7  C   UNL     1      33.677 -22.488 -17.062  0.00  0.00    -0.077 C 
ATOM      8  H   UNL     1      35.299 -23.658 -16.712  0.00  0.00    -0.079 HD
BRANCH   2   9
ATOM      9  C   UNL     1      34.469 -23.220 -14.908  0.00  0.00    -0.050 C 
BRANCH   9  10
ATOM     10  C   UNL     1      35.503 -24.091 -14.245  0.00  0.00    -0.043 C 
ATOM     11  C   UNL     1      35.752 -25.359 -14.751  0.00  0.00    -0.006 C 
ATOM     12  C   UNL     1      36.192 -23.615 -13.138  0.00  0.00    -0.006 C 
ATOM     13  C   UNL     1      36.709 -26.167 -14.136  0.00  0.00    -0.000 C 
ATOM     14  C   UNL     1      37.149 -24.422 -12.524  0.00  0.00    -0.000 C 
ATOM     15  C   UNL     1      37.407 -25.699 -13.023  0.00  0.00    -0.000 C 
ENDBRANCH   9  10
ENDBRANCH   2   9
ENDBRANCH   1   3
BRANCH   1  16
ATOM     16  C   UNL     1      34.736 -19.667 -20.647  0.00  0.00    +0.069 C 
BRANCH  16  18
ATOM     17  O   UNL     1      36.685 -18.267 -20.412  0.00  0.00    -0.291 OA
ATOM     18  C   UNL     1      35.524 -18.362 -20.863  0.00  0.00    +0.173 C 
BRANCH  18  20
ATOM     19  N   UNL     1      33.335 -14.027 -20.768  0.00  0.00    -0.333 N 
ATOM     20  C   UNL     1      34.914 -17.257 -21.586  0.00  0.00    +0.036 C 
ATOM     21  C   UNL     1      33.744 -15.102 -22.965  0.00  0.00    -0.009 C 
ATOM     22  C   UNL     1      33.181 -13.977 -23.810  0.00  0.00    +0.028 C 
ATOM     23  C   UNL     1      33.829 -15.058 -21.556  0.00  0.00    +0.041 C 
ATOM     24  C   UNL     1      33.622 -12.588 -23.348  0.00  0.00    +0.006 C 
ATOM     25  C   UNL     1      32.841 -12.051 -22.149  0.00  0.00    +0.022 C 
ATOM     26  C   UNL     1      34.437 -16.145 -20.892  0.00  0.00    +0.017 C 
ATOM     27  C   UNL     1      32.303 -13.113 -21.203  0.00  0.00    +0.087 C 
ATOM     28  C   UNL     1      34.794 -17.311 -22.966  0.00  0.00    +0.003 C 
ATOM     29  C   UNL     1      34.213 -16.245 -23.649  0.00  0.00    -0.003 C 
ATOM     30  H   UNL     1      33.707 -13.912 -19.863  0.00  0.00    +0.147 HD
ENDBRANCH  18  20
ENDBRANCH  16  18
ENDBRANCH   1  16
TORSDOF 6
ENDMDL
MODEL 8
REMARK VINA RESULT:     -12.6      4.365     11.550
REMARK  Name = 198752
REMARK  6 active torsions:
REMARK  status: ('A' for Active; 'I' for Inactive)
REMARK    1  A    between atoms: C_1  and  C_3
REMARK    2  A    between atoms: C_1  and  C_16
REMARK    3  A    between atoms: N_2  and  C_9
REMARK    4  A    between atoms: C_9  and  C_10
REMARK    5  A    between atoms: C_16  and  C_18
REMARK    6  A    between atoms: C_18  and  C_20
REMARK                            x       y       z     vdW  Elec       q    Type
REMARK                         _______ _______ _______ _____ _____    ______ ____
ROOT
ATOM      1  C   UNL     1      33.523 -15.256 -24.212  0.00  0.00    +0.008 C 
ENDROOT
BRANCH   1   3
ATOM      2  N   UNL     1      34.612 -18.503 -21.580  0.00  0.00    +0.390 N 
ATOM      3  C   UNL     1      34.362 -16.344 -23.547  0.00  0.00    -0.004 C 
ATOM      4  C   UNL     1      33.738 -17.727 -23.760  0.00  0.00    -0.023 C 
ATOM      5  C   UNL     1      34.525 -16.075 -22.048  0.00  0.00    -0.023 C 
ATOM      6  C   UNL     1      34.518 -18.811 -23.013  0.00  0.00    -0.077 C 
ATOM      7  C   UNL     1      35.279 -17.213 -21.357  0.00  0.00    -0.077 C 
ATOM      8  H   UNL     1      33.664 -18.435 -21.210  0.00  0.00    -0.079 HD
BRANCH   2   9
ATOM      9  C   UNL     1      35.315 -19.572 -20.871  0.00  0.00    -0.050 C 
BRANCH   9  10
ATOM     10  C   UNL     1      34.389 -20.359 -19.982  0.00  0.00    -0.043 C 
ATOM     11  C   UNL     1      33.021 -20.137 -20.055  0.00  0.00    -0.006 C 
ATOM     12  C   UNL     1      34.916 -21.295 -19.103  0.00  0.00    -0.006 C 
ATOM     13  C   UNL     1      32.163 -20.866 -19.231  0.00  0.00    -0.000 C 
ATOM     14  C   UNL     1      34.058 -22.023 -18.280  0.00  0.00    -0.000 C 
ATOM     15  C   UNL     1      32.681 -21.808 -18.343  0.00  0.00    -0.000 C 
ENDBRANCH   9  10
ENDBRANCH   2   9
ENDBRANCH   1   3
BRANCH   1  16
ATOM     16  C   UNL     1      33.298 -14.070 -23.275  0.00  0.00    +0.069 C 
BRANCH  16  18
ATOM     17  O   UNL     1      32.735 -12.799 -25.245  0.00  0.00    -0.291 OA
ATOM     18  C   UNL     1      32.814 -12.799 -23.999  0.00  0.00    +0.173 C 
BRANCH  18  20
ATOM     19  N   UNL     1      33.275  -8.023 -23.247  0.00  0.00    -0.333 N 
ATOM     20  C   UNL     1      32.455 -11.618 -23.230  0.00  0.00    +0.036 C 
ATOM     21  C   UNL     1      31.763  -9.317 -21.767  0.00  0.00    -0.009 C 
ATOM     22  C   UNL     1      31.282  -8.138 -20.945  0.00  0.00    +0.028 C 
ATOM     23  C   UNL     1      32.659  -9.203 -22.853  0.00  0.00    +0.041 C 
ATOM     24  C   UNL     1      30.946  -6.905 -21.784  0.00  0.00    +0.006 C 
ATOM     25  C   UNL     1      32.165  -6.087 -22.210  0.00  0.00    +0.022 C 
ATOM     26  C   UNL     1      32.974 -10.371 -23.579  0.00  0.00    +0.017 C 
ATOM     27  C   UNL     1      33.450  -6.884 -22.374  0.00  0.00    +0.087 C 
ATOM     28  C   UNL     1      31.605 -11.728 -22.141  0.00  0.00    +0.003 C 
ATOM     29  C   UNL     1      31.264 -10.590 -21.415  0.00  0.00    -0.003 C 
ATOM     30  H   UNL     1      33.612  -7.958 -24.170  0.00  0.00    +0.147 HD
ENDBRANCH  18  20
ENDBRANCH  16  18
ENDBRANCH   1  16
TORSDOF 6
ENDMDL
MODEL 9
REMARK VINA RESULT:     -12.6      2.642     10.181
REMARK  Name = 198752
REMARK  6 active torsions:
REMARK  status: ('A' for Active; 'I' for Inactive)
REMARK    1  A    between atoms: C_1  and  C_3
REMARK    2  A    between atoms: C_1  and  C_16
REMARK    3  A    between atoms: N_2  and  C_9
REMARK    4  A    between atoms: C_9  and  C_10
REMARK    5  A    between atoms: C_16  and  C_18
REMARK    6  A    between atoms: C_18  and  C_20
REMARK                            x       y       z     vdW  Elec       q    Type
REMARK                         _______ _______ _______ _____ _____    ______ ____
ROOT
ATOM      1  C   UNL     1      35.704 -17.897 -21.256  0.00  0.00    +0.008 C 
ENDROOT
BRANCH   1   3
ATOM      2  N   UNL     1      33.818 -21.183 -19.182  0.00  0.00    +0.390 N 
ATOM      3  C   UNL     1      35.104 -19.276 -21.001  0.00  0.00    -0.004 C 
ATOM      4  C   UNL     1      33.627 -19.170 -20.608  0.00  0.00    -0.023 C 
ATOM      5  C   UNL     1      35.878 -20.021 -19.907  0.00  0.00    -0.023 C 
ATOM      6  C   UNL     1      33.045 -20.540 -20.253  0.00  0.00    -0.077 C 
ATOM      7  C   UNL     1      35.222 -21.362 -19.576  0.00  0.00    -0.077 C 
ATOM      8  H   UNL     1      33.796 -20.571 -18.367  0.00  0.00    -0.079 HD
BRANCH   2   9
ATOM      9  C   UNL     1      33.220 -22.468 -18.819  0.00  0.00    -0.050 C 
BRANCH   9  10
ATOM     10  C   UNL     1      32.903 -22.542 -17.349  0.00  0.00    -0.043 C 
ATOM     11  C   UNL     1      31.580 -22.486 -16.932  0.00  0.00    -0.006 C 
ATOM     12  C   UNL     1      33.936 -22.667 -16.431  0.00  0.00    -0.006 C 
ATOM     13  C   UNL     1      31.286 -22.555 -15.570  0.00  0.00    -0.000 C 
ATOM     14  C   UNL     1      33.642 -22.736 -15.070  0.00  0.00    -0.000 C 
ATOM     15  C   UNL     1      32.316 -22.680 -14.639  0.00  0.00    -0.000 C 
ENDBRANCH   9  10
ENDBRANCH   2   9
ENDBRANCH   1   3
BRANCH   1  16
ATOM     16  C   UNL     1      34.712 -16.976 -21.967  0.00  0.00    +0.069 C 
BRANCH  16  18
ATOM     17  O   UNL     1      34.335 -15.861 -19.863  0.00  0.00    -0.291 OA
ATOM     18  C   UNL     1      34.260 -15.781 -21.107  0.00  0.00    +0.173 C 
BRANCH  18  20
ATOM     19  N   UNL     1      31.584 -11.737 -20.838  0.00  0.00    -0.333 N 
ATOM     20  C   UNL     1      33.752 -14.578 -21.746  0.00  0.00    +0.036 C 
ATOM     21  C   UNL     1      32.771 -12.236 -22.958  0.00  0.00    -0.009 C 
ATOM     22  C   UNL     1      32.342 -10.980 -23.690  0.00  0.00    +0.028 C 
ATOM     23  C   UNL     1      32.424 -12.520 -21.618  0.00  0.00    +0.041 C 
ATOM     24  C   UNL     1      32.434  -9.715 -22.838  0.00  0.00    +0.006 C 
ATOM     25  C   UNL     1      31.266  -9.526 -21.871  0.00  0.00    +0.022 C 
ATOM     26  C   UNL     1      32.945 -13.693 -21.031  0.00  0.00    +0.017 C 
ATOM     27  C   UNL     1      30.616 -10.813 -21.386  0.00  0.00    +0.087 C 
ATOM     28  C   UNL     1      34.058 -14.312 -23.071  0.00  0.00    +0.003 C 
ATOM     29  C   UNL     1      33.571 -13.153 -23.672  0.00  0.00    -0.003 C 
ATOM     30  H   UNL     1      31.649 -11.816 -19.859  0.00  0.00    +0.147 HD
ENDBRANCH  18  20
ENDBRANCH  16  18
ENDBRANCH   1  16
TORSDOF 6
ENDMDL
