MODEL 1
REMARK VINA RESULT:     -14.1      0.000      0.000
REMARK  Name = 11560787
REMARK  5 active torsions:
REMARK  status: ('A' for Active; 'I' for Inactive)
REMARK    1  A    between atoms: N_2  and  C_23
REMARK    2  A    between atoms: C_8  and  C_9
REMARK    3  A    between atoms: C_12  and  N_15
REMARK    4  A    between atoms: C_13  and  O_21
REMARK    5  A    between atoms: C_23  and  C_26
REMARK                            x       y       z     vdW  Elec       q    Type
REMARK                         _______ _______ _______ _____ _____    ______ ____
ROOT
ATOM      1  O   UNL     1      34.945 -16.599 -20.367  0.00  0.00    -0.270 OA
ATOM      2  N   UNL     1      34.780 -17.610 -22.448  0.00  0.00    -0.274 N 
ATOM      3  C   UNL     1      34.508 -17.514 -23.881  0.00  0.00    +0.094 C 
ATOM      4  C   UNL     1      33.435 -16.493 -24.202  0.00  0.00    +0.026 C 
ATOM      5  C   UNL     1      33.836 -15.154 -23.611  0.00  0.00    +0.033 C 
ATOM      6  C   UNL     1      34.066 -15.279 -22.135  0.00  0.00    +0.031 C 
ATOM      7  C   UNL     1      34.639 -16.542 -21.559  0.00  0.00    +0.245 C 
ATOM      8  C   UNL     1      33.742 -14.291 -21.286  0.00  0.00    +0.000 C 
ENDROOT
BRANCH   8   9
ATOM      9  C   UNL     1      33.172 -12.989 -21.664  0.00  0.00    +0.003 C 
ATOM     10  C   UNL     1      32.259 -12.375 -20.821  0.00  0.00    +0.038 C 
ATOM     11  C   UNL     1      33.559 -12.397 -22.857  0.00  0.00    +0.001 C 
ATOM     12  C   UNL     1      32.100 -10.533 -22.376  0.00  0.00    +0.084 C 
ATOM     13  C   UNL     1      31.719 -11.139 -21.179  0.00  0.00    +0.152 C 
ATOM     14  C   UNL     1      33.020 -11.163 -23.216  0.00  0.00    +0.018 C 
BRANCH  12  15
ATOM     15  N   UNL     1      31.573  -9.308 -22.748  0.00  0.00    -0.280 N 
ATOM     16  N   UNL     1      30.067  -7.714 -23.140  0.00  0.00    -0.255 NA
ATOM     17  C   UNL     1      32.275  -8.225 -23.210  0.00  0.00    +0.134 C 
ATOM     18  C   UNL     1      30.250  -8.948 -22.725  0.00  0.00    +0.220 C 
ATOM     19  C   UNL     1      31.326  -7.258 -23.443  0.00  0.00    +0.054 C 
ATOM     20  C   UNL     1      31.524  -5.891 -23.948  0.00  0.00    +0.049 C 
ENDBRANCH  12  15
BRANCH  13  21
ATOM     21  O   UNL     1      30.823 -10.544 -20.343  0.00  0.00    -0.470 OA
ATOM     22  C   UNL     1      31.353  -9.843 -19.220  0.00  0.00    +0.253 C 
ENDBRANCH  13  21
ENDBRANCH   8   9
BRANCH   2  23
ATOM     23  C   UNL     1      35.380 -18.858 -21.993  0.00  0.00    +0.098 C 
ATOM     24  C   UNL     1      36.758 -18.573 -21.390  0.00  0.00    +0.026 C 
BRANCH  23  26
ATOM     25  F   UNL     1      32.035 -21.553 -18.367  0.00  0.00    -0.204 F 
ATOM     26  C   UNL     1      34.477 -19.585 -21.015  0.00  0.00    -0.004 C 
ATOM     27  C   UNL     1      35.048 -20.371 -20.031  0.00  0.00    -0.000 C 
ATOM     28  C   UNL     1      33.107 -19.444 -21.131  0.00  0.00    -0.000 C 
ATOM     29  C   UNL     1      34.218 -21.040 -19.130  0.00  0.00    +0.029 C 
ATOM     30  C   UNL     1      32.277 -20.112 -20.231  0.00  0.00    +0.029 C 
ATOM     31  C   UNL     1      32.832 -20.910 -19.231  0.00  0.00    +0.140 C 
ENDBRANCH  23  26
ENDBRANCH   2  23
TORSDOF 5
ENDMDL
MODEL 2
REMARK VINA RESULT:     -13.3      5.123     11.719
REMARK  Name = 11560787
REMARK  5 active torsions:
REMARK  status: ('A' for Active; 'I' for Inactive)
REMARK    1  A    between atoms: N_2  and  C_23
REMARK    2  A    between atoms: C_8  and  C_9
REMARK    3  A    between atoms: C_12  and  N_15
REMARK    4  A    between atoms: C_13  and  O_21
REMARK    5  A    between atoms: C_23  and  C_26
REMARK                            x       y       z     vdW  Elec       q    Type
REMARK                         _______ _______ _______ _____ _____    ______ ____
ROOT
ATOM      1  O   UNL     1      36.713 -19.164 -20.898  0.00  0.00    -0.270 OA
ATOM      2  N   UNL     1      34.476 -19.252 -21.504  0.00  0.00    -0.274 N 
ATOM      3  C   UNL     1      33.090 -19.578 -21.173  0.00  0.00    +0.094 C 
ATOM      4  C   UNL     1      32.977 -20.788 -20.267  0.00  0.00    +0.026 C 
ATOM      5  C   UNL     1      33.816 -20.554 -19.024  0.00  0.00    +0.033 C 
ATOM      6  C   UNL     1      35.238 -20.266 -19.398  0.00  0.00    +0.031 C 
ATOM      7  C   UNL     1      35.556 -19.511 -20.656  0.00  0.00    +0.245 C 
ATOM      8  C   UNL     1      36.265 -20.694 -18.646  0.00  0.00    +0.000 C 
ENDROOT
BRANCH   8   9
ATOM      9  C   UNL     1      36.149 -21.445 -17.387  0.00  0.00    +0.003 C 
ATOM     10  C   UNL     1      34.946 -22.053 -17.065  0.00  0.00    +0.038 C 
ATOM     11  C   UNL     1      37.247 -21.533 -16.543  0.00  0.00    +0.001 C 
ATOM     12  C   UNL     1      35.932 -22.863 -15.013  0.00  0.00    +0.084 C 
ATOM     13  C   UNL     1      34.836 -22.767 -15.871  0.00  0.00    +0.152 C 
ATOM     14  C   UNL     1      37.138 -22.246 -15.350  0.00  0.00    +0.018 C 
BRANCH  12  15
ATOM     15  N   UNL     1      35.841 -23.565 -13.824  0.00  0.00    -0.280 N 
ATOM     16  N   UNL     1      35.934 -25.268 -12.391  0.00  0.00    -0.255 NA
ATOM     17  C   UNL     1      35.457 -23.063 -12.608  0.00  0.00    +0.134 C 
ATOM     18  C   UNL     1      36.117 -24.895 -13.638  0.00  0.00    +0.220 C 
ATOM     19  C   UNL     1      35.523 -24.131 -11.744  0.00  0.00    +0.054 C 
ATOM     20  C   UNL     1      35.217 -24.158 -10.305  0.00  0.00    +0.049 C 
ENDBRANCH  12  15
BRANCH  13  21
ATOM     21  O   UNL     1      33.648 -23.361 -15.564  0.00  0.00    -0.470 OA
ATOM     22  C   UNL     1      32.500 -22.920 -16.285  0.00  0.00    +0.253 C 
ENDBRANCH  13  21
ENDBRANCH   8   9
BRANCH   2  23
ATOM     23  C   UNL     1      34.678 -18.477 -22.721  0.00  0.00    +0.098 C 
ATOM     24  C   UNL     1      33.795 -19.043 -23.838  0.00  0.00    +0.026 C 
BRANCH  23  26
ATOM     25  F   UNL     1      33.711 -13.006 -21.868  0.00  0.00    -0.204 F 
ATOM     26  C   UNL     1      34.417 -17.001 -22.491  0.00  0.00    -0.004 C 
ATOM     27  C   UNL     1      34.406 -16.514 -21.197  0.00  0.00    -0.000 C 
ATOM     28  C   UNL     1      34.197 -16.179 -23.581  0.00  0.00    -0.000 C 
ATOM     29  C   UNL     1      34.166 -15.156 -20.985  0.00  0.00    +0.029 C 
ATOM     30  C   UNL     1      33.958 -14.821 -23.369  0.00  0.00    +0.029 C 
ATOM     31  C   UNL     1      33.942 -14.310 -22.072  0.00  0.00    +0.140 C 
ENDBRANCH  23  26
ENDBRANCH   2  23
TORSDOF 5
ENDMDL
MODEL 3
REMARK VINA RESULT:     -13.2      4.734     11.354
REMARK  Name = 11560787
REMARK  5 active torsions:
REMARK  status: ('A' for Active; 'I' for Inactive)
REMARK    1  A    between atoms: N_2  and  C_23
REMARK    2  A    between atoms: C_8  and  C_9
REMARK    3  A    between atoms: C_12  and  N_15
REMARK    4  A    between atoms: C_13  and  O_21
REMARK    5  A    between atoms: C_23  and  C_26
REMARK                            x       y       z     vdW  Elec       q    Type
REMARK                         _______ _______ _______ _____ _____    ______ ____
ROOT
ATOM      1  O   UNL     1      33.002 -19.411 -22.029  0.00  0.00    -0.270 OA
ATOM      2  N   UNL     1      35.016 -18.333 -22.428  0.00  0.00    -0.274 N 
ATOM      3  C   UNL     1      36.434 -18.151 -22.121  0.00  0.00    +0.094 C 
ATOM      4  C   UNL     1      36.740 -18.355 -20.650  0.00  0.00    +0.026 C 
ATOM      5  C   UNL     1      36.241 -19.724 -20.227  0.00  0.00    +0.033 C 
ATOM      6  C   UNL     1      34.777 -19.862 -20.518  0.00  0.00    +0.031 C 
ATOM      7  C   UNL     1      34.175 -19.195 -21.721  0.00  0.00    +0.245 C 
ATOM      8  C   UNL     1      33.960 -20.551 -19.706  0.00  0.00    +0.000 C 
ENDROOT
BRANCH   8   9
ATOM      9  C   UNL     1      34.367 -21.267 -18.488  0.00  0.00    +0.003 C 
ATOM     10  C   UNL     1      33.431 -22.016 -17.792  0.00  0.00    +0.038 C 
ATOM     11  C   UNL     1      35.683 -21.182 -18.056  0.00  0.00    +0.001 C 
ATOM     12  C   UNL     1      35.137 -22.618 -16.192  0.00  0.00    +0.084 C 
ATOM     13  C   UNL     1      33.818 -22.696 -16.637  0.00  0.00    +0.152 C 
ATOM     14  C   UNL     1      36.070 -21.861 -16.901  0.00  0.00    +0.018 C 
BRANCH  12  15
ATOM     15  N   UNL     1      35.538 -23.285 -15.047  0.00  0.00    -0.280 N 
ATOM     16  N   UNL     1      35.956 -23.672 -12.893  0.00  0.00    -0.255 NA
ATOM     17  C   UNL     1      36.041 -24.558 -14.978  0.00  0.00    +0.134 C 
ATOM     18  C   UNL     1      35.507 -22.797 -13.765  0.00  0.00    +0.220 C 
ATOM     19  C   UNL     1      36.290 -24.772 -13.642  0.00  0.00    +0.054 C 
ATOM     20  C   UNL     1      36.837 -25.977 -13.000  0.00  0.00    +0.049 C 
ENDBRANCH  12  15
BRANCH  13  21
ATOM     21  O   UNL     1      32.888 -23.429 -15.961  0.00  0.00    -0.470 OA
ATOM     22  C   UNL     1      31.571 -22.890 -15.884  0.00  0.00    +0.253 C 
ENDBRANCH  13  21
ENDBRANCH   8   9
BRANCH   2  23
ATOM     23  C   UNL     1      34.536 -17.684 -23.642  0.00  0.00    +0.098 C 
ATOM     24  C   UNL     1      33.385 -18.500 -24.235  0.00  0.00    +0.026 C 
BRANCH  23  26
ATOM     25  F   UNL     1      33.036 -12.354 -22.675  0.00  0.00    -0.204 F 
ATOM     26  C   UNL     1      34.131 -16.246 -23.381  0.00  0.00    -0.004 C 
ATOM     27  C   UNL     1      34.351 -15.702 -22.129  0.00  0.00    -0.000 C 
ATOM     28  C   UNL     1      33.553 -15.515 -24.401  0.00  0.00    -0.000 C 
ATOM     29  C   UNL     1      33.979 -14.379 -21.889  0.00  0.00    +0.029 C 
ATOM     30  C   UNL     1      33.181 -14.192 -24.161  0.00  0.00    +0.029 C 
ATOM     31  C   UNL     1      33.393 -13.625 -22.906  0.00  0.00    +0.140 C 
ENDBRANCH  23  26
ENDBRANCH   2  23
TORSDOF 5
ENDMDL
MODEL 4
REMARK VINA RESULT:     -13.0      4.693     11.244
REMARK  Name = 11560787
REMARK  5 active torsions:
REMARK  status: ('A' for Active; 'I' for Inactive)
REMARK    1  A    between atoms: N_2  and  C_23
REMARK    2  A    between atoms: C_8  and  C_9
REMARK    3  A    between atoms: C_12  and  N_15
REMARK    4  A    between atoms: C_13  and  O_21
REMARK    5  A    between atoms: C_23  and  C_26
REMARK                            x       y       z     vdW  Elec       q    Type
REMARK                         _______ _______ _______ _____ _____    ______ ____
ROOT
ATOM      1  O   UNL     1      32.796 -19.288 -22.254  0.00  0.00    -0.270 OA
ATOM      2  N   UNL     1      34.875 -18.296 -22.524  0.00  0.00    -0.274 N 
ATOM      3  C   UNL     1      36.281 -18.185 -22.142  0.00  0.00    +0.094 C 
ATOM      4  C   UNL     1      36.503 -18.438 -20.663  0.00  0.00    +0.026 C 
ATOM      5  C   UNL     1      35.922 -19.793 -20.302  0.00  0.00    +0.033 C 
ATOM      6  C   UNL     1      34.470 -19.856 -20.668  0.00  0.00    +0.031 C 
ATOM      7  C   UNL     1      33.960 -19.134 -21.882  0.00  0.00    +0.245 C 
ATOM      8  C   UNL     1      33.583 -20.526 -19.917  0.00  0.00    +0.000 C 
ENDROOT
BRANCH   8   9
ATOM      9  C   UNL     1      33.895 -21.288 -18.698  0.00  0.00    +0.003 C 
ATOM     10  C   UNL     1      35.191 -21.283 -18.205  0.00  0.00    +0.038 C 
ATOM     11  C   UNL     1      32.887 -21.999 -18.063  0.00  0.00    +0.001 C 
ATOM     12  C   UNL     1      34.483 -22.725 -16.400  0.00  0.00    +0.084 C 
ATOM     13  C   UNL     1      35.487 -22.006 -17.049  0.00  0.00    +0.152 C 
ATOM     14  C   UNL     1      33.183 -22.721 -16.907  0.00  0.00    +0.018 C 
BRANCH  12  15
ATOM     15  N   UNL     1      34.759 -23.448 -15.253  0.00  0.00    -0.280 N 
ATOM     16  N   UNL     1      35.414 -25.136 -13.954  0.00  0.00    -0.255 NA
ATOM     17  C   UNL     1      34.581 -23.028 -13.961  0.00  0.00    +0.134 C 
ATOM     18  C   UNL     1      35.263 -24.722 -15.193  0.00  0.00    +0.220 C 
ATOM     19  C   UNL     1      34.992 -24.084 -13.181  0.00  0.00    +0.054 C 
ATOM     20  C   UNL     1      35.015 -24.177 -11.713  0.00  0.00    +0.049 C 
ENDBRANCH  12  15
BRANCH  13  21
ATOM     21  O   UNL     1      36.764 -21.993 -16.572  0.00  0.00    -0.470 OA
ATOM     22  C   UNL     1      37.318 -20.722 -16.243  0.00  0.00    +0.253 C 
ENDBRANCH  13  21
ENDBRANCH   8   9
BRANCH   2  23
ATOM     23  C   UNL     1      34.487 -17.596 -23.743  0.00  0.00    +0.098 C 
ATOM     24  C   UNL     1      33.363 -18.369 -24.438  0.00  0.00    +0.026 C 
BRANCH  23  26
ATOM     25  F   UNL     1      33.020 -12.273 -22.691  0.00  0.00    -0.204 F 
ATOM     26  C   UNL     1      34.091 -16.160 -23.459  0.00  0.00    -0.004 C 
ATOM     27  C   UNL     1      33.489 -15.419 -24.459  0.00  0.00    -0.000 C 
ATOM     28  C   UNL     1      34.342 -15.629 -22.208  0.00  0.00    -0.000 C 
ATOM     29  C   UNL     1      33.125 -14.098 -24.198  0.00  0.00    +0.029 C 
ATOM     30  C   UNL     1      33.977 -14.307 -21.947  0.00  0.00    +0.029 C 
ATOM     31  C   UNL     1      33.370 -13.542 -22.942  0.00  0.00    +0.140 C 
ENDBRANCH  23  26
ENDBRANCH   2  23
TORSDOF 5
ENDMDL
MODEL 5
REMARK VINA RESULT:     -12.5      1.330      1.824
REMARK  Name = 11560787
REMARK  5 active torsions:
REMARK  status: ('A' for Active; 'I' for Inactive)
REMARK    1  A    between atoms: N_2  and  C_23
REMARK    2  A    between atoms: C_8  and  C_9
REMARK    3  A    between atoms: C_12  and  N_15
REMARK    4  A    between atoms: C_13  and  O_21
REMARK    5  A    between atoms: C_23  and  C_26
REMARK                            x       y       z     vdW  Elec       q    Type
REMARK                         _______ _______ _______ _____ _____    ______ ____
ROOT
ATOM      1  O   UNL     1      34.525 -16.003 -24.073  0.00  0.00    -0.270 OA
ATOM      2  N   UNL     1      34.539 -16.692 -21.858  0.00  0.00    -0.274 N 
ATOM      3  C   UNL     1      34.172 -16.463 -20.462  0.00  0.00    +0.094 C 
ATOM      4  C   UNL     1      34.189 -14.993 -20.090  0.00  0.00    +0.026 C 
ATOM      5  C   UNL     1      33.287 -14.233 -21.045  0.00  0.00    +0.033 C 
ATOM      6  C   UNL     1      33.717 -14.456 -22.463  0.00  0.00    +0.031 C 
ATOM      7  C   UNL     1      34.291 -15.778 -22.884  0.00  0.00    +0.245 C 
ATOM      8  C   UNL     1      33.634 -13.484 -23.385  0.00  0.00    +0.000 C 
ENDROOT
BRANCH   8   9
ATOM      9  C   UNL     1      33.102 -12.132 -23.159  0.00  0.00    +0.003 C 
ATOM     10  C   UNL     1      32.066 -11.949 -22.255  0.00  0.00    +0.038 C 
ATOM     11  C   UNL     1      33.647 -11.061 -23.852  0.00  0.00    +0.001 C 
ATOM     12  C   UNL     1      32.101  -9.581 -22.731  0.00  0.00    +0.084 C 
ATOM     13  C   UNL     1      31.563 -10.666 -22.040  0.00  0.00    +0.152 C 
ATOM     14  C   UNL     1      33.144  -9.779 -23.637  0.00  0.00    +0.018 C 
BRANCH  12  15
ATOM     15  N   UNL     1      31.613  -8.302 -22.530  0.00  0.00    -0.280 N 
ATOM     16  N   UNL     1      30.311  -6.506 -22.739  0.00  0.00    -0.255 NA
ATOM     17  C   UNL     1      32.130  -7.354 -21.686  0.00  0.00    +0.134 C 
ATOM     18  C   UNL     1      30.520  -7.741 -23.139  0.00  0.00    +0.220 C 
ATOM     19  C   UNL     1      31.311  -6.259 -21.833  0.00  0.00    +0.054 C 
ATOM     20  C   UNL     1      31.406  -4.955 -21.160  0.00  0.00    +0.049 C 
ENDBRANCH  12  15
BRANCH  13  21
ATOM     21  O   UNL     1      30.545 -10.499 -21.149  0.00  0.00    -0.470 OA
ATOM     22  C   UNL     1      30.901 -10.092 -19.830  0.00  0.00    +0.253 C 
ENDBRANCH  13  21
ENDBRANCH   8   9
BRANCH   2  23
ATOM     23  C   UNL     1      35.043 -18.022 -22.177  0.00  0.00    +0.098 C 
ATOM     24  C   UNL     1      36.574 -17.995 -22.195  0.00  0.00    +0.026 C 
BRANCH  23  26
ATOM     25  F   UNL     1      33.067 -21.889 -18.608  0.00  0.00    -0.204 F 
ATOM     26  C   UNL     1      34.510 -19.065 -21.214  0.00  0.00    -0.004 C 
ATOM     27  C   UNL     1      35.400 -19.761 -20.416  0.00  0.00    -0.000 C 
ATOM     28  C   UNL     1      33.148 -19.295 -21.158  0.00  0.00    -0.000 C 
ATOM     29  C   UNL     1      34.909 -20.721 -19.530  0.00  0.00    +0.029 C 
ATOM     30  C   UNL     1      32.658 -20.254 -20.272  0.00  0.00    +0.029 C 
ATOM     31  C   UNL     1      33.538 -20.967 -19.459  0.00  0.00    +0.140 C 
ENDBRANCH  23  26
ENDBRANCH   2  23
TORSDOF 5
ENDMDL
MODEL 6
REMARK VINA RESULT:     -12.1      3.634     10.439
REMARK  Name = 11560787
REMARK  5 active torsions:
REMARK  status: ('A' for Active; 'I' for Inactive)
REMARK    1  A    between atoms: N_2  and  C_23
REMARK    2  A    between atoms: C_8  and  C_9
REMARK    3  A    between atoms: C_12  and  N_15
REMARK    4  A    between atoms: C_13  and  O_21
REMARK    5  A    between atoms: C_23  and  C_26
REMARK                            x       y       z     vdW  Elec       q    Type
REMARK                         _______ _______ _______ _____ _____    ______ ____
ROOT
ATOM      1  O   UNL     1      33.214  -9.959 -23.931  0.00  0.00    -0.270 OA
ATOM      2  N   UNL     1      31.408  -9.569 -22.529  0.00  0.00    -0.274 N 
ATOM      3  C   UNL     1      30.581  -9.971 -21.392  0.00  0.00    +0.094 C 
ATOM      4  C   UNL     1      30.456 -11.477 -21.269  0.00  0.00    +0.026 C 
ATOM      5  C   UNL     1      31.846 -12.083 -21.201  0.00  0.00    +0.033 C 
ATOM      6  C   UNL     1      32.651 -11.685 -22.400  0.00  0.00    +0.031 C 
ATOM      7  C   UNL     1      32.465 -10.334 -23.027  0.00  0.00    +0.245 C 
ATOM      8  C   UNL     1      33.533 -12.525 -22.966  0.00  0.00    +0.000 C 
ENDROOT
BRANCH   8   9
ATOM      9  C   UNL     1      33.847 -13.882 -22.494  0.00  0.00    +0.003 C 
ATOM     10  C   UNL     1      34.069 -14.890 -23.420  0.00  0.00    +0.038 C 
ATOM     11  C   UNL     1      33.917 -14.130 -21.131  0.00  0.00    +0.001 C 
ATOM     12  C   UNL     1      34.441 -16.441 -21.605  0.00  0.00    +0.084 C 
ATOM     13  C   UNL     1      34.367 -16.178 -22.972  0.00  0.00    +0.152 C 
ATOM     14  C   UNL     1      34.216 -15.417 -20.684  0.00  0.00    +0.018 C 
BRANCH  12  15
ATOM     15  N   UNL     1      34.735 -17.712 -21.144  0.00  0.00    -0.280 N 
ATOM     16  N   UNL     1      35.933 -19.466 -20.471  0.00  0.00    -0.255 NA
ATOM     17  C   UNL     1      33.832 -18.698 -20.839  0.00  0.00    +0.134 C 
ATOM     18  C   UNL     1      35.983 -18.226 -20.905  0.00  0.00    +0.220 C 
ATOM     19  C   UNL     1      34.595 -19.766 -20.428  0.00  0.00    +0.054 C 
ATOM     20  C   UNL     1      34.140 -21.092 -19.983  0.00  0.00    +0.049 C 
ENDBRANCH  12  15
BRANCH  13  21
ATOM     21  O   UNL     1      34.584 -17.161 -23.891  0.00  0.00    -0.470 OA
ATOM     22  C   UNL     1      33.436 -17.844 -24.389  0.00  0.00    +0.253 C 
ENDBRANCH  13  21
ENDBRANCH   8   9
BRANCH   2  23
ATOM     23  C   UNL     1      31.185  -8.221 -23.037  0.00  0.00    +0.098 C 
ATOM     24  C   UNL     1      29.759  -8.113 -23.585  0.00  0.00    +0.026 C 
BRANCH  23  26
ATOM     25  F   UNL     1      32.209  -4.336 -19.106  0.00  0.00    -0.204 F 
ATOM     26  C   UNL     1      31.461  -7.173 -21.976  0.00  0.00    -0.004 C 
ATOM     27  C   UNL     1      32.471  -7.395 -21.058  0.00  0.00    -0.000 C 
ATOM     28  C   UNL     1      30.696  -6.021 -21.954  0.00  0.00    -0.000 C 
ATOM     29  C   UNL     1      32.725  -6.431 -20.083  0.00  0.00    +0.029 C 
ATOM     30  C   UNL     1      30.951  -5.057 -20.979  0.00  0.00    +0.029 C 
ATOM     31  C   UNL     1      31.965  -5.262 -20.043  0.00  0.00    +0.140 C 
ENDBRANCH  23  26
ENDBRANCH   2  23
TORSDOF 5
ENDMDL
MODEL 7
REMARK VINA RESULT:     -11.8      1.711      2.640
REMARK  Name = 11560787
REMARK  5 active torsions:
REMARK  status: ('A' for Active; 'I' for Inactive)
REMARK    1  A    between atoms: N_2  and  C_23
REMARK    2  A    between atoms: C_8  and  C_9
REMARK    3  A    between atoms: C_12  and  N_15
REMARK    4  A    between atoms: C_13  and  O_21
REMARK    5  A    between atoms: C_23  and  C_26
REMARK                            x       y       z     vdW  Elec       q    Type
REMARK                         _______ _______ _______ _____ _____    ______ ____
ROOT
ATOM      1  O   UNL     1      34.424 -15.901 -24.112  0.00  0.00    -0.270 OA
ATOM      2  N   UNL     1      34.494 -16.623 -21.909  0.00  0.00    -0.274 N 
ATOM      3  C   UNL     1      34.167 -16.412 -20.499  0.00  0.00    +0.094 C 
ATOM      4  C   UNL     1      34.203 -14.948 -20.107  0.00  0.00    +0.026 C 
ATOM      5  C   UNL     1      33.280 -14.169 -21.025  0.00  0.00    +0.033 C 
ATOM      6  C   UNL     1      33.669 -14.373 -22.458  0.00  0.00    +0.031 C 
ATOM      7  C   UNL     1      34.224 -15.692 -22.914  0.00  0.00    +0.245 C 
ATOM      8  C   UNL     1      33.566 -13.387 -23.363  0.00  0.00    +0.000 C 
ENDROOT
BRANCH   8   9
ATOM      9  C   UNL     1      33.049 -12.036 -23.102  0.00  0.00    +0.003 C 
ATOM     10  C   UNL     1      33.806 -10.934 -23.469  0.00  0.00    +0.038 C 
ATOM     11  C   UNL     1      31.811 -11.886 -22.495  0.00  0.00    +0.001 C 
ATOM     12  C   UNL     1      32.072  -9.487 -22.612  0.00  0.00    +0.084 C 
ATOM     13  C   UNL     1      33.315  -9.652 -23.222  0.00  0.00    +0.152 C 
ATOM     14  C   UNL     1      31.320 -10.605 -22.247  0.00  0.00    +0.018 C 
BRANCH  12  15
ATOM     15  N   UNL     1      31.570  -8.222 -22.358  0.00  0.00    -0.280 N 
ATOM     16  N   UNL     1      30.984  -6.396 -21.225  0.00  0.00    -0.255 NA
ATOM     17  C   UNL     1      31.029  -7.360 -23.276  0.00  0.00    +0.134 C 
ATOM     18  C   UNL     1      31.519  -7.593 -21.140  0.00  0.00    +0.220 C 
ATOM     19  C   UNL     1      30.676  -6.244 -22.553  0.00  0.00    +0.054 C 
ATOM     20  C   UNL     1      30.050  -5.005 -23.040  0.00  0.00    +0.049 C 
ENDBRANCH  12  15
BRANCH  13  21
ATOM     21  O   UNL     1      34.068  -8.576 -23.587  0.00  0.00    -0.470 OA
ATOM     22  C   UNL     1      35.255  -8.840 -24.331  0.00  0.00    +0.253 C 
ENDBRANCH  13  21
ENDBRANCH   8   9
BRANCH   2  23
ATOM     23  C   UNL     1      34.982 -17.950 -22.260  0.00  0.00    +0.098 C 
ATOM     24  C   UNL     1      36.511 -17.927 -22.340  0.00  0.00    +0.026 C 
BRANCH  23  26
ATOM     25  F   UNL     1      33.141 -21.848 -18.653  0.00  0.00    -0.204 F 
ATOM     26  C   UNL     1      34.485 -19.002 -21.287  0.00  0.00    -0.004 C 
ATOM     27  C   UNL     1      33.130 -19.263 -21.214  0.00  0.00    -0.000 C 
ATOM     28  C   UNL     1      35.401 -19.672 -20.497  0.00  0.00    -0.000 C 
ATOM     29  C   UNL     1      32.673 -20.231 -20.319  0.00  0.00    +0.029 C 
ATOM     30  C   UNL     1      34.944 -20.640 -19.602  0.00  0.00    +0.029 C 
ATOM     31  C   UNL     1      33.580 -20.919 -19.513  0.00  0.00    +0.140 C 
ENDBRANCH  23  26
ENDBRANCH   2  23
TORSDOF 5
ENDMDL
MODEL 8
REMARK VINA RESULT:     -11.8      5.259     11.761
REMARK  Name = 11560787
REMARK  5 active torsions:
REMARK  status: ('A' for Active; 'I' for Inactive)
REMARK    1  A    between atoms: N_2  and  C_23
REMARK    2  A    between atoms: C_8  and  C_9
REMARK    3  A    between atoms: C_12  and  N_15
REMARK    4  A    between atoms: C_13  and  O_21
REMARK    5  A    between atoms: C_23  and  C_26
REMARK                            x       y       z     vdW  Elec       q    Type
REMARK                         _______ _______ _______ _____ _____    ______ ____
ROOT
ATOM      1  O   UNL     1      36.536 -19.734 -21.093  0.00  0.00    -0.270 OA
ATOM      2  N   UNL     1      34.319 -19.435 -21.704  0.00  0.00    -0.274 N 
ATOM      3  C   UNL     1      32.898 -19.462 -21.359  0.00  0.00    +0.094 C 
ATOM      4  C   UNL     1      32.563 -20.558 -20.367  0.00  0.00    +0.026 C 
ATOM      5  C   UNL     1      33.441 -20.399 -19.140  0.00  0.00    +0.033 C 
ATOM      6  C   UNL     1      34.889 -20.418 -19.525  0.00  0.00    +0.031 C 
ATOM      7  C   UNL     1      35.335 -19.833 -20.834  0.00  0.00    +0.245 C 
ATOM      8  C   UNL     1      35.820 -20.979 -18.737  0.00  0.00    +0.000 C 
ENDROOT
BRANCH   8   9
ATOM      9  C   UNL     1      35.572 -21.599 -17.427  0.00  0.00    +0.003 C 
ATOM     10  C   UNL     1      36.630 -21.791 -16.552  0.00  0.00    +0.038 C 
ATOM     11  C   UNL     1      34.282 -21.982 -17.087  0.00  0.00    +0.001 C 
ATOM     12  C   UNL     1      35.103 -22.767 -14.955  0.00  0.00    +0.084 C 
ATOM     13  C   UNL     1      36.395 -22.378 -15.309  0.00  0.00    +0.152 C 
ATOM     14  C   UNL     1      34.046 -22.569 -15.845  0.00  0.00    +0.018 C 
BRANCH  12  15
ATOM     15  N   UNL     1      34.852 -23.353 -13.727  0.00  0.00    -0.280 N 
ATOM     16  N   UNL     1      33.792 -24.496 -12.135  0.00  0.00    -0.255 NA
ATOM     17  C   UNL     1      35.671 -23.328 -12.628  0.00  0.00    +0.134 C 
ATOM     18  C   UNL     1      33.735 -24.068 -13.377  0.00  0.00    +0.220 C 
ATOM     19  C   UNL     1      34.996 -24.038 -11.663  0.00  0.00    +0.054 C 
ATOM     20  C   UNL     1      35.418 -24.326 -10.283  0.00  0.00    +0.049 C 
ENDBRANCH  12  15
BRANCH  13  21
ATOM     21  O   UNL     1      37.443 -22.561 -14.457  0.00  0.00    -0.470 OA
ATOM     22  C   UNL     1      38.364 -23.600 -14.779  0.00  0.00    +0.253 C 
ENDBRANCH  13  21
ENDBRANCH   8   9
BRANCH   2  23
ATOM     23  C   UNL     1      34.656 -18.805 -22.974  0.00  0.00    +0.098 C 
ATOM     24  C   UNL     1      33.859 -19.470 -24.101  0.00  0.00    +0.026 C 
BRANCH  23  26
ATOM     25  F   UNL     1      33.804 -13.251 -22.814  0.00  0.00    -0.204 F 
ATOM     26  C   UNL     1      34.426 -17.306 -22.931  0.00  0.00    -0.004 C 
ATOM     27  C   UNL     1      34.008 -16.657 -24.078  0.00  0.00    -0.000 C 
ATOM     28  C   UNL     1      34.640 -16.627 -21.746  0.00  0.00    -0.000 C 
ATOM     29  C   UNL     1      33.796 -15.279 -24.038  0.00  0.00    +0.029 C 
ATOM     30  C   UNL     1      34.428 -15.249 -21.706  0.00  0.00    +0.029 C 
ATOM     31  C   UNL     1      34.007 -14.575 -22.852  0.00  0.00    +0.140 C 
ENDBRANCH  23  26
ENDBRANCH   2  23
TORSDOF 5
ENDMDL
MODEL 9
REMARK VINA RESULT:     -11.5      2.342      3.670
REMARK  Name = 11560787
REMARK  5 active torsions:
REMARK  status: ('A' for Active; 'I' for Inactive)
REMARK    1  A    between atoms: N_2  and  C_23
REMARK    2  A    between atoms: C_8  and  C_9
REMARK    3  A    between atoms: C_12  and  N_15
REMARK    4  A    between atoms: C_13  and  O_21
REMARK    5  A    between atoms: C_23  and  C_26
REMARK                            x       y       z     vdW  Elec       q    Type
REMARK                         _______ _______ _______ _____ _____    ______ ____
ROOT
ATOM      1  O   UNL     1      32.977 -14.422 -24.791  0.00  0.00    -0.270 OA
ATOM      2  N   UNL     1      33.643 -15.370 -22.782  0.00  0.00    -0.274 N 
ATOM      3  C   UNL     1      33.784 -15.284 -21.329  0.00  0.00    +0.094 C 
ATOM      4  C   UNL     1      34.084 -13.874 -20.858  0.00  0.00    +0.026 C 
ATOM      5  C   UNL     1      33.008 -12.940 -21.379  0.00  0.00    +0.033 C 
ATOM      6  C   UNL     1      32.920 -13.023 -22.873  0.00  0.00    +0.031 C 
ATOM      7  C   UNL     1      33.174 -14.324 -23.579  0.00  0.00    +0.245 C 
ATOM      8  C   UNL     1      32.645 -11.944 -23.623  0.00  0.00    +0.000 C 
ENDROOT
BRANCH   8   9
ATOM      9  C   UNL     1      32.370 -10.593 -23.112  0.00  0.00    +0.003 C 
ATOM     10  C   UNL     1      33.272  -9.571 -23.367  0.00  0.00    +0.038 C 
ATOM     11  C   UNL     1      31.212 -10.363 -22.383  0.00  0.00    +0.001 C 
ATOM     12  C   UNL     1      31.850  -8.045 -22.149  0.00  0.00    +0.084 C 
ATOM     13  C   UNL     1      33.011  -8.289 -22.882  0.00  0.00    +0.152 C 
ATOM     14  C   UNL     1      30.951  -9.082 -21.899  0.00  0.00    +0.018 C 
BRANCH  12  15
ATOM     15  N   UNL     1      31.576  -6.779 -21.659  0.00  0.00    -0.280 N 
ATOM     16  N   UNL     1      31.605  -5.013 -20.302  0.00  0.00    -0.255 NA
ATOM     17  C   UNL     1      30.783  -5.831 -22.249  0.00  0.00    +0.134 C 
ATOM     18  C   UNL     1      32.046  -6.237 -20.491  0.00  0.00    +0.220 C 
ATOM     19  C   UNL     1      30.817  -4.753 -21.395  0.00  0.00    +0.054 C 
ATOM     20  C   UNL     1      30.140  -3.456 -21.538  0.00  0.00    +0.049 C 
ENDBRANCH  12  15
BRANCH  13  21
ATOM     21  O   UNL     1      33.904  -7.293 -23.140  0.00  0.00    -0.470 OA
ATOM     22  C   UNL     1      33.791  -6.632 -24.398  0.00  0.00    +0.253 C 
ENDBRANCH  13  21
ENDBRANCH   8   9
BRANCH   2  23
ATOM     23  C   UNL     1      33.864 -16.686 -23.368  0.00  0.00    +0.098 C 
ATOM     24  C   UNL     1      34.698 -16.542 -24.644  0.00  0.00    +0.026 C 
BRANCH  23  26
ATOM     25  F   UNL     1      36.262 -20.204 -19.698  0.00  0.00    -0.204 F 
ATOM     26  C   UNL     1      34.511 -17.635 -22.378  0.00  0.00    -0.004 C 
ATOM     27  C   UNL     1      35.837 -17.448 -22.035  0.00  0.00    -0.000 C 
ATOM     28  C   UNL     1      33.758 -18.664 -21.843  0.00  0.00    -0.000 C 
ATOM     29  C   UNL     1      36.432 -18.320 -21.123  0.00  0.00    +0.029 C 
ATOM     30  C   UNL     1      34.354 -19.537 -20.932  0.00  0.00    +0.029 C 
ATOM     31  C   UNL     1      35.690 -19.365 -20.573  0.00  0.00    +0.140 C 
ENDBRANCH  23  26
ENDBRANCH   2  23
TORSDOF 5
ENDMDL
