MODEL 1
REMARK VINA RESULT:     -12.7      0.000      0.000
REMARK  Name = 23624249
REMARK  4 active torsions:
REMARK  status: ('A' for Active; 'I' for Inactive)
REMARK    1  A    between atoms: N_5  and  C_17
REMARK    2  A    between atoms: C_7  and  C_29
REMARK    3  A    between atoms: C_18  and  C_23
REMARK    4  A    between atoms: C_23  and  C_25
REMARK                            x       y       z     vdW  Elec       q    Type
REMARK                         _______ _______ _______ _____ _____    ______ ____
ROOT
ATOM      1  N   UNL     1      36.905 -23.144 -15.530  0.00  0.00    -0.239 N 
ATOM      2  N   UNL     1      35.582 -23.047 -15.748  0.00  0.00    -0.166 NA
ATOM      3  N   UNL     1      33.732 -23.921 -14.496  0.00  0.00    -0.275 N 
ATOM      4  N   UNL     1      32.710 -22.772 -16.315  0.00  0.00    -0.317 NA
ATOM      5  N   UNL     1      31.666 -21.651 -18.092  0.00  0.00    -0.238 N 
ATOM      6  N   UNL     1      30.309 -22.726 -16.508  0.00  0.00    -0.317 NA
ATOM      7  C   UNL     1      37.228 -23.858 -14.414  0.00  0.00    +0.045 C 
ATOM      8  C   UNL     1      36.034 -24.255 -13.863  0.00  0.00    +0.048 C 
ATOM      9  C   UNL     1      35.101 -23.721 -14.734  0.00  0.00    +0.152 C 
ATOM     10  C   UNL     1      32.570 -23.506 -15.192  0.00  0.00    +0.184 C 
ATOM     11  C   UNL     1      31.348 -23.885 -14.671  0.00  0.00    +0.151 C 
ATOM     12  C   UNL     1      31.557 -22.419 -16.916  0.00  0.00    +0.205 C 
ATOM     13  C   UNL     1      30.241 -23.461 -15.378  0.00  0.00    +0.179 C 
ATOM     14  H   UNL     1      37.579 -22.737 -16.121  0.00  0.00    +0.174 HD
ATOM     15  H   UNL     1      33.542 -24.452 -13.689  0.00  0.00    +0.156 HD
ATOM     16  H   UNL     1      30.799 -21.418 -18.493  0.00  0.00    +0.166 HD
ATOM     17  N   UNL     1      28.968 -23.827 -14.877  0.00  0.00    -0.309 N 
ATOM     18  C   UNL     1      27.750 -23.449 -15.518  0.00  0.00    +0.110 C 
ATOM     19  H   UNL     1      28.922 -24.365 -14.054  0.00  0.00    +0.149 HD
ENDROOT
BRANCH   5  20
ATOM     20  C   UNL     1      32.775 -21.153 -18.807  0.00  0.00    +0.058 C 
ATOM     21  C   UNL     1      34.967 -20.164 -20.221  0.00  0.00    -0.007 C 
ATOM     22  C   UNL     1      34.063 -21.581 -18.487  0.00  0.00    +0.015 C 
ATOM     23  C   UNL     1      32.583 -20.230 -19.835  0.00  0.00    +0.015 C 
ATOM     24  C   UNL     1      35.159 -21.087 -19.193  0.00  0.00    -0.002 C 
ATOM     25  C   UNL     1      33.678 -19.736 -20.543  0.00  0.00    -0.002 C 
BRANCH  21  26
ATOM     26  C   UNL     1      36.139 -19.636 -20.978  0.00  0.00    +0.132 C 
BRANCH  26  28
ATOM     27  N   UNL     1      35.657 -17.283 -22.062  0.00  0.00    -0.196 NA
ATOM     28  C   UNL     1      35.873 -18.318 -21.583  0.00  0.00    +0.078 C 
ENDBRANCH  26  28
ENDBRANCH  21  26
ENDBRANCH   5  20
BRANCH   7  29
ATOM     29  C   UNL     1      38.630 -24.150 -13.893  0.00  0.00    +0.037 C 
ATOM     30  C   UNL     1      39.680 -24.655 -14.850  0.00  0.00    +0.006 C 
ATOM     31  C   UNL     1      39.104 -25.579 -13.817  0.00  0.00    +0.006 C 
ENDBRANCH   7  29
TORSDOF 4
ENDMDL
MODEL 2
REMARK VINA RESULT:     -12.4      1.599      6.543
REMARK  Name = 23624249
REMARK  4 active torsions:
REMARK  status: ('A' for Active; 'I' for Inactive)
REMARK    1  A    between atoms: N_5  and  C_17
REMARK    2  A    between atoms: C_7  and  C_29
REMARK    3  A    between atoms: C_18  and  C_23
REMARK    4  A    between atoms: C_23  and  C_25
REMARK                            x       y       z     vdW  Elec       q    Type
REMARK                         _______ _______ _______ _____ _____    ______ ____
ROOT
ATOM      1  N   UNL     1      35.173 -21.013 -19.103  0.00  0.00    -0.239 N 
ATOM      2  N   UNL     1      34.400 -21.637 -18.197  0.00  0.00    -0.166 NA
ATOM      3  N   UNL     1      32.012 -21.751 -18.006  0.00  0.00    -0.275 N 
ATOM      4  N   UNL     1      32.804 -23.038 -16.166  0.00  0.00    -0.317 NA
ATOM      5  N   UNL     1      33.544 -24.314 -14.341  0.00  0.00    -0.238 N 
ATOM      6  N   UNL     1      31.232 -24.073 -14.661  0.00  0.00    -0.317 NA
ATOM      7  C   UNL     1      34.469 -20.342 -20.059  0.00  0.00    +0.045 C 
ATOM      8  C   UNL     1      33.143 -20.542 -19.759  0.00  0.00    +0.048 C 
ATOM      9  C   UNL     1      33.201 -21.331 -18.624  0.00  0.00    +0.152 C 
ATOM     10  C   UNL     1      31.758 -22.547 -16.862  0.00  0.00    +0.184 C 
ATOM     11  C   UNL     1      30.438 -22.772 -16.524  0.00  0.00    +0.151 C 
ATOM     12  C   UNL     1      32.477 -23.784 -15.092  0.00  0.00    +0.205 C 
ATOM     13  C   UNL     1      30.233 -23.551 -15.404  0.00  0.00    +0.179 C 
ATOM     14  H   UNL     1      36.156 -21.037 -19.080  0.00  0.00    +0.174 HD
ATOM     15  H   UNL     1      31.196 -21.432 -18.455  0.00  0.00    +0.156 HD
ATOM     16  H   UNL     1      33.255 -24.851 -13.569  0.00  0.00    +0.166 HD
ATOM     17  N   UNL     1      28.894 -23.807 -15.023  0.00  0.00    -0.309 N 
ATOM     18  C   UNL     1      28.553 -24.597 -13.885  0.00  0.00    +0.110 C 
ATOM     19  H   UNL     1      28.168 -23.422 -15.565  0.00  0.00    +0.149 HD
ENDROOT
BRANCH   5  20
ATOM     20  C   UNL     1      34.945 -24.226 -14.479  0.00  0.00    +0.058 C 
ATOM     21  C   UNL     1      37.715 -24.053 -14.755  0.00  0.00    -0.007 C 
ATOM     22  C   UNL     1      35.572 -22.981 -14.457  0.00  0.00    +0.015 C 
ATOM     23  C   UNL     1      35.703 -25.386 -14.640  0.00  0.00    +0.015 C 
ATOM     24  C   UNL     1      36.957 -22.893 -14.596  0.00  0.00    -0.002 C 
ATOM     25  C   UNL     1      37.088 -25.300 -14.778  0.00  0.00    -0.002 C 
BRANCH  21  26
ATOM     26  C   UNL     1      39.197 -23.961 -14.902  0.00  0.00    +0.132 C 
BRANCH  26  28
ATOM     27  N   UNL     1      40.451 -26.047 -13.892  0.00  0.00    -0.196 NA
ATOM     28  C   UNL     1      39.894 -25.130 -14.337  0.00  0.00    +0.078 C 
ENDBRANCH  26  28
ENDBRANCH  21  26
ENDBRANCH   5  20
BRANCH   7  29
ATOM     29  C   UNL     1      35.043 -19.540 -21.220  0.00  0.00    +0.037 C 
ATOM     30  C   UNL     1      36.246 -18.662 -20.983  0.00  0.00    +0.006 C 
ATOM     31  C   UNL     1      34.901 -18.039 -21.218  0.00  0.00    +0.006 C 
ENDBRANCH   7  29
TORSDOF 4
ENDMDL
MODEL 3
REMARK VINA RESULT:     -12.2      1.939      7.443
REMARK  Name = 23624249
REMARK  4 active torsions:
REMARK  status: ('A' for Active; 'I' for Inactive)
REMARK    1  A    between atoms: N_5  and  C_17
REMARK    2  A    between atoms: C_7  and  C_29
REMARK    3  A    between atoms: C_18  and  C_23
REMARK    4  A    between atoms: C_23  and  C_25
REMARK                            x       y       z     vdW  Elec       q    Type
REMARK                         _______ _______ _______ _____ _____    ______ ____
ROOT
ATOM      1  N   UNL     1      33.703 -20.526 -19.451  0.00  0.00    -0.239 N 
ATOM      2  N   UNL     1      34.111 -21.141 -18.328  0.00  0.00    -0.166 NA
ATOM      3  N   UNL     1      36.322 -21.645 -17.547  0.00  0.00    -0.275 N 
ATOM      4  N   UNL     1      34.897 -22.496 -15.840  0.00  0.00    -0.317 NA
ATOM      5  N   UNL     1      33.526 -23.347 -14.137  0.00  0.00    -0.238 N 
ATOM      6  N   UNL     1      35.850 -23.565 -13.903  0.00  0.00    -0.317 NA
ATOM      7  C   UNL     1      34.723 -20.133 -20.267  0.00  0.00    +0.045 C 
ATOM      8  C   UNL     1      35.879 -20.517 -19.631  0.00  0.00    +0.048 C 
ATOM      9  C   UNL     1      35.412 -21.114 -18.474  0.00  0.00    +0.152 C 
ATOM     10  C   UNL     1      36.149 -22.299 -16.303  0.00  0.00    +0.184 C 
ATOM     11  C   UNL     1      37.286 -22.702 -15.632  0.00  0.00    +0.151 C 
ATOM     12  C   UNL     1      34.818 -23.125 -14.651  0.00  0.00    +0.205 C 
ATOM     13  C   UNL     1      37.074 -23.335 -14.424  0.00  0.00    +0.179 C 
ATOM     14  H   UNL     1      32.755 -20.372 -19.667  0.00  0.00    +0.174 HD
ATOM     15  H   UNL     1      37.265 -21.542 -17.813  0.00  0.00    +0.156 HD
ATOM     16  H   UNL     1      33.520 -23.808 -13.268  0.00  0.00    +0.166 HD
ATOM     17  N   UNL     1      38.215 -23.764 -13.703  0.00  0.00    -0.309 N 
ATOM     18  C   UNL     1      38.126 -24.429 -12.444  0.00  0.00    +0.110 C 
ATOM     19  H   UNL     1      39.106 -23.597 -14.087  0.00  0.00    +0.149 HD
ENDROOT
BRANCH   5  20
ATOM     20  C   UNL     1      32.239 -23.039 -14.624  0.00  0.00    +0.058 C 
ATOM     21  C   UNL     1      29.692 -22.426 -15.586  0.00  0.00    -0.007 C 
ATOM     22  C   UNL     1      32.032 -22.868 -15.993  0.00  0.00    +0.015 C 
ATOM     23  C   UNL     1      31.172 -22.903 -13.736  0.00  0.00    +0.015 C 
ATOM     24  C   UNL     1      30.760 -22.561 -16.474  0.00  0.00    -0.002 C 
ATOM     25  C   UNL     1      29.899 -22.597 -14.216  0.00  0.00    -0.002 C 
BRANCH  21  26
ATOM     26  C   UNL     1      28.331 -22.099 -16.100  0.00  0.00    +0.132 C 
BRANCH  26  28
ATOM     27  N   UNL     1      27.139 -24.187 -17.179  0.00  0.00    -0.196 NA
ATOM     28  C   UNL     1      27.661 -23.264 -16.705  0.00  0.00    +0.078 C 
ENDBRANCH  26  28
ENDBRANCH  21  26
ENDBRANCH   5  20
BRANCH   7  29
ATOM     29  C   UNL     1      34.597 -19.415 -21.604  0.00  0.00    +0.037 C 
ATOM     30  C   UNL     1      35.757 -18.596 -22.110  0.00  0.00    +0.006 C 
ATOM     31  C   UNL     1      34.514 -17.909 -21.625  0.00  0.00    +0.006 C 
ENDBRANCH   7  29
TORSDOF 4
ENDMDL
MODEL 4
REMARK VINA RESULT:     -12.1      2.383      6.981
REMARK  Name = 23624249
REMARK  4 active torsions:
REMARK  status: ('A' for Active; 'I' for Inactive)
REMARK    1  A    between atoms: N_5  and  C_17
REMARK    2  A    between atoms: C_7  and  C_29
REMARK    3  A    between atoms: C_18  and  C_23
REMARK    4  A    between atoms: C_23  and  C_25
REMARK                            x       y       z     vdW  Elec       q    Type
REMARK                         _______ _______ _______ _____ _____    ______ ____
ROOT
ATOM      1  N   UNL     1      33.681 -21.720 -18.429  0.00  0.00    -0.239 N 
ATOM      2  N   UNL     1      33.717 -22.129 -17.149  0.00  0.00    -0.166 NA
ATOM      3  N   UNL     1      35.550 -22.245 -15.607  0.00  0.00    -0.275 N 
ATOM      4  N   UNL     1      33.688 -23.040 -14.355  0.00  0.00    -0.317 NA
ATOM      5  N   UNL     1      31.877 -23.829 -13.088  0.00  0.00    -0.238 N 
ATOM      6  N   UNL     1      33.985 -23.720 -12.063  0.00  0.00    -0.317 NA
ATOM      7  C   UNL     1      34.889 -21.311 -18.912  0.00  0.00    +0.045 C 
ATOM      8  C   UNL     1      35.777 -21.460 -17.875  0.00  0.00    +0.048 C 
ATOM      9  C   UNL     1      34.982 -21.957 -16.858  0.00  0.00    +0.152 C 
ATOM     10  C   UNL     1      35.004 -22.749 -14.401  0.00  0.00    +0.184 C 
ATOM     11  C   UNL     1      35.864 -22.915 -13.333  0.00  0.00    +0.151 C 
ATOM     12  C   UNL     1      33.247 -23.514 -13.173  0.00  0.00    +0.205 C 
ATOM     13  C   UNL     1      35.293 -23.407 -12.178  0.00  0.00    +0.179 C 
ATOM     14  H   UNL     1      32.858 -21.717 -18.970  0.00  0.00    +0.174 HD
ATOM     15  H   UNL     1      36.516 -22.059 -15.557  0.00  0.00    +0.156 HD
ATOM     16  H   UNL     1      31.604 -24.171 -12.207  0.00  0.00    +0.166 HD
ATOM     17  N   UNL     1      36.140 -23.592 -11.059  0.00  0.00    -0.309 N 
ATOM     18  C   UNL     1      35.669 -24.094  -9.810  0.00  0.00    +0.110 C 
ATOM     19  H   UNL     1      37.094 -23.365 -11.147  0.00  0.00    +0.149 HD
ENDROOT
BRANCH   5  20
ATOM     20  C   UNL     1      30.821 -23.751 -14.019  0.00  0.00    +0.058 C 
ATOM     21  C   UNL     1      28.729 -23.598 -15.858  0.00  0.00    -0.007 C 
ATOM     22  C   UNL     1      30.628 -22.587 -14.761  0.00  0.00    +0.015 C 
ATOM     23  C   UNL     1      29.967 -24.840 -14.195  0.00  0.00    +0.015 C 
ATOM     24  C   UNL     1      29.582 -22.509 -15.681  0.00  0.00    -0.002 C 
ATOM     25  C   UNL     1      28.921 -24.764 -15.115  0.00  0.00    -0.002 C 
BRANCH  21  26
ATOM     26  C   UNL     1      27.610 -23.517 -16.842  0.00  0.00    +0.132 C 
BRANCH  26  28
ATOM     27  N   UNL     1      26.478 -21.139 -16.901  0.00  0.00    -0.196 NA
ATOM     28  C   UNL     1      26.979 -22.186 -16.871  0.00  0.00    +0.078 C 
ENDBRANCH  26  28
ENDBRANCH  21  26
ENDBRANCH   5  20
BRANCH   7  29
ATOM     29  C   UNL     1      35.182 -20.794 -20.315  0.00  0.00    +0.037 C 
ATOM     30  C   UNL     1      35.932 -19.496 -20.477  0.00  0.00    +0.006 C 
ATOM     31  C   UNL     1      34.469 -19.560 -20.808  0.00  0.00    +0.006 C 
ENDBRANCH   7  29
TORSDOF 4
ENDMDL
MODEL 5
REMARK VINA RESULT:     -11.9      1.418      6.130
REMARK  Name = 23624249
REMARK  4 active torsions:
REMARK  status: ('A' for Active; 'I' for Inactive)
REMARK    1  A    between atoms: N_5  and  C_17
REMARK    2  A    between atoms: C_7  and  C_29
REMARK    3  A    between atoms: C_18  and  C_23
REMARK    4  A    between atoms: C_23  and  C_25
REMARK                            x       y       z     vdW  Elec       q    Type
REMARK                         _______ _______ _______ _____ _____    ______ ____
ROOT
ATOM      1  N   UNL     1      29.878 -22.376 -16.842  0.00  0.00    -0.239 N 
ATOM      2  N   UNL     1      31.153 -22.527 -16.441  0.00  0.00    -0.166 NA
ATOM      3  N   UNL     1      32.051 -23.570 -14.477  0.00  0.00    -0.275 N 
ATOM      4  N   UNL     1      33.972 -22.807 -15.658  0.00  0.00    -0.317 NA
ATOM      5  N   UNL     1      35.890 -22.070 -16.792  0.00  0.00    -0.238 N 
ATOM      6  N   UNL     1      36.170 -23.191 -14.749  0.00  0.00    -0.317 NA
ATOM      7  C   UNL     1      28.963 -22.906 -15.980  0.00  0.00    +0.045 C 
ATOM      8  C   UNL     1      29.689 -23.443 -14.945  0.00  0.00    +0.048 C 
ATOM      9  C   UNL     1      30.995 -23.167 -15.309  0.00  0.00    +0.152 C 
ATOM     10  C   UNL     1      33.457 -23.435 -14.581  0.00  0.00    +0.184 C 
ATOM     11  C   UNL     1      34.224 -23.961 -13.560  0.00  0.00    +0.151 C 
ATOM     12  C   UNL     1      35.317 -22.720 -15.682  0.00  0.00    +0.205 C 
ATOM     13  C   UNL     1      35.588 -23.808 -13.700  0.00  0.00    +0.179 C 
ATOM     14  H   UNL     1      29.628 -21.925 -17.679  0.00  0.00    +0.174 HD
ATOM     15  H   UNL     1      31.757 -24.039 -13.662  0.00  0.00    +0.156 HD
ATOM     16  H   UNL     1      36.872 -22.032 -16.764  0.00  0.00    +0.166 HD
ATOM     17  N   UNL     1      36.412 -24.334 -12.675  0.00  0.00    -0.309 N 
ATOM     18  C   UNL     1      37.835 -24.240 -12.705  0.00  0.00    +0.110 C 
ATOM     19  H   UNL     1      35.984 -24.782 -11.910  0.00  0.00    +0.149 HD
ENDROOT
BRANCH   5  20
ATOM     20  C   UNL     1      35.331 -21.462 -17.935  0.00  0.00    +0.058 C 
ATOM     21  C   UNL     1      34.227 -20.262 -20.199  0.00  0.00    -0.007 C 
ATOM     22  C   UNL     1      33.981 -21.647 -18.235  0.00  0.00    +0.015 C 
ATOM     23  C   UNL     1      36.129 -20.677 -18.767  0.00  0.00    +0.015 C 
ATOM     24  C   UNL     1      33.429 -21.047 -19.367  0.00  0.00    -0.002 C 
ATOM     25  C   UNL     1      35.577 -20.077 -19.899  0.00  0.00    -0.002 C 
BRANCH  21  26
ATOM     26  C   UNL     1      33.637 -19.619 -21.409  0.00  0.00    +0.132 C 
BRANCH  26  28
ATOM     27  N   UNL     1      35.278 -17.896 -22.541  0.00  0.00    -0.196 NA
ATOM     28  C   UNL     1      34.557 -18.659 -22.044  0.00  0.00    +0.078 C 
ENDBRANCH  26  28
ENDBRANCH  21  26
ENDBRANCH   5  20
BRANCH   7  29
ATOM     29  C   UNL     1      27.449 -22.901 -16.143  0.00  0.00    +0.037 C 
ATOM     30  C   UNL     1      26.793 -21.769 -16.893  0.00  0.00    +0.006 C 
ATOM     31  C   UNL     1      26.633 -21.870 -15.404  0.00  0.00    +0.006 C 
ENDBRANCH   7  29
TORSDOF 4
ENDMDL
MODEL 6
REMARK VINA RESULT:     -10.6      1.945      7.539
REMARK  Name = 23624249
REMARK  4 active torsions:
REMARK  status: ('A' for Active; 'I' for Inactive)
REMARK    1  A    between atoms: N_5  and  C_17
REMARK    2  A    between atoms: C_7  and  C_29
REMARK    3  A    between atoms: C_18  and  C_23
REMARK    4  A    between atoms: C_23  and  C_25
REMARK                            x       y       z     vdW  Elec       q    Type
REMARK                         _______ _______ _______ _____ _____    ______ ____
ROOT
ATOM      1  N   UNL     1      31.390 -23.555 -14.975  0.00  0.00    -0.239 N 
ATOM      2  N   UNL     1      32.250 -22.962 -15.821  0.00  0.00    -0.166 NA
ATOM      3  N   UNL     1      31.860 -21.863 -17.917  0.00  0.00    -0.275 N 
ATOM      4  N   UNL     1      34.214 -21.690 -17.601  0.00  0.00    -0.317 NA
ATOM      5  N   UNL     1      36.536 -21.500 -17.326  0.00  0.00    -0.238 N 
ATOM      6  N   UNL     1      35.568 -20.578 -19.254  0.00  0.00    -0.317 NA
ATOM      7  C   UNL     1      30.092 -23.517 -15.392  0.00  0.00    +0.045 C 
ATOM      8  C   UNL     1      30.103 -22.851 -16.594  0.00  0.00    +0.048 C 
ATOM      9  C   UNL     1      31.444 -22.557 -16.770  0.00  0.00    +0.152 C 
ATOM     10  C   UNL     1      33.132 -21.428 -18.363  0.00  0.00    +0.184 C 
ATOM     11  C   UNL     1      33.188 -20.756 -19.568  0.00  0.00    +0.151 C 
ATOM     12  C   UNL     1      35.385 -21.244 -18.096  0.00  0.00    +0.205 C 
ATOM     13  C   UNL     1      34.445 -20.349 -19.967  0.00  0.00    +0.179 C 
ATOM     14  H   UNL     1      31.670 -23.978 -14.132  0.00  0.00    +0.174 HD
ATOM     15  H   UNL     1      31.125 -21.633 -18.531  0.00  0.00    +0.156 HD
ATOM     16  H   UNL     1      37.365 -21.154 -17.727  0.00  0.00    +0.166 HD
ATOM     17  N   UNL     1      34.546 -19.655 -21.196  0.00  0.00    -0.309 N 
ATOM     18  C   UNL     1      35.789 -19.184 -21.715  0.00  0.00    +0.110 C 
ATOM     19  H   UNL     1      33.726 -19.491 -21.715  0.00  0.00    +0.149 HD
ENDROOT
BRANCH   5  20
ATOM     20  C   UNL     1      36.733 -22.154 -16.092  0.00  0.00    +0.058 C 
ATOM     21  C   UNL     1      37.119 -23.450 -13.651  0.00  0.00    -0.007 C 
ATOM     22  C   UNL     1      37.910 -22.864 -15.857  0.00  0.00    +0.015 C 
ATOM     23  C   UNL     1      35.748 -22.091 -15.106  0.00  0.00    +0.015 C 
ATOM     24  C   UNL     1      38.103 -23.513 -14.638  0.00  0.00    -0.002 C 
ATOM     25  C   UNL     1      35.941 -22.738 -13.885  0.00  0.00    -0.002 C 
BRANCH  21  26
ATOM     26  C   UNL     1      37.326 -24.142 -12.346  0.00  0.00    +0.132 C 
BRANCH  26  28
ATOM     27  N   UNL     1      35.068 -24.584 -11.061  0.00  0.00    -0.196 NA
ATOM     28  C   UNL     1      36.061 -24.387 -11.631  0.00  0.00    +0.078 C 
ENDBRANCH  26  28
ENDBRANCH  21  26
ENDBRANCH   5  20
BRANCH   7  29
ATOM     29  C   UNL     1      28.883 -24.094 -14.666  0.00  0.00    +0.037 C 
ATOM     30  C   UNL     1      29.091 -24.846 -13.376  0.00  0.00    +0.006 C 
ATOM     31  C   UNL     1      28.699 -25.590 -14.619  0.00  0.00    +0.006 C 
ENDBRANCH   7  29
TORSDOF 4
ENDMDL
MODEL 7
REMARK VINA RESULT:     -10.4      1.473      6.049
REMARK  Name = 23624249
REMARK  4 active torsions:
REMARK  status: ('A' for Active; 'I' for Inactive)
REMARK    1  A    between atoms: N_5  and  C_17
REMARK    2  A    between atoms: C_7  and  C_29
REMARK    3  A    between atoms: C_18  and  C_23
REMARK    4  A    between atoms: C_23  and  C_25
REMARK                            x       y       z     vdW  Elec       q    Type
REMARK                         _______ _______ _______ _____ _____    ______ ____
ROOT
ATOM      1  N   UNL     1      31.112 -23.278 -15.257  0.00  0.00    -0.239 N 
ATOM      2  N   UNL     1      32.456 -23.271 -15.233  0.00  0.00    -0.166 NA
ATOM      3  N   UNL     1      33.988 -24.219 -13.650  0.00  0.00    -0.275 N 
ATOM      4  N   UNL     1      35.394 -23.199 -15.278  0.00  0.00    -0.317 NA
ATOM      5  N   UNL     1      36.814 -22.206 -16.860  0.00  0.00    -0.238 N 
ATOM      6  N   UNL     1      37.789 -23.311 -15.034  0.00  0.00    -0.317 NA
ATOM      7  C   UNL     1      30.545 -23.933 -14.203  0.00  0.00    +0.045 C 
ATOM      8  C   UNL     1      31.592 -24.387 -13.438  0.00  0.00    +0.048 C 
ATOM      9  C   UNL     1      32.700 -23.941 -14.136  0.00  0.00    +0.152 C 
ATOM     10  C   UNL     1      35.281 -23.903 -14.133  0.00  0.00    +0.184 C 
ATOM     11  C   UNL     1      36.361 -24.341 -13.392  0.00  0.00    +0.151 C 
ATOM     12  C   UNL     1      36.658 -22.940 -15.669  0.00  0.00    +0.205 C 
ATOM     13  C   UNL     1      37.603 -24.014 -13.897  0.00  0.00    +0.179 C 
ATOM     14  H   UNL     1      30.584 -22.850 -15.969  0.00  0.00    +0.174 HD
ATOM     15  H   UNL     1      33.993 -24.733 -12.810  0.00  0.00    +0.156 HD
ATOM     16  H   UNL     1      37.753 -22.044 -17.104  0.00  0.00    +0.166 HD
ATOM     17  N   UNL     1      38.738 -24.444 -13.167  0.00  0.00    -0.309 N 
ATOM     18  C   UNL     1      40.073 -24.168 -13.586  0.00  0.00    +0.110 C 
ATOM     19  H   UNL     1      38.599 -24.954 -12.337  0.00  0.00    +0.149 HD
ENDROOT
BRANCH   5  20
ATOM     20  C   UNL     1      35.888 -21.659 -17.772  0.00  0.00    +0.058 C 
ATOM     21  C   UNL     1      34.054 -20.574 -19.573  0.00  0.00    -0.007 C 
ATOM     22  C   UNL     1      36.324 -20.798 -18.779  0.00  0.00    +0.015 C 
ATOM     23  C   UNL     1      34.534 -21.978 -17.666  0.00  0.00    +0.015 C 
ATOM     24  C   UNL     1      35.407 -20.255 -19.679  0.00  0.00    -0.002 C 
ATOM     25  C   UNL     1      33.617 -21.436 -18.566  0.00  0.00    -0.002 C 
BRANCH  21  26
ATOM     26  C   UNL     1      33.073 -19.995 -20.537  0.00  0.00    +0.132 C 
BRANCH  26  28
ATOM     27  N   UNL     1      34.250 -18.798 -22.568  0.00  0.00    -0.196 NA
ATOM     28  C   UNL     1      33.727 -19.325 -21.675  0.00  0.00    +0.078 C 
ENDBRANCH  26  28
ENDBRANCH  21  26
ENDBRANCH   5  20
BRANCH   7  29
ATOM     29  C   UNL     1      29.057 -24.119 -13.939  0.00  0.00    +0.037 C 
ATOM     30  C   UNL     1      28.386 -25.395 -14.382  0.00  0.00    +0.006 C 
ATOM     31  C   UNL     1      28.097 -24.110 -15.102  0.00  0.00    +0.006 C 
ENDBRANCH   7  29
TORSDOF 4
ENDMDL
MODEL 8
REMARK VINA RESULT:     -10.3      1.603      6.200
REMARK  Name = 23624249
REMARK  4 active torsions:
REMARK  status: ('A' for Active; 'I' for Inactive)
REMARK    1  A    between atoms: N_5  and  C_17
REMARK    2  A    between atoms: C_7  and  C_29
REMARK    3  A    between atoms: C_18  and  C_23
REMARK    4  A    between atoms: C_23  and  C_25
REMARK                            x       y       z     vdW  Elec       q    Type
REMARK                         _______ _______ _______ _____ _____    ______ ____
ROOT
ATOM      1  N   UNL     1      36.223 -23.601 -14.537  0.00  0.00    -0.239 N 
ATOM      2  N   UNL     1      35.637 -22.995 -15.584  0.00  0.00    -0.166 NA
ATOM      3  N   UNL     1      36.600 -21.782 -17.416  0.00  0.00    -0.275 N 
ATOM      4  N   UNL     1      34.258 -21.704 -17.837  0.00  0.00    -0.317 NA
ATOM      5  N   UNL     1      31.957 -21.605 -18.286  0.00  0.00    -0.238 N 
ATOM      6  N   UNL     1      33.427 -20.559 -19.786  0.00  0.00    -0.317 NA
ATOM      7  C   UNL     1      37.582 -23.498 -14.530  0.00  0.00    +0.045 C 
ATOM      8  C   UNL     1      37.910 -22.777 -15.652  0.00  0.00    +0.048 C 
ATOM      9  C   UNL     1      36.676 -22.518 -16.222  0.00  0.00    +0.152 C 
ATOM     10  C   UNL     1      35.508 -21.370 -18.218  0.00  0.00    +0.184 C 
ATOM     11  C   UNL     1      35.794 -20.641 -19.355  0.00  0.00    +0.151 C 
ATOM     12  C   UNL     1      33.276 -21.275 -18.654  0.00  0.00    +0.205 C 
ATOM     13  C   UNL     1      34.703 -20.260 -20.109  0.00  0.00    +0.179 C 
ATOM     14  H   UNL     1      35.717 -24.075 -13.838  0.00  0.00    +0.174 HD
ATOM     15  H   UNL     1      37.477 -21.497 -17.763  0.00  0.00    +0.156 HD
ATOM     16  H   UNL     1      31.277 -21.271 -18.913  0.00  0.00    +0.166 HD
ATOM     17  N   UNL     1      34.952 -19.511 -21.285  0.00  0.00    -0.309 N 
ATOM     18  C   UNL     1      33.909 -19.059 -22.146  0.00  0.00    +0.110 C 
ATOM     19  H   UNL     1      35.884 -19.292 -21.517  0.00  0.00    +0.149 HD
ENDROOT
BRANCH   5  20
ATOM     20  C   UNL     1      31.421 -22.322 -17.196  0.00  0.00    +0.058 C 
ATOM     21  C   UNL     1      30.364 -23.738 -15.038  0.00  0.00    -0.007 C 
ATOM     22  C   UNL     1      30.065 -22.218 -16.890  0.00  0.00    +0.015 C 
ATOM     23  C   UNL     1      32.250 -23.135 -16.423  0.00  0.00    +0.015 C 
ATOM     24  C   UNL     1      29.536 -22.925 -15.811  0.00  0.00    -0.002 C 
ATOM     25  C   UNL     1      31.721 -23.844 -15.344  0.00  0.00    -0.002 C 
BRANCH  21  26
ATOM     26  C   UNL     1      29.799 -24.496 -13.884  0.00  0.00    +0.132 C 
BRANCH  26  28
ATOM     27  N   UNL     1      29.969 -23.164 -11.617  0.00  0.00    -0.196 NA
ATOM     28  C   UNL     1      29.898 -23.752 -12.616  0.00  0.00    +0.078 C 
ENDBRANCH  26  28
ENDBRANCH  21  26
ENDBRANCH   5  20
BRANCH   7  29
ATOM     29  C   UNL     1      38.535 -24.072 -13.489  0.00  0.00    +0.037 C 
ATOM     30  C   UNL     1      39.749 -24.839 -13.947  0.00  0.00    +0.006 C 
ATOM     31  C   UNL     1      38.606 -25.567 -13.302  0.00  0.00    +0.006 C 
ENDBRANCH   7  29
TORSDOF 4
ENDMDL
