MODEL 1
REMARK VINA RESULT:     -13.1      0.000      0.000
REMARK  Name = 23648971
REMARK  8 active torsions:
REMARK  status: ('A' for Active; 'I' for Inactive)
REMARK    1  A    between atoms: N_2  and  C_15
REMARK    2  A    between atoms: N_3  and  C_28
REMARK    3  A    between atoms: C_12  and  S_19
REMARK    4  A    between atoms: S_19  and  N_23
REMARK    5  A    between atoms: C_24  and  C_26
REMARK    6  A    between atoms: C_31  and  O_34
REMARK    7  A    between atoms: O_34  and  C_35
REMARK    8  A    between atoms: C_35  and  C_36
REMARK                            x       y       z     vdW  Elec       q    Type
REMARK                         _______ _______ _______ _____ _____    ______ ____
ROOT
ATOM      1  F   UNL     1      36.143 -23.924 -12.403  0.00  0.00    -0.198 F 
ATOM      2  N   UNL     1      36.504 -21.770 -17.379  0.00  0.00    -0.247 N 
ATOM      3  N   UNL     1      33.848 -23.124 -13.713  0.00  0.00    -0.285 N 
ATOM      4  N   UNL     1      35.168 -22.437 -15.569  0.00  0.00    -0.320 NA
ATOM      5  N   UNL     1      37.562 -22.700 -15.503  0.00  0.00    -0.167 NA
ATOM      6  C   UNL     1      36.407 -22.330 -16.091  0.00  0.00    +0.150 C 
ATOM      7  C   UNL     1      35.112 -22.975 -14.334  0.00  0.00    +0.226 C 
ATOM      8  C   UNL     1      36.221 -23.393 -13.629  0.00  0.00    +0.205 C 
ATOM      9  C   UNL     1      37.432 -23.230 -14.269  0.00  0.00    +0.145 C 
ATOM     10  H   UNL     1      37.427 -21.711 -17.717  0.00  0.00    +0.165 HD
ATOM     11  H   UNL     1      33.878 -23.063 -12.731  0.00  0.00    +0.155 HD
ENDROOT
BRANCH   2  15
ATOM     12  C   UNL     1      34.940 -19.846 -20.117  0.00  0.00    +0.123 C 
ATOM     13  C   UNL     1      33.632 -20.303 -20.071  0.00  0.00    -0.003 C 
ATOM     14  C   UNL     1      35.898 -20.322 -19.234  0.00  0.00    +0.035 C 
ATOM     15  C   UNL     1      35.538 -21.277 -18.283  0.00  0.00    +0.059 C 
ATOM     16  C   UNL     1      33.272 -21.258 -19.119  0.00  0.00    -0.002 C 
ATOM     17  C   UNL     1      34.226 -21.744 -18.225  0.00  0.00    +0.015 C 
ATOM     18  C   UNL     1      32.586 -19.804 -21.015  0.00  0.00    +0.032 C 
BRANCH  12  19
ATOM     19  S   UNL     1      35.429 -18.639 -21.310  0.00  0.00    +0.075 S 
ATOM     20  O   UNL     1      34.846 -19.041 -22.576  0.00  0.00    -0.150 OA
ATOM     21  O   UNL     1      36.860 -18.437 -21.190  0.00  0.00    -0.150 OA
BRANCH  19  23
ATOM     22  O   UNL     1      34.922 -15.828 -22.566  0.00  0.00    -0.274 OA
ATOM     23  N   UNL     1      34.612 -17.254 -20.727  0.00  0.00    -0.185 N 
ATOM     24  C   UNL     1      34.487 -16.016 -21.434  0.00  0.00    +0.241 C 
ATOM     25  H   UNL     1      34.195 -17.314 -19.837  0.00  0.00    +0.177 HD
BRANCH  24  26
ATOM     26  C   UNL     1      33.790 -14.932 -20.648  0.00  0.00    +0.087 C 
ATOM     27  C   UNL     1      33.713 -13.652 -21.459  0.00  0.00    +0.010 C 
ENDBRANCH  24  26
ENDBRANCH  19  23
ENDBRANCH  12  19
ENDBRANCH   2  15
BRANCH   3  28
ATOM     28  C   UNL     1      32.559 -23.340 -14.226  0.00  0.00    +0.050 C 
ATOM     29  C   UNL     1      31.726 -24.306 -13.654  0.00  0.00    +0.018 C 
ATOM     30  C   UNL     1      32.100 -22.592 -15.315  0.00  0.00    +0.018 C 
ATOM     31  C   UNL     1      29.994 -23.773 -15.252  0.00  0.00    +0.140 C 
ATOM     32  C   UNL     1      30.446 -24.522 -14.166  0.00  0.00    +0.038 C 
ATOM     33  C   UNL     1      30.820 -22.808 -15.826  0.00  0.00    +0.038 C 
BRANCH  31  34
ATOM     34  O   UNL     1      28.745 -23.984 -15.751  0.00  0.00    -0.461 OA
BRANCH  34  35
ATOM     35  C   UNL     1      28.214 -22.984 -16.618  0.00  0.00    +0.282 C 
BRANCH  35  36
ATOM     36  C   UNL     1      27.095 -22.291 -15.980  0.00  0.00    -0.031 C 
ATOM     37  C   UNL     1      26.178 -21.721 -15.455  0.00  0.00    -0.010 C 
ENDBRANCH  35  36
ENDBRANCH  34  35
ENDBRANCH  31  34
ENDBRANCH   3  28
TORSDOF 8
ENDMDL
MODEL 2
REMARK VINA RESULT:     -11.2      2.685      5.517
REMARK  Name = 23648971
REMARK  8 active torsions:
REMARK  status: ('A' for Active; 'I' for Inactive)
REMARK    1  A    between atoms: N_2  and  C_15
REMARK    2  A    between atoms: N_3  and  C_28
REMARK    3  A    between atoms: C_12  and  S_19
REMARK    4  A    between atoms: S_19  and  N_23
REMARK    5  A    between atoms: C_24  and  C_26
REMARK    6  A    between atoms: C_31  and  O_34
REMARK    7  A    between atoms: O_34  and  C_35
REMARK    8  A    between atoms: C_35  and  C_36
REMARK                            x       y       z     vdW  Elec       q    Type
REMARK                         _______ _______ _______ _____ _____    ______ ____
ROOT
ATOM      1  F   UNL     1      29.557 -24.106 -13.878  0.00  0.00    -0.198 F 
ATOM      2  N   UNL     1      31.408 -21.353 -18.182  0.00  0.00    -0.247 N 
ATOM      3  N   UNL     1      32.265 -24.071 -14.413  0.00  0.00    -0.285 N 
ATOM      4  N   UNL     1      31.854 -22.701 -16.314  0.00  0.00    -0.320 NA
ATOM      5  N   UNL     1      29.600 -22.046 -16.857  0.00  0.00    -0.167 NA
ATOM      6  C   UNL     1      30.931 -22.066 -17.065  0.00  0.00    +0.150 C 
ATOM      7  C   UNL     1      31.363 -23.375 -15.254  0.00  0.00    +0.226 C 
ATOM      8  C   UNL     1      30.023 -23.431 -14.935  0.00  0.00    +0.205 C 
ATOM      9  C   UNL     1      29.178 -22.741 -15.780  0.00  0.00    +0.145 C 
ATOM     10  H   UNL     1      30.699 -20.907 -18.699  0.00  0.00    +0.165 HD
ATOM     11  H   UNL     1      31.877 -24.870 -13.989  0.00  0.00    +0.155 HD
ENDROOT
BRANCH   2  15
ATOM     12  C   UNL     1      34.172 -20.065 -20.265  0.00  0.00    +0.123 C 
ATOM     13  C   UNL     1      35.260 -20.749 -19.743  0.00  0.00    -0.003 C 
ATOM     14  C   UNL     1      32.895 -20.256 -19.759  0.00  0.00    +0.035 C 
ATOM     15  C   UNL     1      32.702 -21.151 -18.707  0.00  0.00    +0.059 C 
ATOM     16  C   UNL     1      35.067 -21.644 -18.691  0.00  0.00    -0.002 C 
ATOM     17  C   UNL     1      33.787 -21.845 -18.174  0.00  0.00    +0.015 C 
ATOM     18  C   UNL     1      36.643 -20.555 -20.275  0.00  0.00    +0.032 C 
BRANCH  12  19
ATOM     19  S   UNL     1      34.383 -18.922 -21.596  0.00  0.00    +0.075 S 
ATOM     20  O   UNL     1      33.287 -19.150 -22.520  0.00  0.00    -0.150 OA
ATOM     21  O   UNL     1      35.758 -19.005 -22.050  0.00  0.00    -0.150 OA
BRANCH  19  23
ATOM     22  O   UNL     1      34.513 -15.967 -22.585  0.00  0.00    -0.274 OA
ATOM     23  N   UNL     1      34.142 -17.434 -20.790  0.00  0.00    -0.185 N 
ATOM     24  C   UNL     1      34.262 -16.143 -21.397  0.00  0.00    +0.241 C 
ATOM     25  H   UNL     1      33.902 -17.467 -19.836  0.00  0.00    +0.177 HD
BRANCH  24  26
ATOM     26  C   UNL     1      34.083 -14.996 -20.431  0.00  0.00    +0.087 C 
ATOM     27  C   UNL     1      33.665 -13.739 -21.170  0.00  0.00    +0.010 C 
ENDBRANCH  24  26
ENDBRANCH  19  23
ENDBRANCH  12  19
ENDBRANCH   2  15
BRANCH   3  28
ATOM     28  C   UNL     1      33.607 -23.843 -14.067  0.00  0.00    +0.050 C 
ATOM     29  C   UNL     1      33.959 -23.590 -12.739  0.00  0.00    +0.018 C 
ATOM     30  C   UNL     1      34.601 -23.866 -15.051  0.00  0.00    +0.018 C 
ATOM     31  C   UNL     1      36.279 -23.385 -13.381  0.00  0.00    +0.140 C 
ATOM     32  C   UNL     1      35.292 -23.362 -12.396  0.00  0.00    +0.038 C 
ATOM     33  C   UNL     1      35.934 -23.638 -14.708  0.00  0.00    +0.038 C 
BRANCH  31  34
ATOM     34  O   UNL     1      37.579 -23.163 -13.046  0.00  0.00    -0.461 OA
BRANCH  34  35
ATOM     35  C   UNL     1      38.367 -24.302 -12.705  0.00  0.00    +0.282 C 
BRANCH  35  36
ATOM     36  C   UNL     1      39.165 -24.737 -13.851  0.00  0.00    -0.031 C 
ATOM     37  C   UNL     1      39.821 -25.095 -14.791  0.00  0.00    -0.010 C 
ENDBRANCH  35  36
ENDBRANCH  34  35
ENDBRANCH  31  34
ENDBRANCH   3  28
TORSDOF 8
ENDMDL
MODEL 3
REMARK VINA RESULT:     -10.7      1.587      2.066
REMARK  Name = 23648971
REMARK  8 active torsions:
REMARK  status: ('A' for Active; 'I' for Inactive)
REMARK    1  A    between atoms: N_2  and  C_15
REMARK    2  A    between atoms: N_3  and  C_28
REMARK    3  A    between atoms: C_12  and  S_19
REMARK    4  A    between atoms: S_19  and  N_23
REMARK    5  A    between atoms: C_24  and  C_26
REMARK    6  A    between atoms: C_31  and  O_34
REMARK    7  A    between atoms: O_34  and  C_35
REMARK    8  A    between atoms: C_35  and  C_36
REMARK                            x       y       z     vdW  Elec       q    Type
REMARK                         _______ _______ _______ _____ _____    ______ ____
ROOT
ATOM      1  F   UNL     1      35.990 -23.559 -12.370  0.00  0.00    -0.198 F 
ATOM      2  N   UNL     1      36.597 -21.803 -17.476  0.00  0.00    -0.247 N 
ATOM      3  N   UNL     1      33.817 -22.523 -13.723  0.00  0.00    -0.285 N 
ATOM      4  N   UNL     1      35.201 -22.153 -15.623  0.00  0.00    -0.320 NA
ATOM      5  N   UNL     1      37.533 -22.754 -15.546  0.00  0.00    -0.167 NA
ATOM      6  C   UNL     1      36.436 -22.259 -16.154  0.00  0.00    +0.150 C 
ATOM      7  C   UNL     1      35.082 -22.598 -14.355  0.00  0.00    +0.226 C 
ATOM      8  C   UNL     1      36.129 -23.125 -13.627  0.00  0.00    +0.205 C 
ATOM      9  C   UNL     1      37.343 -23.179 -14.279  0.00  0.00    +0.145 C 
ATOM     10  H   UNL     1      37.515 -21.900 -17.819  0.00  0.00    +0.165 HD
ATOM     11  H   UNL     1      33.868 -22.404 -12.747  0.00  0.00    +0.155 HD
ENDROOT
BRANCH   2  15
ATOM     12  C   UNL     1      35.212 -19.599 -20.096  0.00  0.00    +0.123 C 
ATOM     13  C   UNL     1      33.934 -20.114 -20.251  0.00  0.00    -0.003 C 
ATOM     14  C   UNL     1      36.101 -20.147 -19.184  0.00  0.00    +0.035 C 
ATOM     15  C   UNL     1      35.702 -21.235 -18.408  0.00  0.00    +0.059 C 
ATOM     16  C   UNL     1      33.535 -21.202 -19.474  0.00  0.00    -0.002 C 
ATOM     17  C   UNL     1      34.419 -21.762 -18.553  0.00  0.00    +0.015 C 
ATOM     18  C   UNL     1      32.963 -19.537 -21.229  0.00  0.00    +0.032 C 
BRANCH  12  19
ATOM     19  S   UNL     1      35.751 -18.223 -21.065  0.00  0.00    +0.075 S 
ATOM     20  O   UNL     1      37.193 -18.330 -21.179  0.00  0.00    -0.150 OA
ATOM     21  O   UNL     1      35.142 -17.023 -20.523  0.00  0.00    -0.150 OA
BRANCH  19  23
ATOM     22  O   UNL     1      34.450 -16.417 -23.251  0.00  0.00    -0.274 OA
ATOM     23  N   UNL     1      35.036 -18.587 -22.575  0.00  0.00    -0.185 N 
ATOM     24  C   UNL     1      34.457 -17.625 -23.463  0.00  0.00    +0.241 C 
ATOM     25  H   UNL     1      35.023 -19.531 -22.856  0.00  0.00    +0.177 HD
BRANCH  24  26
ATOM     26  C   UNL     1      33.818 -18.233 -24.689  0.00  0.00    +0.087 C 
ATOM     27  C   UNL     1      32.365 -17.812 -24.796  0.00  0.00    +0.010 C 
ENDBRANCH  24  26
ENDBRANCH  19  23
ENDBRANCH  12  19
ENDBRANCH   2  15
BRANCH   3  28
ATOM     28  C   UNL     1      32.505 -22.584 -14.218  0.00  0.00    +0.050 C 
ATOM     29  C   UNL     1      32.276 -22.806 -15.579  0.00  0.00    +0.018 C 
ATOM     30  C   UNL     1      31.418 -22.421 -13.354  0.00  0.00    +0.018 C 
ATOM     31  C   UNL     1      29.891 -22.701 -15.205  0.00  0.00    +0.140 C 
ATOM     32  C   UNL     1      30.972 -22.865 -16.071  0.00  0.00    +0.038 C 
ATOM     33  C   UNL     1      30.114 -22.480 -13.847  0.00  0.00    +0.038 C 
BRANCH  31  34
ATOM     34  O   UNL     1      28.620 -22.759 -15.685  0.00  0.00    -0.461 OA
BRANCH  34  35
ATOM     35  C   UNL     1      28.092 -24.053 -15.975  0.00  0.00    +0.282 C 
BRANCH  35  36
ATOM     36  C   UNL     1      28.229 -24.935 -14.817  0.00  0.00    -0.031 C 
ATOM     37  C   UNL     1      28.344 -25.661 -13.867  0.00  0.00    -0.010 C 
ENDBRANCH  35  36
ENDBRANCH  34  35
ENDBRANCH  31  34
ENDBRANCH   3  28
TORSDOF 8
ENDMDL
MODEL 4
REMARK VINA RESULT:     -10.3      4.298      9.027
REMARK  Name = 23648971
REMARK  8 active torsions:
REMARK  status: ('A' for Active; 'I' for Inactive)
REMARK    1  A    between atoms: N_2  and  C_15
REMARK    2  A    between atoms: N_3  and  C_28
REMARK    3  A    between atoms: C_12  and  S_19
REMARK    4  A    between atoms: S_19  and  N_23
REMARK    5  A    between atoms: C_24  and  C_26
REMARK    6  A    between atoms: C_31  and  O_34
REMARK    7  A    between atoms: O_34  and  C_35
REMARK    8  A    between atoms: C_35  and  C_36
REMARK                            x       y       z     vdW  Elec       q    Type
REMARK                         _______ _______ _______ _____ _____    ______ ____
ROOT
ATOM      1  F   UNL     1      28.293 -22.816 -17.199  0.00  0.00    -0.198 F 
ATOM      2  N   UNL     1      32.266 -24.057 -13.706  0.00  0.00    -0.247 N 
ATOM      3  N   UNL     1      30.803 -21.720 -17.544  0.00  0.00    -0.285 N 
ATOM      4  N   UNL     1      31.559 -22.889 -15.614  0.00  0.00    -0.320 NA
ATOM      5  N   UNL     1      30.035 -24.301 -14.392  0.00  0.00    -0.167 NA
ATOM      6  C   UNL     1      31.239 -23.735 -14.614  0.00  0.00    +0.150 C 
ATOM      7  C   UNL     1      30.552 -22.601 -16.464  0.00  0.00    +0.226 C 
ATOM      8  C   UNL     1      29.278 -23.116 -16.345  0.00  0.00    +0.205 C 
ATOM      9  C   UNL     1      29.075 -23.969 -15.280  0.00  0.00    +0.145 C 
ATOM     10  H   UNL     1      31.985 -24.676 -12.993  0.00  0.00    +0.165 HD
ATOM     11  H   UNL     1      30.017 -21.198 -17.821  0.00  0.00    +0.155 HD
ENDROOT
BRANCH   2  15
ATOM     12  C   UNL     1      35.793 -23.905 -12.622  0.00  0.00    +0.123 C 
ATOM     13  C   UNL     1      36.295 -22.902 -13.437  0.00  0.00    -0.003 C 
ATOM     14  C   UNL     1      34.464 -24.295 -12.699  0.00  0.00    +0.035 C 
ATOM     15  C   UNL     1      33.619 -23.668 -13.615  0.00  0.00    +0.059 C 
ATOM     16  C   UNL     1      35.450 -22.275 -14.352  0.00  0.00    -0.002 C 
ATOM     17  C   UNL     1      34.112 -22.659 -14.441  0.00  0.00    +0.015 C 
ATOM     18  C   UNL     1      37.724 -22.469 -13.368  0.00  0.00    +0.032 C 
BRANCH  12  19
ATOM     19  S   UNL     1      36.837 -24.720 -11.452  0.00  0.00    +0.075 S 
ATOM     20  O   UNL     1      36.243 -26.018 -11.194  0.00  0.00    -0.150 OA
ATOM     21  O   UNL     1      37.100 -23.801 -10.362  0.00  0.00    -0.150 OA
BRANCH  19  23
ATOM     22  O   UNL     1      37.534 -26.621 -13.826  0.00  0.00    -0.274 OA
ATOM     23  N   UNL     1      38.262 -24.925 -12.375  0.00  0.00    -0.185 N 
ATOM     24  C   UNL     1      38.425 -25.874 -13.435  0.00  0.00    +0.241 C 
ATOM     25  H   UNL     1      39.029 -24.346 -12.161  0.00  0.00    +0.177 HD
BRANCH  24  26
ATOM     26  C   UNL     1      39.816 -25.901 -14.021  0.00  0.00    +0.087 C 
ATOM     27  C   UNL     1      39.986 -24.790 -15.039  0.00  0.00    +0.010 C 
ENDBRANCH  24  26
ENDBRANCH  19  23
ENDBRANCH  12  19
ENDBRANCH   2  15
BRANCH   3  28
ATOM     28  C   UNL     1      31.958 -21.446 -18.294  0.00  0.00    +0.050 C 
ATOM     29  C   UNL     1      33.162 -22.089 -17.994  0.00  0.00    +0.018 C 
ATOM     30  C   UNL     1      31.912 -20.526 -19.346  0.00  0.00    +0.018 C 
ATOM     31  C   UNL     1      34.258 -20.897 -19.787  0.00  0.00    +0.140 C 
ATOM     32  C   UNL     1      34.309 -21.815 -18.739  0.00  0.00    +0.038 C 
ATOM     33  C   UNL     1      33.059 -20.253 -20.091  0.00  0.00    +0.038 C 
BRANCH  31  34
ATOM     34  O   UNL     1      35.377 -20.630 -20.513  0.00  0.00    -0.461 OA
BRANCH  34  35
ATOM     35  C   UNL     1      36.086 -19.432 -20.199  0.00  0.00    +0.282 C 
BRANCH  35  36
ATOM     36  C   UNL     1      35.832 -18.405 -21.209  0.00  0.00    -0.031 C 
ATOM     37  C   UNL     1      35.625 -17.562 -22.039  0.00  0.00    -0.010 C 
ENDBRANCH  35  36
ENDBRANCH  34  35
ENDBRANCH  31  34
ENDBRANCH   3  28
TORSDOF 8
ENDMDL
