MODEL 1
REMARK VINA RESULT:     -11.8      0.000      0.000
REMARK  Name = 5288709
REMARK  6 active torsions:
REMARK  status: ('A' for Active; 'I' for Inactive)
REMARK    1  A    between atoms: N_1  and  C_8
REMARK    2  A    between atoms: N_1  and  N_16
REMARK    3  A    between atoms: N_16  and  C_19
REMARK    4  A    between atoms: C_18  and  C_24
REMARK    5  A    between atoms: C_24  and  S_25
REMARK    6  A    between atoms: S_25  and  N_28
REMARK                            x       y       z     vdW  Elec       q    Type
REMARK                         _______ _______ _______ _____ _____    ______ ____
ROOT
ATOM      1  N   UNL     1      32.669 -22.417 -17.155  0.00  0.00    -0.255 N 
ATOM      2  H   UNL     1      31.826 -22.074 -17.529  0.00  0.00    +0.171 HD
ENDROOT
BRANCH   1   8
ATOM      3  S   UNL     1      29.232 -22.690 -16.494  0.00  0.00    -0.104 S 
ATOM      4  O   UNL     1      34.978 -23.286 -15.686  0.00  0.00    -0.208 OA
ATOM      5  N   UNL     1      33.505 -24.127 -14.086  0.00  0.00    -0.332 NA
ATOM      6  N   UNL     1      28.035 -23.775 -14.457  0.00  0.00    -0.262 NA
ATOM      7  C   UNL     1      31.597 -23.462 -15.202  0.00  0.00    +0.050 C 
ATOM      8  C   UNL     1      32.603 -23.065 -15.973  0.00  0.00    +0.156 C 
ATOM      9  C   UNL     1      32.214 -24.116 -14.042  0.00  0.00    +0.144 C 
ATOM     10  C   UNL     1      30.201 -23.382 -15.281  0.00  0.00    +0.116 C 
ATOM     11  C   UNL     1      29.390 -23.904 -14.289  0.00  0.00    +0.069 C 
ATOM     12  C   UNL     1      31.308 -24.666 -12.996  0.00  0.00    +0.034 C 
ATOM     13  C   UNL     1      33.849 -23.488 -15.264  0.00  0.00    +0.220 C 
ATOM     14  C   UNL     1      29.973 -24.546 -13.149  0.00  0.00    +0.018 C 
ATOM     15  C   UNL     1      27.831 -23.145 -15.596  0.00  0.00    +0.183 C 
ENDBRANCH   1   8
BRANCH   1  16
ATOM     16  N   UNL     1      33.797 -22.200 -17.872  0.00  0.00    -0.265 N 
ATOM     17  H   UNL     1      34.603 -22.703 -17.608  0.00  0.00    +0.170 HD
BRANCH  16  19
ATOM     18  C   UNL     1      34.154 -19.559 -21.118  0.00  0.00    +0.003 C 
ATOM     19  C   UNL     1      33.916 -21.318 -18.957  0.00  0.00    +0.061 C 
ATOM     20  C   UNL     1      35.293 -20.150 -20.571  0.00  0.00    -0.001 C 
ATOM     21  C   UNL     1      32.897 -19.846 -20.586  0.00  0.00    -0.001 C 
ATOM     22  C   UNL     1      35.175 -21.028 -19.493  0.00  0.00    +0.016 C 
ATOM     23  C   UNL     1      32.777 -20.724 -19.508  0.00  0.00    +0.016 C 
BRANCH  18  24
ATOM     24  C   UNL     1      34.281 -18.621 -22.270  0.00  0.00    +0.195 C 
BRANCH  24  25
ATOM     25  S   UNL     1      35.376 -17.323 -21.794  0.00  0.00    +0.045 S 
ATOM     26  O   UNL     1      34.944 -16.805 -20.506  0.00  0.00    -0.157 OA
ATOM     27  O   UNL     1      36.739 -17.801 -21.970  0.00  0.00    -0.157 OA
BRANCH  25  28
ATOM     28  N   UNL     1      35.058 -16.164 -23.011  0.00  0.00    -0.182 NA
ATOM     29  C   UNL     1      34.259 -14.972 -22.672  0.00  0.00    +0.110 C 
ATOM     30  H   UNL     1      34.569 -16.648 -23.764  0.00  0.00    +0.148 HD
ENDBRANCH  25  28
ENDBRANCH  24  25
ENDBRANCH  18  24
ENDBRANCH  16  19
ENDBRANCH   1  16
TORSDOF 6
ENDMDL
MODEL 2
REMARK VINA RESULT:     -11.7      2.693      4.330
REMARK  Name = 5288709
REMARK  6 active torsions:
REMARK  status: ('A' for Active; 'I' for Inactive)
REMARK    1  A    between atoms: N_1  and  C_8
REMARK    2  A    between atoms: N_1  and  N_16
REMARK    3  A    between atoms: N_16  and  C_19
REMARK    4  A    between atoms: C_18  and  C_24
REMARK    5  A    between atoms: C_24  and  S_25
REMARK    6  A    between atoms: S_25  and  N_28
REMARK                            x       y       z     vdW  Elec       q    Type
REMARK                         _______ _______ _______ _____ _____    ______ ____
ROOT
ATOM      1  N   UNL     1      34.579 -22.368 -16.479  0.00  0.00    -0.255 N 
ATOM      2  H   UNL     1      35.498 -22.042 -16.618  0.00  0.00    +0.171 HD
ENDROOT
BRANCH   1   8
ATOM      3  S   UNL     1      37.637 -23.444 -15.129  0.00  0.00    -0.104 S 
ATOM      4  O   UNL     1      31.914 -22.351 -15.412  0.00  0.00    -0.208 OA
ATOM      5  N   UNL     1      32.803 -23.299 -13.476  0.00  0.00    -0.332 NA
ATOM      6  N   UNL     1      38.123 -24.487 -12.798  0.00  0.00    -0.262 NA
ATOM      7  C   UNL     1      34.975 -23.349 -14.257  0.00  0.00    +0.050 C 
ATOM      8  C   UNL     1      34.264 -22.821 -15.247  0.00  0.00    +0.156 C 
ATOM      9  C   UNL     1      34.017 -23.627 -13.180  0.00  0.00    +0.144 C 
ATOM     10  C   UNL     1      36.327 -23.657 -14.067  0.00  0.00    +0.116 C 
ATOM     11  C   UNL     1      36.781 -24.221 -12.888  0.00  0.00    +0.069 C 
ATOM     12  C   UNL     1      34.543 -24.233 -11.926  0.00  0.00    +0.034 C 
ATOM     13  C   UNL     1      32.853 -22.780 -14.758  0.00  0.00    +0.220 C 
ATOM     14  C   UNL     1      35.862 -24.501 -11.826  0.00  0.00    +0.018 C 
ATOM     15  C   UNL     1      38.682 -24.116 -13.932  0.00  0.00    +0.183 C 
ENDBRANCH   1   8
BRANCH   1  16
ATOM     16  N   UNL     1      33.739 -22.323 -17.540  0.00  0.00    -0.265 N 
ATOM     17  H   UNL     1      32.967 -22.935 -17.529  0.00  0.00    +0.170 HD
BRANCH  16  19
ATOM     18  C   UNL     1      34.149 -19.802 -20.874  0.00  0.00    +0.003 C 
ATOM     19  C   UNL     1      33.877 -21.480 -18.653  0.00  0.00    +0.061 C 
ATOM     20  C   UNL     1      32.883 -20.067 -20.351  0.00  0.00    -0.001 C 
ATOM     21  C   UNL     1      35.279 -20.375 -20.288  0.00  0.00    -0.001 C 
ATOM     22  C   UNL     1      32.747 -20.904 -19.243  0.00  0.00    +0.016 C 
ATOM     23  C   UNL     1      35.143 -21.212 -19.180  0.00  0.00    +0.016 C 
BRANCH  18  24
ATOM     24  C   UNL     1      34.295 -18.908 -22.058  0.00  0.00    +0.195 C 
BRANCH  24  25
ATOM     25  S   UNL     1      35.433 -17.628 -21.634  0.00  0.00    +0.045 S 
ATOM     26  O   UNL     1      35.010 -17.035 -20.375  0.00  0.00    -0.157 OA
ATOM     27  O   UNL     1      36.779 -18.161 -21.775  0.00  0.00    -0.157 OA
BRANCH  25  28
ATOM     28  N   UNL     1      35.165 -16.517 -22.906  0.00  0.00    -0.182 NA
ATOM     29  C   UNL     1      34.399 -15.287 -22.632  0.00  0.00    +0.110 C 
ATOM     30  H   UNL     1      34.671 -17.020 -23.643  0.00  0.00    +0.148 HD
ENDBRANCH  25  28
ENDBRANCH  24  25
ENDBRANCH  18  24
ENDBRANCH  16  19
ENDBRANCH   1  16
TORSDOF 6
ENDMDL
MODEL 3
REMARK VINA RESULT:     -11.4      2.125      3.618
REMARK  Name = 5288709
REMARK  6 active torsions:
REMARK  status: ('A' for Active; 'I' for Inactive)
REMARK    1  A    between atoms: N_1  and  C_8
REMARK    2  A    between atoms: N_1  and  N_16
REMARK    3  A    between atoms: N_16  and  C_19
REMARK    4  A    between atoms: C_18  and  C_24
REMARK    5  A    between atoms: C_24  and  S_25
REMARK    6  A    between atoms: S_25  and  N_28
REMARK                            x       y       z     vdW  Elec       q    Type
REMARK                         _______ _______ _______ _____ _____    ______ ____
ROOT
ATOM      1  N   UNL     1      32.545 -22.189 -16.983  0.00  0.00    -0.255 N 
ATOM      2  H   UNL     1      31.756 -21.643 -17.203  0.00  0.00    +0.171 HD
ENDROOT
BRANCH   1   8
ATOM      3  S   UNL     1      35.913 -21.996 -16.008  0.00  0.00    -0.104 S 
ATOM      4  O   UNL     1      30.229 -23.264 -15.670  0.00  0.00    -0.208 OA
ATOM      5  N   UNL     1      31.635 -23.833 -13.899  0.00  0.00    -0.332 NA
ATOM      6  N   UNL     1      37.035 -22.824 -13.815  0.00  0.00    -0.262 NA
ATOM      7  C   UNL     1      33.547 -22.993 -14.884  0.00  0.00    +0.050 C 
ATOM      8  C   UNL     1      32.577 -22.764 -15.762  0.00  0.00    +0.156 C 
ATOM      9  C   UNL     1      32.906 -23.660 -13.744  0.00  0.00    +0.144 C 
ATOM     10  C   UNL     1      34.924 -22.743 -14.845  0.00  0.00    +0.116 C 
ATOM     11  C   UNL     1      35.695 -23.112 -13.758  0.00  0.00    +0.069 C 
ATOM     12  C   UNL     1      33.769 -24.041 -12.592  0.00  0.00    +0.034 C 
ATOM     13  C   UNL     1      31.330 -23.302 -15.140  0.00  0.00    +0.220 C 
ATOM     14  C   UNL     1      35.089 -23.764 -12.636  0.00  0.00    +0.018 C 
ATOM     15  C   UNL     1      37.268 -22.229 -14.967  0.00  0.00    +0.183 C 
ENDBRANCH   1   8
BRANCH   1  16
ATOM     16  N   UNL     1      33.504 -22.300 -17.932  0.00  0.00    -0.265 N 
ATOM     17  H   UNL     1      34.118 -23.068 -17.864  0.00  0.00    +0.170 HD
BRANCH  16  19
ATOM     18  C   UNL     1      34.086 -19.646 -21.134  0.00  0.00    +0.003 C 
ATOM     19  C   UNL     1      33.698 -21.414 -19.003  0.00  0.00    +0.061 C 
ATOM     20  C   UNL     1      35.171 -20.336 -20.594  0.00  0.00    -0.001 C 
ATOM     21  C   UNL     1      32.808 -19.838 -20.609  0.00  0.00    -0.001 C 
ATOM     22  C   UNL     1      34.978 -21.218 -19.530  0.00  0.00    +0.016 C 
ATOM     23  C   UNL     1      32.613 -20.720 -19.547  0.00  0.00    +0.016 C 
BRANCH  18  24
ATOM     24  C   UNL     1      34.292 -18.703 -22.270  0.00  0.00    +0.195 C 
BRANCH  24  25
ATOM     25  S   UNL     1      35.405 -17.444 -21.734  0.00  0.00    +0.045 S 
ATOM     26  O   UNL     1      34.985 -16.988 -20.419  0.00  0.00    -0.157 OA
ATOM     27  O   UNL     1      36.761 -17.927 -21.942  0.00  0.00    -0.157 OA
BRANCH  25  28
ATOM     28  N   UNL     1      35.094 -16.219 -22.888  0.00  0.00    -0.182 NA
ATOM     29  C   UNL     1      34.288 -15.050 -22.491  0.00  0.00    +0.110 C 
ATOM     30  H   UNL     1      34.613 -16.662 -23.671  0.00  0.00    +0.148 HD
ENDBRANCH  25  28
ENDBRANCH  24  25
ENDBRANCH  18  24
ENDBRANCH  16  19
ENDBRANCH   1  16
TORSDOF 6
ENDMDL
MODEL 4
REMARK VINA RESULT:     -10.8      2.044      2.798
REMARK  Name = 5288709
REMARK  6 active torsions:
REMARK  status: ('A' for Active; 'I' for Inactive)
REMARK    1  A    between atoms: N_1  and  C_8
REMARK    2  A    between atoms: N_1  and  N_16
REMARK    3  A    between atoms: N_16  and  C_19
REMARK    4  A    between atoms: C_18  and  C_24
REMARK    5  A    between atoms: C_24  and  S_25
REMARK    6  A    between atoms: S_25  and  N_28
REMARK                            x       y       z     vdW  Elec       q    Type
REMARK                         _______ _______ _______ _____ _____    ______ ____
ROOT
ATOM      1  N   UNL     1      35.979 -22.126 -16.436  0.00  0.00    -0.255 N 
ATOM      2  H   UNL     1      36.700 -21.499 -16.674  0.00  0.00    +0.171 HD
ENDROOT
BRANCH   1   8
ATOM      3  S   UNL     1      32.699 -22.387 -15.209  0.00  0.00    -0.104 S 
ATOM      4  O   UNL     1      38.493 -23.042 -15.394  0.00  0.00    -0.208 OA
ATOM      5  N   UNL     1      37.302 -23.904 -13.584  0.00  0.00    -0.332 NA
ATOM      6  N   UNL     1      31.852 -23.505 -13.020  0.00  0.00    -0.262 NA
ATOM      7  C   UNL     1      35.239 -23.203 -14.350  0.00  0.00    +0.050 C 
ATOM      8  C   UNL     1      36.105 -22.798 -15.271  0.00  0.00    +0.156 C 
ATOM      9  C   UNL     1      36.036 -23.885 -13.323  0.00  0.00    +0.144 C 
ATOM     10  C   UNL     1      33.852 -23.111 -14.191  0.00  0.00    +0.116 C 
ATOM     11  C   UNL     1      33.214 -23.647 -13.086  0.00  0.00    +0.069 C 
ATOM     12  C   UNL     1      35.314 -24.450 -12.150  0.00  0.00    +0.034 C 
ATOM     13  C   UNL     1      37.449 -23.244 -14.792  0.00  0.00    +0.220 C 
ATOM     14  C   UNL     1      33.974 -24.316 -12.073  0.00  0.00    +0.018 C 
ATOM     15  C   UNL     1      31.465 -22.850 -14.096  0.00  0.00    +0.183 C 
ENDBRANCH   1   8
BRANCH   1  16
ATOM     16  N   UNL     1      34.945 -22.240 -17.302  0.00  0.00    -0.265 N 
ATOM     17  H   UNL     1      34.284 -22.948 -17.124  0.00  0.00    +0.170 HD
BRANCH  16  19
ATOM     18  C   UNL     1      34.324 -19.827 -20.683  0.00  0.00    +0.003 C 
ATOM     19  C   UNL     1      34.737 -21.434 -18.433  0.00  0.00    +0.061 C 
ATOM     20  C   UNL     1      35.622 -20.097 -20.248  0.00  0.00    -0.001 C 
ATOM     21  C   UNL     1      33.233 -20.358 -19.995  0.00  0.00    -0.001 C 
ATOM     22  C   UNL     1      35.828 -20.899 -19.125  0.00  0.00    +0.016 C 
ATOM     23  C   UNL     1      33.439 -21.161 -18.872  0.00  0.00    +0.016 C 
BRANCH  18  24
ATOM     24  C   UNL     1      34.103 -18.969 -21.883  0.00  0.00    +0.195 C 
BRANCH  24  25
ATOM     25  S   UNL     1      35.214 -17.603 -21.785  0.00  0.00    +0.045 S 
ATOM     26  O   UNL     1      34.989 -16.917 -20.523  0.00  0.00    -0.157 OA
ATOM     27  O   UNL     1      36.544 -18.081 -22.130  0.00  0.00    -0.157 OA
BRANCH  25  28
ATOM     28  N   UNL     1      34.649 -16.628 -23.072  0.00  0.00    -0.182 NA
ATOM     29  C   UNL     1      34.233 -15.242 -22.790  0.00  0.00    +0.110 C 
ATOM     30  H   UNL     1      33.844 -17.106 -23.477  0.00  0.00    +0.148 HD
ENDBRANCH  25  28
ENDBRANCH  24  25
ENDBRANCH  18  24
ENDBRANCH  16  19
ENDBRANCH   1  16
TORSDOF 6
ENDMDL
MODEL 5
REMARK VINA RESULT:     -10.7      3.258     10.006
REMARK  Name = 5288709
REMARK  6 active torsions:
REMARK  status: ('A' for Active; 'I' for Inactive)
REMARK    1  A    between atoms: N_1  and  C_8
REMARK    2  A    between atoms: N_1  and  N_16
REMARK    3  A    between atoms: N_16  and  C_19
REMARK    4  A    between atoms: C_18  and  C_24
REMARK    5  A    between atoms: C_24  and  S_25
REMARK    6  A    between atoms: S_25  and  N_28
REMARK                            x       y       z     vdW  Elec       q    Type
REMARK                         _______ _______ _______ _____ _____    ______ ____
ROOT
ATOM      1  N   UNL     1      34.767 -16.840 -23.083  0.00  0.00    -0.255 N 
ATOM      2  H   UNL     1      35.478 -16.651 -23.737  0.00  0.00    +0.171 HD
ENDROOT
BRANCH   1   8
ATOM      3  S   UNL     1      33.408 -14.588 -25.409  0.00  0.00    -0.104 S 
ATOM      4  O   UNL     1      34.998 -16.735 -20.223  0.00  0.00    -0.208 OA
ATOM      5  N   UNL     1      33.947 -14.656 -20.326  0.00  0.00    -0.332 NA
ATOM      6  N   UNL     1      32.295 -12.276 -24.994  0.00  0.00    -0.262 NA
ATOM      7  C   UNL     1      33.722 -14.660 -22.624  0.00  0.00    +0.050 C 
ATOM      8  C   UNL     1      34.325 -15.807 -22.335  0.00  0.00    +0.156 C 
ATOM      9  C   UNL     1      33.510 -13.983 -21.339  0.00  0.00    +0.144 C 
ATOM     10  C   UNL     1      33.294 -14.040 -23.804  0.00  0.00    +0.116 C 
ATOM     11  C   UNL     1      32.677 -12.801 -23.787  0.00  0.00    +0.069 C 
ATOM     12  C   UNL     1      32.843 -12.652 -21.361  0.00  0.00    +0.034 C 
ATOM     13  C   UNL     1      34.479 -15.822 -20.848  0.00  0.00    +0.220 C 
ATOM     14  C   UNL     1      32.462 -12.124 -22.543  0.00  0.00    +0.018 C 
ATOM     15  C   UNL     1      32.632 -13.138 -25.931  0.00  0.00    +0.183 C 
ENDBRANCH   1   8
BRANCH   1  16
ATOM     16  N   UNL     1      34.317 -18.115 -23.011  0.00  0.00    -0.265 N 
ATOM     17  H   UNL     1      33.893 -18.489 -23.818  0.00  0.00    +0.170 HD
BRANCH  16  19
ATOM     18  C   UNL     1      34.571 -20.602 -19.636  0.00  0.00    +0.003 C 
ATOM     19  C   UNL     1      34.402 -18.947 -21.884  0.00  0.00    +0.061 C 
ATOM     20  C   UNL     1      33.323 -20.215 -20.125  0.00  0.00    -0.001 C 
ATOM     21  C   UNL     1      35.734 -20.163 -20.269  0.00  0.00    -0.001 C 
ATOM     22  C   UNL     1      33.239 -19.389 -21.246  0.00  0.00    +0.016 C 
ATOM     23  C   UNL     1      35.650 -19.338 -21.391  0.00  0.00    +0.016 C 
BRANCH  18  24
ATOM     24  C   UNL     1      34.662 -21.485 -18.438  0.00  0.00    +0.195 C 
BRANCH  24  25
ATOM     25  S   UNL     1      33.227 -22.510 -18.410  0.00  0.00    +0.045 S 
ATOM     26  O   UNL     1      32.050 -21.655 -18.429  0.00  0.00    -0.157 OA
ATOM     27  O   UNL     1      33.395 -23.544 -19.419  0.00  0.00    -0.157 OA
BRANCH  25  28
ATOM     28  N   UNL     1      33.376 -23.240 -16.870  0.00  0.00    -0.182 NA
ATOM     29  C   UNL     1      34.387 -22.724 -15.929  0.00  0.00    +0.110 C 
ATOM     30  H   UNL     1      33.587 -24.226 -17.026  0.00  0.00    +0.148 HD
ENDBRANCH  25  28
ENDBRANCH  24  25
ENDBRANCH  18  24
ENDBRANCH  16  19
ENDBRANCH   1  16
TORSDOF 6
ENDMDL
MODEL 6
REMARK VINA RESULT:     -10.5      7.678     13.513
REMARK  Name = 5288709
REMARK  6 active torsions:
REMARK  status: ('A' for Active; 'I' for Inactive)
REMARK    1  A    between atoms: N_1  and  C_8
REMARK    2  A    between atoms: N_1  and  N_16
REMARK    3  A    between atoms: N_16  and  C_19
REMARK    4  A    between atoms: C_18  and  C_24
REMARK    5  A    between atoms: C_24  and  S_25
REMARK    6  A    between atoms: S_25  and  N_28
REMARK                            x       y       z     vdW  Elec       q    Type
REMARK                         _______ _______ _______ _____ _____    ______ ____
ROOT
ATOM      1  N   UNL     1      31.173 -10.222 -21.950  0.00  0.00    -0.255 N 
ATOM      2  H   UNL     1      31.054 -10.030 -22.908  0.00  0.00    +0.171 HD
ENDROOT
BRANCH   1   8
ATOM      3  S   UNL     1      31.079  -7.425 -24.071  0.00  0.00    -0.104 S 
ATOM      4  O   UNL     1      31.546 -10.464 -19.113  0.00  0.00    -0.208 OA
ATOM      5  N   UNL     1      31.718  -8.139 -19.050  0.00  0.00    -0.332 NA
ATOM      6  N   UNL     1      31.341  -4.908 -23.477  0.00  0.00    -0.262 NA
ATOM      7  C   UNL     1      31.426  -7.855 -21.323  0.00  0.00    +0.050 C 
ATOM      8  C   UNL     1      31.360  -9.167 -21.128  0.00  0.00    +0.156 C 
ATOM      9  C   UNL     1      31.650  -7.264 -19.999  0.00  0.00    +0.144 C 
ATOM     10  C   UNL     1      31.332  -7.017 -22.440  0.00  0.00    +0.116 C 
ATOM     11  C   UNL     1      31.446  -5.643 -22.325  0.00  0.00    +0.069 C 
ATOM     12  C   UNL     1      31.767  -5.782 -19.914  0.00  0.00    +0.034 C 
ATOM     13  C   UNL     1      31.548  -9.370 -19.659  0.00  0.00    +0.220 C 
ATOM     14  C   UNL     1      31.665  -5.047 -21.041  0.00  0.00    +0.018 C 
ATOM     15  C   UNL     1      31.143  -5.748 -24.472  0.00  0.00    +0.183 C 
ENDBRANCH   1   8
BRANCH   1  16
ATOM     16  N   UNL     1      31.134 -11.520 -21.569  0.00  0.00    -0.265 N 
ATOM     17  H   UNL     1      30.392 -11.795 -20.982  0.00  0.00    +0.170 HD
BRANCH  16  19
ATOM     18  C   UNL     1      33.913 -14.469 -22.674  0.00  0.00    +0.003 C 
ATOM     19  C   UNL     1      32.062 -12.506 -21.938  0.00  0.00    +0.061 C 
ATOM     20  C   UNL     1      33.744 -14.139 -21.329  0.00  0.00    -0.001 C 
ATOM     21  C   UNL     1      33.159 -13.819 -23.651  0.00  0.00    -0.001 C 
ATOM     22  C   UNL     1      32.820 -13.160 -20.962  0.00  0.00    +0.016 C 
ATOM     23  C   UNL     1      32.235 -12.840 -23.285  0.00  0.00    +0.016 C 
BRANCH  18  24
ATOM     24  C   UNL     1      34.900 -15.515 -23.067  0.00  0.00    +0.195 C 
BRANCH  24  25
ATOM     25  S   UNL     1      34.702 -16.885 -21.973  0.00  0.00    +0.045 S 
ATOM     26  O   UNL     1      34.568 -16.376 -20.618  0.00  0.00    -0.157 OA
ATOM     27  O   UNL     1      33.681 -17.758 -22.530  0.00  0.00    -0.157 OA
BRANCH  25  28
ATOM     28  N   UNL     1      36.217 -17.661 -22.143  0.00  0.00    -0.182 NA
ATOM     29  C   UNL     1      36.664 -18.594 -21.093  0.00  0.00    +0.110 C 
ATOM     30  H   UNL     1      36.923 -16.927 -22.212  0.00  0.00    +0.148 HD
ENDBRANCH  25  28
ENDBRANCH  24  25
ENDBRANCH  18  24
ENDBRANCH  16  19
ENDBRANCH   1  16
TORSDOF 6
ENDMDL
MODEL 7
REMARK VINA RESULT:     -10.5      3.324      9.931
REMARK  Name = 5288709
REMARK  6 active torsions:
REMARK  status: ('A' for Active; 'I' for Inactive)
REMARK    1  A    between atoms: N_1  and  C_8
REMARK    2  A    between atoms: N_1  and  N_16
REMARK    3  A    between atoms: N_16  and  C_19
REMARK    4  A    between atoms: C_18  and  C_24
REMARK    5  A    between atoms: C_24  and  S_25
REMARK    6  A    between atoms: S_25  and  N_28
REMARK                            x       y       z     vdW  Elec       q    Type
REMARK                         _______ _______ _______ _____ _____    ______ ____
ROOT
ATOM      1  N   UNL     1      34.536 -17.672 -21.266  0.00  0.00    -0.255 N 
ATOM      2  H   UNL     1      34.283 -17.119 -20.491  0.00  0.00    +0.171 HD
ENDROOT
BRANCH   1   8
ATOM      3  S   UNL     1      33.915 -14.253 -20.765  0.00  0.00    -0.104 S 
ATOM      4  O   UNL     1      34.449 -19.311 -23.622  0.00  0.00    -0.208 OA
ATOM      5  N   UNL     1      33.835 -17.392 -24.798  0.00  0.00    -0.332 NA
ATOM      6  N   UNL     1      33.219 -12.442 -22.496  0.00  0.00    -0.262 NA
ATOM      7  C   UNL     1      33.881 -16.004 -22.953  0.00  0.00    +0.050 C 
ATOM      8  C   UNL     1      34.215 -17.203 -22.491  0.00  0.00    +0.156 C 
ATOM      9  C   UNL     1      33.656 -16.178 -24.393  0.00  0.00    +0.144 C 
ATOM     10  C   UNL     1      33.720 -14.736 -22.383  0.00  0.00    +0.116 C 
ATOM     11  C   UNL     1      33.352 -13.642 -23.146  0.00  0.00    +0.069 C 
ATOM     12  C   UNL     1      33.261 -14.978 -25.181  0.00  0.00    +0.034 C 
ATOM     13  C   UNL     1      34.191 -18.117 -23.673  0.00  0.00    +0.220 C 
ATOM     14  C   UNL     1      33.127 -13.792 -24.553  0.00  0.00    +0.018 C 
ATOM     15  C   UNL     1      33.494 -12.643 -21.224  0.00  0.00    +0.183 C 
ENDBRANCH   1   8
BRANCH   1  16
ATOM     16  N   UNL     1      35.177 -18.837 -21.011  0.00  0.00    -0.265 N 
ATOM     17  H   UNL     1      36.048 -18.978 -21.451  0.00  0.00    +0.170 HD
BRANCH  16  19
ATOM     18  C   UNL     1      33.768 -21.903 -18.510  0.00  0.00    +0.003 C 
ATOM     19  C   UNL     1      34.706 -19.861 -20.175  0.00  0.00    +0.061 C 
ATOM     20  C   UNL     1      35.140 -21.699 -18.659  0.00  0.00    -0.001 C 
ATOM     21  C   UNL     1      32.865 -21.087 -19.192  0.00  0.00    -0.001 C 
ATOM     22  C   UNL     1      35.608 -20.681 -19.490  0.00  0.00    +0.016 C 
ATOM     23  C   UNL     1      33.332 -20.068 -20.022  0.00  0.00    +0.016 C 
BRANCH  18  24
ATOM     24  C   UNL     1      33.267 -22.991 -17.623  0.00  0.00    +0.195 C 
BRANCH  24  25
ATOM     25  S   UNL     1      33.974 -22.756 -16.024  0.00  0.00    +0.045 S 
ATOM     26  O   UNL     1      35.070 -21.807 -16.141  0.00  0.00    -0.157 OA
ATOM     27  O   UNL     1      32.889 -22.508 -15.088  0.00  0.00    -0.157 OA
BRANCH  25  28
ATOM     28  N   UNL     1      34.602 -24.315 -15.710  0.00  0.00    -0.182 NA
ATOM     29  C   UNL     1      35.460 -24.517 -14.529  0.00  0.00    +0.110 C 
ATOM     30  H   UNL     1      35.149 -24.587 -16.528  0.00  0.00    +0.148 HD
ENDBRANCH  25  28
ENDBRANCH  24  25
ENDBRANCH  18  24
ENDBRANCH  16  19
ENDBRANCH   1  16
TORSDOF 6
ENDMDL
MODEL 8
REMARK VINA RESULT:     -10.2      3.427     10.391
REMARK  Name = 5288709
REMARK  6 active torsions:
REMARK  status: ('A' for Active; 'I' for Inactive)
REMARK    1  A    between atoms: N_1  and  C_8
REMARK    2  A    between atoms: N_1  and  N_16
REMARK    3  A    between atoms: N_16  and  C_19
REMARK    4  A    between atoms: C_18  and  C_24
REMARK    5  A    between atoms: C_24  and  S_25
REMARK    6  A    between atoms: S_25  and  N_28
REMARK                            x       y       z     vdW  Elec       q    Type
REMARK                         _______ _______ _______ _____ _____    ______ ____
ROOT
ATOM      1  N   UNL     1      34.225 -16.347 -22.312  0.00  0.00    -0.255 N 
ATOM      2  H   UNL     1      34.135 -16.015 -21.390  0.00  0.00    +0.171 HD
ENDROOT
BRANCH   1   8
ATOM      3  S   UNL     1      32.977 -13.510 -20.662  0.00  0.00    -0.104 S 
ATOM      4  O   UNL     1      34.443 -17.001 -25.099  0.00  0.00    -0.208 OA
ATOM      5  N   UNL     1      33.480 -14.925 -25.547  0.00  0.00    -0.332 NA
ATOM      6  N   UNL     1      31.954 -11.344 -21.671  0.00  0.00    -0.262 NA
ATOM      7  C   UNL     1      33.269 -14.320 -23.329  0.00  0.00    +0.050 C 
ATOM      8  C   UNL     1      33.821 -15.527 -23.306  0.00  0.00    +0.156 C 
ATOM      9  C   UNL     1      33.078 -13.993 -24.747  0.00  0.00    +0.144 C 
ATOM     10  C   UNL     1      32.874 -13.396 -22.355  0.00  0.00    +0.116 C 
ATOM     11  C   UNL     1      32.307 -12.181 -22.697  0.00  0.00    +0.069 C 
ATOM     12  C   UNL     1      32.465 -12.677 -25.077  0.00  0.00    +0.034 C 
ATOM     13  C   UNL     1      33.966 -15.936 -24.736  0.00  0.00    +0.220 C 
ATOM     14  C   UNL     1      32.112 -11.844 -24.076  0.00  0.00    +0.018 C 
ATOM     15  C   UNL     1      32.263 -11.944 -20.540  0.00  0.00    +0.183 C 
ENDBRANCH   1   8
BRANCH   1  16
ATOM     16  N   UNL     1      34.746 -17.586 -22.475  0.00  0.00    -0.265 N 
ATOM     17  H   UNL     1      35.125 -17.802 -23.359  0.00  0.00    +0.170 HD
BRANCH  16  19
ATOM     18  C   UNL     1      34.878 -20.585 -19.538  0.00  0.00    +0.003 C 
ATOM     19  C   UNL     1      34.789 -18.587 -21.493  0.00  0.00    +0.061 C 
ATOM     20  C   UNL     1      36.036 -19.880 -19.869  0.00  0.00    -0.001 C 
ATOM     21  C   UNL     1      33.677 -20.292 -20.183  0.00  0.00    -0.001 C 
ATOM     22  C   UNL     1      35.992 -18.884 -20.845  0.00  0.00    +0.016 C 
ATOM     23  C   UNL     1      33.632 -19.295 -21.158  0.00  0.00    +0.016 C 
BRANCH  18  24
ATOM     24  C   UNL     1      34.925 -21.650 -18.496  0.00  0.00    +0.195 C 
BRANCH  24  25
ATOM     25  S   UNL     1      33.350 -22.441 -18.458  0.00  0.00    +0.045 S 
ATOM     26  O   UNL     1      32.319 -21.415 -18.471  0.00  0.00    -0.157 OA
ATOM     27  O   UNL     1      33.351 -23.489 -19.466  0.00  0.00    -0.157 OA
BRANCH  25  28
ATOM     28  N   UNL     1      33.393 -23.184 -16.918  0.00  0.00    -0.182 NA
ATOM     29  C   UNL     1      34.349 -22.688 -15.911  0.00  0.00    +0.110 C 
ATOM     30  H   UNL     1      33.602 -24.171 -17.068  0.00  0.00    +0.148 HD
ENDBRANCH  25  28
ENDBRANCH  24  25
ENDBRANCH  18  24
ENDBRANCH  16  19
ENDBRANCH   1  16
TORSDOF 6
ENDMDL
MODEL 9
REMARK VINA RESULT:     -10.1      7.147     10.959
REMARK  Name = 5288709
REMARK  6 active torsions:
REMARK  status: ('A' for Active; 'I' for Inactive)
REMARK    1  A    between atoms: N_1  and  C_8
REMARK    2  A    between atoms: N_1  and  N_16
REMARK    3  A    between atoms: N_16  and  C_19
REMARK    4  A    between atoms: C_18  and  C_24
REMARK    5  A    between atoms: C_24  and  S_25
REMARK    6  A    between atoms: S_25  and  N_28
REMARK                            x       y       z     vdW  Elec       q    Type
REMARK                         _______ _______ _______ _____ _____    ______ ____
ROOT
ATOM      1  N   UNL     1      34.170 -14.242 -22.561  0.00  0.00    -0.255 N 
ATOM      2  H   UNL     1      35.099 -13.916 -22.584  0.00  0.00    +0.171 HD
ENDROOT
BRANCH   1   8
ATOM      3  S   UNL     1      35.071 -17.197 -20.892  0.00  0.00    -0.104 S 
ATOM      4  O   UNL     1      32.998 -13.780 -25.141  0.00  0.00    -0.208 OA
ATOM      5  N   UNL     1      32.994 -16.094 -25.430  0.00  0.00    -0.332 NA
ATOM      6  N   UNL     1      34.852 -19.662 -21.688  0.00  0.00    -0.262 NA
ATOM      7  C   UNL     1      33.934 -16.554 -23.372  0.00  0.00    +0.050 C 
ATOM      8  C   UNL     1      33.841 -15.230 -23.421  0.00  0.00    +0.156 C 
ATOM      9  C   UNL     1      33.393 -17.041 -24.646  0.00  0.00    +0.144 C 
ATOM     10  C   UNL     1      34.403 -17.477 -22.430  0.00  0.00    +0.116 C 
ATOM     11  C   UNL     1      34.369 -18.838 -22.672  0.00  0.00    +0.069 C 
ATOM     12  C   UNL     1      33.373 -18.513 -24.872  0.00  0.00    +0.034 C 
ATOM     13  C   UNL     1      33.233 -14.914 -24.749  0.00  0.00    +0.220 C 
ATOM     14  C   UNL     1      33.846 -19.333 -23.911  0.00  0.00    +0.018 C 
ATOM     15  C   UNL     1      35.254 -18.901 -20.691  0.00  0.00    +0.183 C 
ENDBRANCH   1   8
BRANCH   1  16
ATOM     16  N   UNL     1      33.333 -13.662 -21.670  0.00  0.00    -0.265 N 
ATOM     17  H   UNL     1      33.157 -14.151 -20.832  0.00  0.00    +0.170 HD
BRANCH  16  19
ATOM     18  C   UNL     1      31.421  -9.957 -22.173  0.00  0.00    +0.003 C 
ATOM     19  C   UNL     1      32.693 -12.424 -21.838  0.00  0.00    +0.061 C 
ATOM     20  C   UNL     1      32.408 -10.361 -23.073  0.00  0.00    -0.001 C 
ATOM     21  C   UNL     1      31.070 -10.784 -21.107  0.00  0.00    -0.001 C 
ATOM     22  C   UNL     1      33.043 -11.592 -22.906  0.00  0.00    +0.016 C 
ATOM     23  C   UNL     1      31.704 -12.016 -20.939  0.00  0.00    +0.016 C 
BRANCH  18  24
ATOM     24  C   UNL     1      30.743  -8.641 -22.351  0.00  0.00    +0.195 C 
BRANCH  24  25
ATOM     25  S   UNL     1      31.699  -7.420 -21.511  0.00  0.00    +0.045 S 
ATOM     26  O   UNL     1      31.713  -7.742 -20.093  0.00  0.00    -0.157 OA
ATOM     27  O   UNL     1      32.950  -7.255 -22.235  0.00  0.00    -0.157 OA
BRANCH  25  28
ATOM     28  N   UNL     1      30.747  -6.023 -21.769  0.00  0.00    -0.182 NA
ATOM     29  C   UNL     1      31.405  -4.704 -21.801  0.00  0.00    +0.110 C 
ATOM     30  H   UNL     1      30.052  -5.993 -21.022  0.00  0.00    +0.148 HD
ENDBRANCH  25  28
ENDBRANCH  24  25
ENDBRANCH  18  24
ENDBRANCH  16  19
ENDBRANCH   1  16
TORSDOF 6
ENDMDL
