MODEL 1
REMARK VINA RESULT:     -12.4      0.000      0.000
REMARK  Name = 4823
REMARK  3 active torsions:
REMARK  status: ('A' for Active; 'I' for Inactive)
REMARK    1  A    between atoms: C_3  and  C_16
REMARK    2  A    between atoms: C_9  and  C_21
REMARK    3  A    between atoms: C_26  and  O_27
REMARK                            x       y       z     vdW  Elec       q    Type
REMARK                         _______ _______ _______ _____ _____    ______ ____
ROOT
ATOM      1  N   UNL     1      35.371 -19.736 -20.061  0.00  0.00    -0.315 N 
ATOM      2  N   UNL     1      33.214 -20.205 -20.313  0.00  0.00    -0.315 N 
ATOM      3  C   UNL     1      35.201 -22.116 -17.217  0.00  0.00    +0.016 C 
ATOM      4  C   UNL     1      35.075 -20.638 -19.071  0.00  0.00    +0.059 C 
ATOM      5  C   UNL     1      35.850 -21.217 -18.067  0.00  0.00    +0.017 C 
ATOM      6  C   UNL     1      33.723 -20.916 -19.250  0.00  0.00    +0.059 C 
ATOM      7  C   UNL     1      33.848 -22.417 -17.367  0.00  0.00    +0.003 C 
ATOM      8  C   UNL     1      33.090 -21.823 -18.384  0.00  0.00    +0.016 C 
ATOM      9  C   UNL     1      34.228 -19.510 -20.775  0.00  0.00    +0.168 C 
ATOM     10  H   UNL     1      36.250 -19.325 -20.226  0.00  0.00    +0.149 HD
ATOM     11  H   UNL     1      32.290 -20.217 -20.653  0.00  0.00    +0.149 HD
ENDROOT
BRANCH   3  16
ATOM     12  O   UNL     1      38.269 -24.793 -13.495  0.00  0.00    -0.273 OA
ATOM     13  N   UNL     1      37.251 -22.517 -16.016  0.00  0.00    -0.184 NA
ATOM     14  N   UNL     1      37.971 -23.139 -15.055  0.00  0.00    -0.206 N 
ATOM     15  C   UNL     1      35.267 -23.690 -15.132  0.00  0.00    +0.051 C 
ATOM     16  C   UNL     1      35.981 -22.774 -16.117  0.00  0.00    +0.076 C 
ATOM     17  C   UNL     1      36.224 -24.801 -14.733  0.00  0.00    +0.093 C 
ATOM     18  C   UNL     1      34.792 -22.891 -13.917  0.00  0.00    +0.007 C 
ATOM     19  C   UNL     1      37.566 -24.245 -14.345  0.00  0.00    +0.241 C 
ATOM     20  H   UNL     1      38.860 -22.769 -14.847  0.00  0.00    +0.177 HD
ENDBRANCH   3  16
BRANCH   9  21
ATOM     21  C   UNL     1      34.195 -18.603 -21.898  0.00  0.00    +0.015 C 
ATOM     22  C   UNL     1      34.676 -17.302 -21.757  0.00  0.00    +0.002 C 
ATOM     23  C   UNL     1      33.679 -19.029 -23.122  0.00  0.00    +0.002 C 
ATOM     24  C   UNL     1      34.644 -16.426 -22.842  0.00  0.00    +0.037 C 
ATOM     25  C   UNL     1      33.647 -18.153 -24.207  0.00  0.00    +0.037 C 
ATOM     26  C   UNL     1      34.130 -16.851 -24.067  0.00  0.00    +0.139 C 
BRANCH  26  27
ATOM     27  O   UNL     1      34.098 -15.997 -25.125  0.00  0.00    -0.471 OA
ATOM     28  C   UNL     1      33.363 -14.785 -24.960  0.00  0.00    +0.252 C 
ENDBRANCH  26  27
ENDBRANCH   9  21
TORSDOF 3
ENDMDL
MODEL 2
REMARK VINA RESULT:     -11.9      3.130      9.372
REMARK  Name = 4823
REMARK  3 active torsions:
REMARK  status: ('A' for Active; 'I' for Inactive)
REMARK    1  A    between atoms: C_3  and  C_16
REMARK    2  A    between atoms: C_9  and  C_21
REMARK    3  A    between atoms: C_26  and  O_27
REMARK                            x       y       z     vdW  Elec       q    Type
REMARK                         _______ _______ _______ _____ _____    ______ ____
ROOT
ATOM      1  N   UNL     1      32.078 -21.157 -18.518  0.00  0.00    -0.315 N 
ATOM      2  N   UNL     1      33.963 -22.078 -17.786  0.00  0.00    -0.315 N 
ATOM      3  C   UNL     1      34.254 -19.559 -21.066  0.00  0.00    +0.016 C 
ATOM      4  C   UNL     1      33.061 -20.686 -19.349  0.00  0.00    +0.059 C 
ATOM      5  C   UNL     1      33.032 -19.822 -20.444  0.00  0.00    +0.017 C 
ATOM      6  C   UNL     1      34.229 -21.275 -18.872  0.00  0.00    +0.059 C 
ATOM      7  C   UNL     1      35.442 -20.131 -20.614  0.00  0.00    +0.003 C 
ATOM      8  C   UNL     1      35.448 -20.996 -19.512  0.00  0.00    +0.016 C 
ATOM      9  C   UNL     1      32.666 -21.984 -17.602  0.00  0.00    +0.168 C 
ATOM     10  H   UNL     1      31.119 -20.939 -18.572  0.00  0.00    +0.149 HD
ATOM     11  H   UNL     1      34.607 -22.607 -17.261  0.00  0.00    +0.149 HD
ENDROOT
BRANCH   3  16
ATOM     12  O   UNL     1      34.081 -15.903 -25.192  0.00  0.00    -0.273 OA
ATOM     13  N   UNL     1      34.897 -17.497 -22.132  0.00  0.00    -0.184 NA
ATOM     14  N   UNL     1      34.895 -16.641 -23.179  0.00  0.00    -0.206 N 
ATOM     15  C   UNL     1      33.643 -19.072 -23.559  0.00  0.00    +0.051 C 
ATOM     16  C   UNL     1      34.288 -18.638 -22.250  0.00  0.00    +0.076 C 
ATOM     17  C   UNL     1      33.062 -17.842 -24.237  0.00  0.00    +0.093 C 
ATOM     18  C   UNL     1      34.673 -19.773 -24.447  0.00  0.00    +0.007 C 
ATOM     19  C   UNL     1      34.064 -16.721 -24.272  0.00  0.00    +0.241 C 
ATOM     20  H   UNL     1      35.541 -15.899 -23.157  0.00  0.00    +0.177 HD
ENDBRANCH   3  16
BRANCH   9  21
ATOM     21  C   UNL     1      31.904 -22.652 -16.575  0.00  0.00    +0.015 C 
ATOM     22  C   UNL     1      32.561 -23.298 -15.529  0.00  0.00    +0.002 C 
ATOM     23  C   UNL     1      30.510 -22.652 -16.630  0.00  0.00    +0.002 C 
ATOM     24  C   UNL     1      31.824 -23.943 -14.535  0.00  0.00    +0.037 C 
ATOM     25  C   UNL     1      29.773 -23.297 -15.637  0.00  0.00    +0.037 C 
ATOM     26  C   UNL     1      30.430 -23.943 -14.589  0.00  0.00    +0.139 C 
BRANCH  26  27
ATOM     27  O   UNL     1      29.712 -24.572 -13.621  0.00  0.00    -0.471 OA
ATOM     28  C   UNL     1      28.557 -25.301 -14.037  0.00  0.00    +0.252 C 
ENDBRANCH  26  27
ENDBRANCH   9  21
TORSDOF 3
ENDMDL
MODEL 3
REMARK VINA RESULT:     -11.7      7.438     13.785
REMARK  Name = 4823
REMARK  3 active torsions:
REMARK  status: ('A' for Active; 'I' for Inactive)
REMARK    1  A    between atoms: C_3  and  C_16
REMARK    2  A    between atoms: C_9  and  C_21
REMARK    3  A    between atoms: C_26  and  O_27
REMARK                            x       y       z     vdW  Elec       q    Type
REMARK                         _______ _______ _______ _____ _____    ______ ____
ROOT
ATOM      1  N   UNL     1      33.416 -11.947 -23.069  0.00  0.00    -0.315 N 
ATOM      2  N   UNL     1      31.894 -12.662 -21.616  0.00  0.00    -0.315 N 
ATOM      3  C   UNL     1      31.613  -8.710 -22.836  0.00  0.00    +0.016 C 
ATOM      4  C   UNL     1      32.605 -10.868 -22.828  0.00  0.00    +0.059 C 
ATOM      5  C   UNL     1      32.614  -9.559 -23.311  0.00  0.00    +0.017 C 
ATOM      6  C   UNL     1      31.664 -11.340 -21.917  0.00  0.00    +0.059 C 
ATOM      7  C   UNL     1      30.654  -9.150 -21.924  0.00  0.00    +0.003 C 
ATOM      8  C   UNL     1      30.665 -10.468 -21.452  0.00  0.00    +0.016 C 
ATOM      9  C   UNL     1      32.951 -12.993 -22.324  0.00  0.00    +0.168 C 
ATOM     10  H   UNL     1      34.194 -11.964 -23.673  0.00  0.00    +0.149 HD
ATOM     11  H   UNL     1      31.379 -13.236 -21.003  0.00  0.00    +0.149 HD
ENDROOT
BRANCH   3  16
ATOM     12  O   UNL     1      31.150  -3.627 -24.925  0.00  0.00    -0.273 OA
ATOM     13  N   UNL     1      30.503  -6.587 -23.084  0.00  0.00    -0.184 NA
ATOM     14  N   UNL     1      30.437  -5.320 -23.554  0.00  0.00    -0.206 N 
ATOM     15  C   UNL     1      32.779  -6.701 -24.032  0.00  0.00    +0.051 C 
ATOM     16  C   UNL     1      31.569  -7.290 -23.318  0.00  0.00    +0.076 C 
ATOM     17  C   UNL     1      32.283  -5.724 -25.086  0.00  0.00    +0.093 C 
ATOM     18  C   UNL     1      33.707  -6.021 -23.024  0.00  0.00    +0.007 C 
ATOM     19  C   UNL     1      31.264  -4.780 -24.510  0.00  0.00    +0.241 C 
ATOM     20  H   UNL     1      29.738  -4.736 -23.179  0.00  0.00    +0.177 HD
ENDBRANCH   3  16
BRANCH   9  21
ATOM     21  C   UNL     1      33.585 -14.290 -22.346  0.00  0.00    +0.015 C 
ATOM     22  C   UNL     1      33.838 -14.920 -23.564  0.00  0.00    +0.002 C 
ATOM     23  C   UNL     1      33.943 -14.912 -21.150  0.00  0.00    +0.002 C 
ATOM     24  C   UNL     1      34.452 -16.173 -23.586  0.00  0.00    +0.037 C 
ATOM     25  C   UNL     1      34.556 -16.164 -21.172  0.00  0.00    +0.037 C 
ATOM     26  C   UNL     1      34.811 -16.795 -22.391  0.00  0.00    +0.139 C 
BRANCH  26  27
ATOM     27  O   UNL     1      35.408 -18.017 -22.413  0.00  0.00    -0.471 OA
ATOM     28  C   UNL     1      36.428 -18.259 -21.443  0.00  0.00    +0.252 C 
ENDBRANCH  26  27
ENDBRANCH   9  21
TORSDOF 3
ENDMDL
MODEL 4
REMARK VINA RESULT:     -11.7      1.610      9.409
REMARK  Name = 4823
REMARK  3 active torsions:
REMARK  status: ('A' for Active; 'I' for Inactive)
REMARK    1  A    between atoms: C_3  and  C_16
REMARK    2  A    between atoms: C_9  and  C_21
REMARK    3  A    between atoms: C_26  and  O_27
REMARK                            x       y       z     vdW  Elec       q    Type
REMARK                         _______ _______ _______ _____ _____    ______ ____
ROOT
ATOM      1  N   UNL     1      35.971 -21.118 -18.189  0.00  0.00    -0.315 N 
ATOM      2  N   UNL     1      33.989 -21.973 -17.658  0.00  0.00    -0.315 N 
ATOM      3  C   UNL     1      34.133 -19.480 -20.967  0.00  0.00    +0.016 C 
ATOM      4  C   UNL     1      35.098 -20.625 -19.124  0.00  0.00    +0.059 C 
ATOM      5  C   UNL     1      35.273 -19.774 -20.215  0.00  0.00    +0.017 C 
ATOM      6  C   UNL     1      33.867 -21.173 -18.772  0.00  0.00    +0.059 C 
ATOM      7  C   UNL     1      32.886 -20.011 -20.643  0.00  0.00    +0.003 C 
ATOM      8  C   UNL     1      32.734 -20.864 -19.543  0.00  0.00    +0.016 C 
ATOM      9  C   UNL     1      35.261 -21.916 -17.336  0.00  0.00    +0.168 C 
ATOM     10  H   UNL     1      36.936 -20.929 -18.141  0.00  0.00    +0.149 HD
ATOM     11  H   UNL     1      33.277 -22.477 -17.202  0.00  0.00    +0.149 HD
ENDROOT
BRANCH   3  16
ATOM     12  O   UNL     1      34.296 -15.844 -25.112  0.00  0.00    -0.273 OA
ATOM     13  N   UNL     1      34.916 -17.458 -22.017  0.00  0.00    -0.184 NA
ATOM     14  N   UNL     1      34.995 -16.609 -23.067  0.00  0.00    -0.206 N 
ATOM     15  C   UNL     1      33.642 -18.979 -23.484  0.00  0.00    +0.051 C 
ATOM     16  C   UNL     1      34.257 -18.568 -22.153  0.00  0.00    +0.076 C 
ATOM     17  C   UNL     1      33.148 -17.726 -24.189  0.00  0.00    +0.093 C 
ATOM     18  C   UNL     1      34.669 -19.734 -24.330  0.00  0.00    +0.007 C 
ATOM     19  C   UNL     1      34.204 -16.655 -24.191  0.00  0.00    +0.241 C 
ATOM     20  H   UNL     1      35.676 -15.899 -23.024  0.00  0.00    +0.177 HD
ENDBRANCH   3  16
BRANCH   9  21
ATOM     21  C   UNL     1      35.887 -22.594 -16.226  0.00  0.00    +0.015 C 
ATOM     22  C   UNL     1      37.246 -22.412 -15.974  0.00  0.00    +0.002 C 
ATOM     23  C   UNL     1      35.132 -23.433 -15.406  0.00  0.00    +0.002 C 
ATOM     24  C   UNL     1      37.851 -23.067 -14.901  0.00  0.00    +0.037 C 
ATOM     25  C   UNL     1      35.736 -24.088 -14.333  0.00  0.00    +0.037 C 
ATOM     26  C   UNL     1      37.095 -23.905 -14.081  0.00  0.00    +0.139 C 
BRANCH  26  27
ATOM     27  O   UNL     1      37.685 -24.544 -13.034  0.00  0.00    -0.471 OA
ATOM     28  C   UNL     1      37.053 -25.732 -12.558  0.00  0.00    +0.252 C 
ENDBRANCH  26  27
ENDBRANCH   9  21
TORSDOF 3
ENDMDL
MODEL 5
REMARK VINA RESULT:     -11.5      1.639      2.297
REMARK  Name = 4823
REMARK  3 active torsions:
REMARK  status: ('A' for Active; 'I' for Inactive)
REMARK    1  A    between atoms: C_3  and  C_16
REMARK    2  A    between atoms: C_9  and  C_21
REMARK    3  A    between atoms: C_26  and  O_27
REMARK                            x       y       z     vdW  Elec       q    Type
REMARK                         _______ _______ _______ _____ _____    ______ ____
ROOT
ATOM      1  N   UNL     1      35.675 -20.735 -18.427  0.00  0.00    -0.315 N 
ATOM      2  N   UNL     1      33.617 -21.357 -18.990  0.00  0.00    -0.315 N 
ATOM      3  C   UNL     1      35.201 -23.013 -15.535  0.00  0.00    +0.016 C 
ATOM      4  C   UNL     1      35.282 -21.617 -17.454  0.00  0.00    +0.059 C 
ATOM      5  C   UNL     1      35.921 -22.105 -16.315  0.00  0.00    +0.017 C 
ATOM      6  C   UNL     1      33.993 -21.992 -17.828  0.00  0.00    +0.059 C 
ATOM      7  C   UNL     1      33.910 -23.410 -15.879  0.00  0.00    +0.003 C 
ATOM      8  C   UNL     1      33.288 -22.907 -17.029  0.00  0.00    +0.016 C 
ATOM      9  C   UNL     1      34.648 -20.613 -19.320  0.00  0.00    +0.168 C 
ATOM     10  H   UNL     1      36.543 -20.272 -18.473  0.00  0.00    +0.149 HD
ATOM     11  H   UNL     1      32.761 -21.444 -19.469  0.00  0.00    +0.149 HD
ENDROOT
BRANCH   3  16
ATOM     12  O   UNL     1      37.678 -24.654 -10.888  0.00  0.00    -0.273 OA
ATOM     13  N   UNL     1      35.308 -23.290 -13.144  0.00  0.00    -0.184 NA
ATOM     14  N   UNL     1      35.899 -23.755 -12.020  0.00  0.00    -0.206 N 
ATOM     15  C   UNL     1      37.049 -24.487 -14.420  0.00  0.00    +0.051 C 
ATOM     16  C   UNL     1      35.835 -23.576 -14.297  0.00  0.00    +0.076 C 
ATOM     17  C   UNL     1      37.955 -24.242 -13.225  0.00  0.00    +0.093 C 
ATOM     18  C   UNL     1      36.604 -25.949 -14.501  0.00  0.00    +0.007 C 
ATOM     19  C   UNL     1      37.174 -24.264 -11.941  0.00  0.00    +0.241 C 
ATOM     20  H   UNL     1      35.371 -23.727 -11.189  0.00  0.00    +0.177 HD
ENDBRANCH   3  16
BRANCH   9  21
ATOM     21  C   UNL     1      34.738 -19.753 -20.476  0.00  0.00    +0.015 C 
ATOM     22  C   UNL     1      35.896 -19.011 -20.704  0.00  0.00    +0.002 C 
ATOM     23  C   UNL     1      33.666 -19.664 -21.364  0.00  0.00    +0.002 C 
ATOM     24  C   UNL     1      35.984 -18.180 -21.821  0.00  0.00    +0.037 C 
ATOM     25  C   UNL     1      33.753 -18.833 -22.481  0.00  0.00    +0.037 C 
ATOM     26  C   UNL     1      34.913 -18.092 -22.709  0.00  0.00    +0.139 C 
BRANCH  26  27
ATOM     27  O   UNL     1      34.998 -17.281 -23.799  0.00  0.00    -0.471 OA
ATOM     28  C   UNL     1      33.801 -16.624 -24.216  0.00  0.00    +0.252 C 
ENDBRANCH  26  27
ENDBRANCH   9  21
TORSDOF 3
ENDMDL
MODEL 6
REMARK VINA RESULT:     -11.3      2.386      3.172
REMARK  Name = 4823
REMARK  3 active torsions:
REMARK  status: ('A' for Active; 'I' for Inactive)
REMARK    1  A    between atoms: C_3  and  C_16
REMARK    2  A    between atoms: C_9  and  C_21
REMARK    3  A    between atoms: C_26  and  O_27
REMARK                            x       y       z     vdW  Elec       q    Type
REMARK                         _______ _______ _______ _____ _____    ______ ____
ROOT
ATOM      1  N   UNL     1      33.228 -19.850 -20.263  0.00  0.00    -0.315 N 
ATOM      2  N   UNL     1      35.447 -19.798 -20.364  0.00  0.00    -0.315 N 
ATOM      3  C   UNL     1      33.758 -22.101 -17.360  0.00  0.00    +0.016 C 
ATOM      4  C   UNL     1      33.659 -20.649 -19.236  0.00  0.00    +0.059 C 
ATOM      5  C   UNL     1      32.976 -21.388 -18.270  0.00  0.00    +0.017 C 
ATOM      6  C   UNL     1      35.048 -20.600 -19.319  0.00  0.00    +0.059 C 
ATOM      7  C   UNL     1      35.150 -22.075 -17.414  0.00  0.00    +0.003 C 
ATOM      8  C   UNL     1      35.815 -21.326 -18.393  0.00  0.00    +0.016 C 
ATOM      9  C   UNL     1      34.332 -19.365 -20.906  0.00  0.00    +0.168 C 
ATOM     10  H   UNL     1      32.290 -19.660 -20.495  0.00  0.00    +0.149 HD
ATOM     11  H   UNL     1      36.369 -19.592 -20.642  0.00  0.00    +0.149 HD
ENDROOT
BRANCH   3  16
ATOM     12  O   UNL     1      31.000 -24.727 -13.369  0.00  0.00    -0.273 OA
ATOM     13  N   UNL     1      31.871 -23.336 -16.512  0.00  0.00    -0.184 NA
ATOM     14  N   UNL     1      31.237 -24.032 -15.541  0.00  0.00    -0.206 N 
ATOM     15  C   UNL     1      33.832 -23.253 -15.015  0.00  0.00    +0.051 C 
ATOM     16  C   UNL     1      33.081 -22.915 -16.296  0.00  0.00    +0.076 C 
ATOM     17  C   UNL     1      32.835 -23.280 -13.868  0.00  0.00    +0.093 C 
ATOM     18  C   UNL     1      34.555 -24.593 -15.166  0.00  0.00    +0.007 C 
ATOM     19  C   UNL     1      31.625 -24.099 -14.224  0.00  0.00    +0.241 C 
ATOM     20  H   UNL     1      30.429 -24.533 -15.800  0.00  0.00    +0.177 HD
ENDBRANCH   3  16
BRANCH   9  21
ATOM     21  C   UNL     1      34.228 -18.482 -22.044  0.00  0.00    +0.015 C 
ATOM     22  C   UNL     1      33.663 -18.942 -23.233  0.00  0.00    +0.002 C 
ATOM     23  C   UNL     1      34.694 -17.171 -21.953  0.00  0.00    +0.002 C 
ATOM     24  C   UNL     1      33.562 -18.089 -24.332  0.00  0.00    +0.037 C 
ATOM     25  C   UNL     1      34.594 -16.318 -23.052  0.00  0.00    +0.037 C 
ATOM     26  C   UNL     1      34.027 -16.777 -24.242  0.00  0.00    +0.139 C 
BRANCH  26  27
ATOM     27  O   UNL     1      33.929 -15.945 -25.314  0.00  0.00    -0.471 OA
ATOM     28  C   UNL     1      33.264 -14.699 -25.111  0.00  0.00    +0.252 C 
ENDBRANCH  26  27
ENDBRANCH   9  21
TORSDOF 3
ENDMDL
MODEL 7
REMARK VINA RESULT:     -11.2      5.722      9.484
REMARK  Name = 4823
REMARK  3 active torsions:
REMARK  status: ('A' for Active; 'I' for Inactive)
REMARK    1  A    between atoms: C_3  and  C_16
REMARK    2  A    between atoms: C_9  and  C_21
REMARK    3  A    between atoms: C_26  and  O_27
REMARK                            x       y       z     vdW  Elec       q    Type
REMARK                         _______ _______ _______ _____ _____    ______ ____
ROOT
ATOM      1  N   UNL     1      33.202 -11.628 -22.153  0.00  0.00    -0.315 N 
ATOM      2  N   UNL     1      32.609 -11.629 -24.295  0.00  0.00    -0.315 N 
ATOM      3  C   UNL     1      34.045 -15.194 -22.743  0.00  0.00    +0.016 C 
ATOM      4  C   UNL     1      33.439 -12.903 -22.597  0.00  0.00    +0.059 C 
ATOM      5  C   UNL     1      33.936 -14.041 -21.963  0.00  0.00    +0.017 C 
ATOM      6  C   UNL     1      33.061 -12.878 -23.937  0.00  0.00    +0.059 C 
ATOM      7  C   UNL     1      33.676 -15.206 -24.087  0.00  0.00    +0.003 C 
ATOM      8  C   UNL     1      33.179 -14.050 -24.703  0.00  0.00    +0.016 C 
ATOM      9  C   UNL     1      32.707 -10.906 -23.203  0.00  0.00    +0.168 C 
ATOM     10  H   UNL     1      33.360 -11.293 -21.241  0.00  0.00    +0.149 HD
ATOM     11  H   UNL     1      32.283 -11.340 -25.178  0.00  0.00    +0.149 HD
ENDROOT
BRANCH   3  16
ATOM     12  O   UNL     1      36.369 -19.577 -20.331  0.00  0.00    -0.273 OA
ATOM     13  N   UNL     1      34.640 -16.521 -20.822  0.00  0.00    -0.184 NA
ATOM     14  N   UNL     1      35.157 -17.632 -20.250  0.00  0.00    -0.206 N 
ATOM     15  C   UNL     1      34.986 -17.618 -23.005  0.00  0.00    +0.051 C 
ATOM     16  C   UNL     1      34.575 -16.451 -22.117  0.00  0.00    +0.076 C 
ATOM     17  C   UNL     1      36.166 -18.322 -22.354  0.00  0.00    +0.093 C 
ATOM     18  C   UNL     1      33.805 -18.568 -23.210  0.00  0.00    +0.007 C 
ATOM     19  C   UNL     1      35.897 -18.593 -20.899  0.00  0.00    +0.241 C 
ATOM     20  H   UNL     1      34.990 -17.765 -19.289  0.00  0.00    +0.177 HD
ENDBRANCH   3  16
BRANCH   9  21
ATOM     21  C   UNL     1      32.352  -9.513 -23.072  0.00  0.00    +0.015 C 
ATOM     22  C   UNL     1      33.308  -8.525 -23.306  0.00  0.00    +0.002 C 
ATOM     23  C   UNL     1      31.053  -9.155 -22.709  0.00  0.00    +0.002 C 
ATOM     24  C   UNL     1      32.964  -7.178 -23.180  0.00  0.00    +0.037 C 
ATOM     25  C   UNL     1      30.710  -7.810 -22.583  0.00  0.00    +0.037 C 
ATOM     26  C   UNL     1      31.666  -6.821 -22.819  0.00  0.00    +0.139 C 
BRANCH  26  27
ATOM     27  O   UNL     1      31.331  -5.508 -22.696  0.00  0.00    -0.471 OA
ATOM     28  C   UNL     1      30.117  -5.208 -22.007  0.00  0.00    +0.252 C 
ENDBRANCH  26  27
ENDBRANCH   9  21
TORSDOF 3
ENDMDL
MODEL 8
REMARK VINA RESULT:     -11.0      5.005      8.124
REMARK  Name = 4823
REMARK  3 active torsions:
REMARK  status: ('A' for Active; 'I' for Inactive)
REMARK    1  A    between atoms: C_3  and  C_16
REMARK    2  A    between atoms: C_9  and  C_21
REMARK    3  A    between atoms: C_26  and  O_27
REMARK                            x       y       z     vdW  Elec       q    Type
REMARK                         _______ _______ _______ _____ _____    ______ ____
ROOT
ATOM      1  N   UNL     1      33.068 -13.186 -21.458  0.00  0.00    -0.315 N 
ATOM      2  N   UNL     1      32.956 -12.991 -23.669  0.00  0.00    -0.315 N 
ATOM      3  C   UNL     1      34.352 -16.595 -22.171  0.00  0.00    +0.016 C 
ATOM      4  C   UNL     1      33.515 -14.384 -21.953  0.00  0.00    +0.059 C 
ATOM      5  C   UNL     1      33.968 -15.547 -21.332  0.00  0.00    +0.017 C 
ATOM      6  C   UNL     1      33.436 -14.237 -23.336  0.00  0.00    +0.059 C 
ATOM      7  C   UNL     1      34.286 -16.483 -23.558  0.00  0.00    +0.003 C 
ATOM      8  C   UNL     1      33.827 -15.305 -24.161  0.00  0.00    +0.016 C 
ATOM      9  C   UNL     1      32.747 -12.389 -22.521  0.00  0.00    +0.168 C 
ATOM     10  H   UNL     1      32.992 -12.944 -20.506  0.00  0.00    +0.149 HD
ATOM     11  H   UNL     1      32.804 -12.630 -24.572  0.00  0.00    +0.149 HD
ENDROOT
BRANCH   3  16
ATOM     12  O   UNL     1      35.922 -21.195 -19.563  0.00  0.00    -0.273 OA
ATOM     13  N   UNL     1      34.027 -18.873 -21.455  0.00  0.00    -0.184 NA
ATOM     14  N   UNL     1      34.453 -20.014 -20.867  0.00  0.00    -0.206 N 
ATOM     15  C   UNL     1      36.303 -17.980 -21.118  0.00  0.00    +0.051 C 
ATOM     16  C   UNL     1      34.850 -17.873 -21.561  0.00  0.00    +0.076 C 
ATOM     17  C   UNL     1      36.363 -18.869 -19.886  0.00  0.00    +0.093 C 
ATOM     18  C   UNL     1      37.163 -18.532 -22.256  0.00  0.00    +0.007 C 
ATOM     19  C   UNL     1      35.587 -20.139 -20.100  0.00  0.00    +0.241 C 
ATOM     20  H   UNL     1      33.906 -20.821 -21.000  0.00  0.00    +0.177 HD
ENDBRANCH   3  16
BRANCH   9  21
ATOM     21  C   UNL     1      32.242 -11.048 -22.345  0.00  0.00    +0.015 C 
ATOM     22  C   UNL     1      31.357 -10.768 -21.305  0.00  0.00    +0.002 C 
ATOM     23  C   UNL     1      32.638 -10.034 -23.217  0.00  0.00    +0.002 C 
ATOM     24  C   UNL     1      30.869  -9.472 -21.134  0.00  0.00    +0.037 C 
ATOM     25  C   UNL     1      32.150  -8.739 -23.047  0.00  0.00    +0.037 C 
ATOM     26  C   UNL     1      31.265  -8.458 -22.005  0.00  0.00    +0.139 C 
BRANCH  26  27
ATOM     27  O   UNL     1      30.789  -7.194 -21.840  0.00  0.00    -0.471 OA
ATOM     28  C   UNL     1      30.669  -6.386 -23.010  0.00  0.00    +0.252 C 
ENDBRANCH  26  27
ENDBRANCH   9  21
TORSDOF 3
ENDMDL
MODEL 9
REMARK VINA RESULT:     -10.9      5.484     11.237
REMARK  Name = 4823
REMARK  3 active torsions:
REMARK  status: ('A' for Active; 'I' for Inactive)
REMARK    1  A    between atoms: C_3  and  C_16
REMARK    2  A    between atoms: C_9  and  C_21
REMARK    3  A    between atoms: C_26  and  O_27
REMARK                            x       y       z     vdW  Elec       q    Type
REMARK                         _______ _______ _______ _____ _____    ______ ____
ROOT
ATOM      1  N   UNL     1      33.867 -15.239 -21.031  0.00  0.00    -0.315 N 
ATOM      2  N   UNL     1      34.224 -15.921 -23.115  0.00  0.00    -0.315 N 
ATOM      3  C   UNL     1      32.782 -12.065 -22.621  0.00  0.00    +0.016 C 
ATOM      4  C   UNL     1      33.518 -14.179 -21.826  0.00  0.00    +0.059 C 
ATOM      5  C   UNL     1      33.035 -12.903 -21.533  0.00  0.00    +0.017 C 
ATOM      6  C   UNL     1      33.749 -14.629 -23.124  0.00  0.00    +0.059 C 
ATOM      7  C   UNL     1      33.003 -12.483 -23.933  0.00  0.00    +0.003 C 
ATOM      8  C   UNL     1      33.489 -13.769 -24.203  0.00  0.00    +0.016 C 
ATOM      9  C   UNL     1      34.282 -16.254 -21.846  0.00  0.00    +0.168 C 
ATOM     10  H   UNL     1      33.826 -15.264 -20.047  0.00  0.00    +0.149 HD
ATOM     11  H   UNL     1      34.467 -16.474 -23.892  0.00  0.00    +0.149 HD
ENDROOT
BRANCH   3  16
ATOM     12  O   UNL     1      31.293  -6.854 -21.599  0.00  0.00    -0.273 OA
ATOM     13  N   UNL     1      32.551  -9.744 -23.222  0.00  0.00    -0.184 NA
ATOM     14  N   UNL     1      32.122  -8.484 -22.982  0.00  0.00    -0.206 N 
ATOM     15  C   UNL     1      31.380 -10.417 -21.157  0.00  0.00    +0.051 C 
ATOM     16  C   UNL     1      32.260 -10.681 -22.371  0.00  0.00    +0.076 C 
ATOM     17  C   UNL     1      31.671  -9.014 -20.650  0.00  0.00    +0.093 C 
ATOM     18  C   UNL     1      29.905 -10.589 -21.526  0.00  0.00    +0.007 C 
ATOM     19  C   UNL     1      31.650  -8.018 -21.777  0.00  0.00    +0.241 C 
ATOM     20  H   UNL     1      32.150  -7.847 -23.732  0.00  0.00    +0.177 HD
ENDBRANCH   3  16
BRANCH   9  21
ATOM     21  C   UNL     1      34.720 -17.526 -21.321  0.00  0.00    +0.015 C 
ATOM     22  C   UNL     1      36.081 -17.779 -21.157  0.00  0.00    +0.002 C 
ATOM     23  C   UNL     1      33.782 -18.500 -20.981  0.00  0.00    +0.002 C 
ATOM     24  C   UNL     1      36.505 -19.008 -20.650  0.00  0.00    +0.037 C 
ATOM     25  C   UNL     1      34.206 -19.729 -20.474  0.00  0.00    +0.037 C 
ATOM     26  C   UNL     1      35.568 -19.982 -20.308  0.00  0.00    +0.139 C 
BRANCH  26  27
ATOM     27  O   UNL     1      35.982 -21.180 -19.814  0.00  0.00    -0.471 OA
ATOM     28  C   UNL     1      35.976 -21.335 -18.395  0.00  0.00    +0.252 C 
ENDBRANCH  26  27
ENDBRANCH   9  21
TORSDOF 3
ENDMDL
