MODEL 1
REMARK VINA RESULT:     -11.3      0.000      0.000
REMARK  Name = 61791
REMARK  8 active torsions:
REMARK  status: ('A' for Active; 'I' for Inactive)
REMARK    1  A    between atoms: N_1  and  C_22
REMARK    2  A    between atoms: C_2  and  N_10
REMARK    3  A    between atoms: C_17  and  C_20
REMARK    4  A    between atoms: C_22  and  C_23
REMARK    5  A    between atoms: C_23  and  C_24
REMARK    6  A    between atoms: C_24  and  C_25
REMARK    7  A    between atoms: C_24  and  C_31
REMARK    8  A    between atoms: C_24  and  C_38
REMARK                            x       y       z     vdW  Elec       q    Type
REMARK                         _______ _______ _______ _____ _____    ______ ____
ROOT
ATOM      1  N   UNL     1      34.634 -20.654 -19.123  0.00  0.00    +0.387 N 
ATOM      2  C   UNL     1      34.684 -22.673 -17.006  0.00  0.00    +0.086 C 
ATOM      3  C   UNL     1      35.710 -21.542 -17.080  0.00  0.00    -0.000 C 
ATOM      4  C   UNL     1      33.391 -22.260 -17.708  0.00  0.00    -0.000 C 
ATOM      5  C   UNL     1      35.908 -21.067 -18.521  0.00  0.00    -0.075 C 
ATOM      6  C   UNL     1      33.666 -21.760 -19.128  0.00  0.00    -0.075 C 
ATOM      7  H   UNL     1      34.246 -19.900 -18.554  0.00  0.00    -0.080 HD
ENDROOT
BRANCH   2  10
ATOM      8  O   UNL     1      36.604 -23.540 -14.874  0.00  0.00    -0.246 OA
ATOM      9  O   UNL     1      34.452 -24.382 -11.204  0.00  0.00    -0.271 OA
ATOM     10  N   UNL     1      34.427 -23.052 -15.639  0.00  0.00    -0.282 N 
ATOM     11  N   UNL     1      34.660 -23.735 -13.453  0.00  0.00    -0.229 N 
ATOM     12  C   UNL     1      33.158 -23.074 -15.055  0.00  0.00    +0.080 A 
ATOM     13  C   UNL     1      35.399 -23.453 -14.685  0.00  0.00    +0.337 A 
ATOM     14  C   UNL     1      33.285 -23.488 -13.728  0.00  0.00    +0.087 A 
ATOM     15  C   UNL     1      31.934 -22.759 -15.619  0.00  0.00    +0.019 C 
ATOM     16  C   UNL     1      32.168 -23.596 -12.919  0.00  0.00    +0.019 C 
ATOM     17  C   UNL     1      35.138 -24.166 -12.203  0.00  0.00    +0.245 C 
ATOM     18  C   UNL     1      30.804 -22.867 -14.809  0.00  0.00    +0.002 C 
ATOM     19  C   UNL     1      30.919 -23.281 -13.472  0.00  0.00    +0.002 C 
BRANCH  17  20
ATOM     20  C   UNL     1      36.631 -24.365 -12.131  0.00  0.00    +0.089 C 
ATOM     21  C   UNL     1      36.961 -25.833 -12.253  0.00  0.00    +0.010 C 
ENDBRANCH  17  20
ENDBRANCH   2  10
BRANCH   1  22
ATOM     22  C   UNL     1      34.846 -20.154 -20.481  0.00  0.00    -0.076 C 
BRANCH  22  23
ATOM     23  C   UNL     1      34.379 -18.691 -20.581  0.00  0.00    -0.000 C 
BRANCH  23  24
ATOM     24  C   UNL     1      34.897 -17.906 -21.844  0.00  0.00    +0.115 C 
BRANCH  24  25
ATOM     25  C   UNL     1      34.510 -16.402 -21.828  0.00  0.00    -0.006 C 
ATOM     26  C   UNL     1      34.544 -15.724 -23.013  0.00  0.00    -0.003 C 
ATOM     27  C   UNL     1      34.158 -15.847 -20.632  0.00  0.00    -0.003 C 
ATOM     28  C   UNL     1      34.196 -14.373 -23.000  0.00  0.00    -0.000 C 
ATOM     29  C   UNL     1      33.810 -14.496 -20.618  0.00  0.00    -0.000 C 
ATOM     30  C   UNL     1      33.829 -13.760 -21.803  0.00  0.00    -0.000 C 
ENDBRANCH  24  25
BRANCH  24  31
ATOM     31  C   UNL     1      34.308 -18.573 -23.111  0.00  0.00    -0.006 C 
ATOM     32  C   UNL     1      33.168 -18.039 -23.644  0.00  0.00    -0.003 C 
ATOM     33  C   UNL     1      34.960 -19.660 -23.624  0.00  0.00    -0.003 C 
ATOM     34  C   UNL     1      32.638 -18.641 -24.786  0.00  0.00    -0.000 C 
ATOM     35  C   UNL     1      34.429 -20.262 -24.765  0.00  0.00    -0.000 C 
ATOM     36  C   UNL     1      33.268 -19.752 -25.346  0.00  0.00    -0.000 C 
ENDBRANCH  24  31
BRANCH  24  38
ATOM     37  N   UNL     1      37.549 -18.011 -21.737  0.00  0.00    -0.195 NA
ATOM     38  C   UNL     1      36.390 -17.956 -21.783  0.00  0.00    +0.079 C 
ENDBRANCH  24  38
ENDBRANCH  23  24
ENDBRANCH  22  23
ENDBRANCH   1  22
TORSDOF 8
ENDMDL
MODEL 2
REMARK VINA RESULT:     -10.7      1.484      2.928
REMARK  Name = 61791
REMARK  8 active torsions:
REMARK  status: ('A' for Active; 'I' for Inactive)
REMARK    1  A    between atoms: N_1  and  C_22
REMARK    2  A    between atoms: C_2  and  N_10
REMARK    3  A    between atoms: C_17  and  C_20
REMARK    4  A    between atoms: C_22  and  C_23
REMARK    5  A    between atoms: C_23  and  C_24
REMARK    6  A    between atoms: C_24  and  C_25
REMARK    7  A    between atoms: C_24  and  C_31
REMARK    8  A    between atoms: C_24  and  C_38
REMARK                            x       y       z     vdW  Elec       q    Type
REMARK                         _______ _______ _______ _____ _____    ______ ____
ROOT
ATOM      1  N   UNL     1      34.459 -20.523 -19.145  0.00  0.00    +0.387 N 
ATOM      2  C   UNL     1      33.750 -22.675 -17.295  0.00  0.00    +0.086 C 
ATOM      3  C   UNL     1      35.002 -21.818 -17.109  0.00  0.00    -0.000 C 
ATOM      4  C   UNL     1      32.698 -21.907 -18.095  0.00  0.00    -0.000 C 
ATOM      5  C   UNL     1      35.509 -21.277 -18.448  0.00  0.00    -0.075 C 
ATOM      6  C   UNL     1      33.281 -21.363 -19.401  0.00  0.00    -0.075 C 
ATOM      7  H   UNL     1      34.171 -19.752 -18.542  0.00  0.00    -0.080 HD
ENDROOT
BRANCH   2  10
ATOM      8  O   UNL     1      30.900 -23.067 -16.454  0.00  0.00    -0.246 OA
ATOM      9  O   UNL     1      30.748 -24.388 -12.326  0.00  0.00    -0.271 OA
ATOM     10  N   UNL     1      33.219 -23.102 -16.025  0.00  0.00    -0.282 N 
ATOM     11  N   UNL     1      31.809 -23.709 -14.310  0.00  0.00    -0.229 N 
ATOM     12  C   UNL     1      34.003 -23.423 -14.913  0.00  0.00    +0.080 A 
ATOM     13  C   UNL     1      31.846 -23.264 -15.704  0.00  0.00    +0.337 A 
ATOM     14  C   UNL     1      33.159 -23.793 -13.865  0.00  0.00    +0.087 A 
ATOM     15  C   UNL     1      35.380 -23.405 -14.785  0.00  0.00    +0.019 C 
ATOM     16  C   UNL     1      33.686 -24.161 -12.640  0.00  0.00    +0.019 C 
ATOM     17  C   UNL     1      30.702 -24.015 -13.498  0.00  0.00    +0.245 C 
ATOM     18  C   UNL     1      35.917 -23.774 -13.552  0.00  0.00    +0.002 C 
ATOM     19  C   UNL     1      35.078 -24.149 -12.489  0.00  0.00    +0.002 C 
BRANCH  17  20
ATOM     20  C   UNL     1      29.362 -23.859 -14.172  0.00  0.00    +0.089 C 
ATOM     21  C   UNL     1      28.654 -25.191 -14.225  0.00  0.00    +0.010 C 
ENDBRANCH  17  20
ENDBRANCH   2  10
BRANCH   1  22
ATOM     22  C   UNL     1      34.974 -19.969 -20.398  0.00  0.00    -0.076 C 
BRANCH  22  23
ATOM     23  C   UNL     1      34.374 -18.572 -20.640  0.00  0.00    -0.000 C 
BRANCH  23  24
ATOM     24  C   UNL     1      34.902 -17.829 -21.924  0.00  0.00    +0.115 C 
BRANCH  24  25
ATOM     25  C   UNL     1      34.528 -16.322 -21.953  0.00  0.00    -0.006 C 
ATOM     26  C   UNL     1      34.180 -15.730 -20.773  0.00  0.00    -0.003 C 
ATOM     27  C   UNL     1      34.568 -15.679 -23.157  0.00  0.00    -0.003 C 
ATOM     28  C   UNL     1      33.844 -14.376 -20.799  0.00  0.00    -0.000 C 
ATOM     29  C   UNL     1      34.232 -14.326 -23.183  0.00  0.00    -0.000 C 
ATOM     30  C   UNL     1      33.870 -13.675 -22.004  0.00  0.00    -0.000 C 
ENDBRANCH  24  25
BRANCH  24  31
ATOM     31  C   UNL     1      34.309 -18.528 -23.172  0.00  0.00    -0.006 C 
ATOM     32  C   UNL     1      33.170 -18.004 -23.718  0.00  0.00    -0.003 C 
ATOM     33  C   UNL     1      34.956 -19.629 -23.658  0.00  0.00    -0.003 C 
ATOM     34  C   UNL     1      32.636 -18.634 -24.843  0.00  0.00    -0.000 C 
ATOM     35  C   UNL     1      34.422 -20.259 -24.782  0.00  0.00    -0.000 C 
ATOM     36  C   UNL     1      33.262 -19.761 -25.375  0.00  0.00    -0.000 C 
ENDBRANCH  24  31
BRANCH  24  38
ATOM     37  N   UNL     1      37.553 -17.941 -21.825  0.00  0.00    -0.195 NA
ATOM     38  C   UNL     1      36.394 -17.891 -21.859  0.00  0.00    +0.079 C 
ENDBRANCH  24  38
ENDBRANCH  23  24
ENDBRANCH  22  23
ENDBRANCH   1  22
TORSDOF 8
ENDMDL
MODEL 3
REMARK VINA RESULT:     -10.6      7.658     12.970
REMARK  Name = 61791
REMARK  8 active torsions:
REMARK  status: ('A' for Active; 'I' for Inactive)
REMARK    1  A    between atoms: N_1  and  C_22
REMARK    2  A    between atoms: C_2  and  N_10
REMARK    3  A    between atoms: C_17  and  C_20
REMARK    4  A    between atoms: C_22  and  C_23
REMARK    5  A    between atoms: C_23  and  C_24
REMARK    6  A    between atoms: C_24  and  C_25
REMARK    7  A    between atoms: C_24  and  C_31
REMARK    8  A    between atoms: C_24  and  C_38
REMARK                            x       y       z     vdW  Elec       q    Type
REMARK                         _______ _______ _______ _____ _____    ______ ____
ROOT
ATOM      1  N   UNL     1      31.252  -9.167 -22.011  0.00  0.00    +0.387 N 
ATOM      2  C   UNL     1      32.899 -11.581 -21.881  0.00  0.00    +0.086 C 
ATOM      3  C   UNL     1      31.464 -11.543 -21.357  0.00  0.00    -0.000 C 
ATOM      4  C   UNL     1      33.097 -10.516 -22.960  0.00  0.00    -0.000 C 
ATOM      5  C   UNL     1      31.070 -10.131 -20.919  0.00  0.00    -0.075 C 
ATOM      6  C   UNL     1      32.648  -9.138 -22.468  0.00  0.00    -0.075 C 
ATOM      7  H   UNL     1      30.671  -9.466 -22.795  0.00  0.00    -0.080 HD
ENDROOT
BRANCH   2  10
ATOM      8  O   UNL     1      33.969 -13.970 -20.420  0.00  0.00    -0.246 OA
ATOM      9  O   UNL     1      34.523 -17.264 -23.185  0.00  0.00    -0.271 OA
ATOM     10  N   UNL     1      33.235 -12.890 -22.384  0.00  0.00    -0.282 N 
ATOM     11  N   UNL     1      33.922 -15.078 -22.565  0.00  0.00    -0.229 N 
ATOM     12  C   UNL     1      33.103 -13.275 -23.721  0.00  0.00    +0.080 A 
ATOM     13  C   UNL     1      33.740 -13.975 -21.622  0.00  0.00    +0.337 A 
ATOM     14  C   UNL     1      33.518 -14.602 -23.844  0.00  0.00    +0.087 A 
ATOM     15  C   UNL     1      32.650 -12.536 -24.799  0.00  0.00    +0.019 C 
ATOM     16  C   UNL     1      33.487 -15.232 -25.076  0.00  0.00    +0.019 C 
ATOM     17  C   UNL     1      34.397 -16.383 -22.336  0.00  0.00    +0.245 C 
ATOM     18  C   UNL     1      32.618 -13.165 -26.043  0.00  0.00    +0.002 C 
ATOM     19  C   UNL     1      33.033 -14.500 -26.181  0.00  0.00    +0.002 C 
BRANCH  17  20
ATOM     20  C   UNL     1      34.770 -16.676 -20.905  0.00  0.00    +0.089 C 
ATOM     21  C   UNL     1      35.642 -17.907 -20.841  0.00  0.00    +0.010 C 
ENDBRANCH  17  20
ENDBRANCH   2  10
BRANCH   1  22
ATOM     22  C   UNL     1      30.823  -7.832 -21.593  0.00  0.00    -0.076 C 
BRANCH  22  23
ATOM     23  C   UNL     1      30.746  -6.899 -22.815  0.00  0.00    -0.000 C 
BRANCH  23  24
ATOM     24  C   UNL     1      31.801  -5.730 -22.833  0.00  0.00    +0.115 C 
BRANCH  24  25
ATOM     25  C   UNL     1      31.167  -4.332 -22.601  0.00  0.00    -0.006 C 
ATOM     26  C   UNL     1      30.069  -4.257 -21.792  0.00  0.00    -0.003 C 
ATOM     27  C   UNL     1      31.743  -3.260 -23.220  0.00  0.00    -0.003 C 
ATOM     28  C   UNL     1      29.499  -3.002 -21.583  0.00  0.00    -0.000 C 
ATOM     29  C   UNL     1      31.173  -2.004 -23.011  0.00  0.00    -0.000 C 
ATOM     30  C   UNL     1      30.051  -1.876 -22.193  0.00  0.00    -0.000 C 
ENDBRANCH  24  25
BRANCH  24  31
ATOM     31  C   UNL     1      32.522  -5.743 -24.204  0.00  0.00    -0.006 C 
ATOM     32  C   UNL     1      31.755  -5.859 -25.330  0.00  0.00    -0.003 C 
ATOM     33  C   UNL     1      33.885  -5.639 -24.211  0.00  0.00    -0.003 C 
ATOM     34  C   UNL     1      32.405  -5.871 -26.564  0.00  0.00    -0.000 C 
ATOM     35  C   UNL     1      34.535  -5.652 -25.446  0.00  0.00    -0.000 C 
ATOM     36  C   UNL     1      33.795  -5.768 -26.622  0.00  0.00    -0.000 C 
ENDBRANCH  24  31
BRANCH  24  38
ATOM     37  N   UNL     1      33.414  -6.159 -20.768  0.00  0.00    -0.195 NA
ATOM     38  C   UNL     1      32.716  -5.974 -21.676  0.00  0.00    +0.079 C 
ENDBRANCH  24  38
ENDBRANCH  23  24
ENDBRANCH  22  23
ENDBRANCH   1  22
TORSDOF 8
ENDMDL
MODEL 4
REMARK VINA RESULT:     -10.4      7.960     13.497
REMARK  Name = 61791
REMARK  8 active torsions:
REMARK  status: ('A' for Active; 'I' for Inactive)
REMARK    1  A    between atoms: N_1  and  C_22
REMARK    2  A    between atoms: C_2  and  N_10
REMARK    3  A    between atoms: C_17  and  C_20
REMARK    4  A    between atoms: C_22  and  C_23
REMARK    5  A    between atoms: C_23  and  C_24
REMARK    6  A    between atoms: C_24  and  C_25
REMARK    7  A    between atoms: C_24  and  C_31
REMARK    8  A    between atoms: C_24  and  C_38
REMARK                            x       y       z     vdW  Elec       q    Type
REMARK                         _______ _______ _______ _____ _____    ______ ____
ROOT
ATOM      1  N   UNL     1      31.391  -8.740 -22.293  0.00  0.00    +0.387 N 
ATOM      2  C   UNL     1      32.860 -11.254 -22.004  0.00  0.00    +0.086 C 
ATOM      3  C   UNL     1      31.377 -11.130 -21.655  0.00  0.00    -0.000 C 
ATOM      4  C   UNL     1      33.250 -10.195 -23.035  0.00  0.00    -0.000 C 
ATOM      5  C   UNL     1      31.021  -9.700 -21.245  0.00  0.00    -0.075 C 
ATOM      6  C   UNL     1      32.832  -8.795 -22.579  0.00  0.00    -0.075 C 
ATOM      7  H   UNL     1      30.891  -8.995 -23.145  0.00  0.00    -0.080 HD
ENDROOT
BRANCH   2  10
ATOM      8  O   UNL     1      33.877 -13.638 -20.499  0.00  0.00    -0.246 OA
ATOM      9  O   UNL     1      34.378 -16.988 -23.207  0.00  0.00    -0.271 OA
ATOM     10  N   UNL     1      33.172 -12.577 -22.484  0.00  0.00    -0.282 N 
ATOM     11  N   UNL     1      33.818 -14.782 -22.626  0.00  0.00    -0.229 N 
ATOM     12  C   UNL     1      33.038 -12.982 -23.815  0.00  0.00    +0.080 A 
ATOM     13  C   UNL     1      33.652 -13.660 -21.702  0.00  0.00    +0.337 A 
ATOM     14  C   UNL     1      33.428 -14.319 -23.915  0.00  0.00    +0.087 A 
ATOM     15  C   UNL     1      32.605 -12.252 -24.908  0.00  0.00    +0.019 C 
ATOM     16  C   UNL     1      33.390 -14.968 -25.136  0.00  0.00    +0.019 C 
ATOM     17  C   UNL     1      34.266 -16.091 -22.373  0.00  0.00    +0.245 C 
ATOM     18  C   UNL     1      32.566 -12.901 -26.141  0.00  0.00    +0.002 C 
ATOM     19  C   UNL     1      32.955 -14.246 -26.255  0.00  0.00    +0.002 C 
BRANCH  17  20
ATOM     20  C   UNL     1      34.627 -16.368 -20.935  0.00  0.00    +0.089 C 
ATOM     21  C   UNL     1      35.354 -17.686 -20.831  0.00  0.00    +0.010 C 
ENDBRANCH  17  20
ENDBRANCH   2  10
BRANCH   1  22
ATOM     22  C   UNL     1      30.998  -7.385 -21.908  0.00  0.00    -0.076 C 
BRANCH  22  23
ATOM     23  C   UNL     1      32.014  -6.367 -22.459  0.00  0.00    -0.000 C 
BRANCH  23  24
ATOM     24  C   UNL     1      31.565  -5.609 -23.763  0.00  0.00    +0.115 C 
BRANCH  24  25
ATOM     25  C   UNL     1      32.720  -5.410 -24.781  0.00  0.00    -0.006 C 
ATOM     26  C   UNL     1      32.478  -5.724 -26.088  0.00  0.00    -0.003 C 
ATOM     27  C   UNL     1      33.910  -4.935 -24.310  0.00  0.00    -0.003 C 
ATOM     28  C   UNL     1      33.515  -5.546 -27.003  0.00  0.00    -0.000 C 
ATOM     29  C   UNL     1      34.947  -4.756 -25.225  0.00  0.00    -0.000 C 
ATOM     30  C   UNL     1      34.750  -5.062 -26.571  0.00  0.00    -0.000 C 
ENDBRANCH  24  25
BRANCH  24  31
ATOM     31  C   UNL     1      30.999  -4.226 -23.355  0.00  0.00    -0.006 C 
ATOM     32  C   UNL     1      30.635  -4.043 -22.050  0.00  0.00    -0.003 C 
ATOM     33  C   UNL     1      30.893  -3.267 -24.323  0.00  0.00    -0.003 C 
ATOM     34  C   UNL     1      30.125  -2.797 -21.683  0.00  0.00    -0.000 C 
ATOM     35  C   UNL     1      30.383  -2.022 -23.957  0.00  0.00    -0.000 C 
ATOM     36  C   UNL     1      29.999  -1.787 -22.636  0.00  0.00    -0.000 C 
ENDBRANCH  24  31
BRANCH  24  38
ATOM     37  N   UNL     1      29.790  -7.187 -24.953  0.00  0.00    -0.195 NA
ATOM     38  C   UNL     1      30.560  -6.490 -24.433  0.00  0.00    +0.079 C 
ENDBRANCH  24  38
ENDBRANCH  23  24
ENDBRANCH  22  23
ENDBRANCH   1  22
TORSDOF 8
ENDMDL
MODEL 5
REMARK VINA RESULT:     -10.3      1.302      2.170
REMARK  Name = 61791
REMARK  8 active torsions:
REMARK  status: ('A' for Active; 'I' for Inactive)
REMARK    1  A    between atoms: N_1  and  C_22
REMARK    2  A    between atoms: C_2  and  N_10
REMARK    3  A    between atoms: C_17  and  C_20
REMARK    4  A    between atoms: C_22  and  C_23
REMARK    5  A    between atoms: C_23  and  C_24
REMARK    6  A    between atoms: C_24  and  C_25
REMARK    7  A    between atoms: C_24  and  C_31
REMARK    8  A    between atoms: C_24  and  C_38
REMARK                            x       y       z     vdW  Elec       q    Type
REMARK                         _______ _______ _______ _____ _____    ______ ____
ROOT
ATOM      1  N   UNL     1      34.696 -21.138 -19.656  0.00  0.00    +0.387 N 
ATOM      2  C   UNL     1      35.182 -21.549 -16.801  0.00  0.00    +0.086 C 
ATOM      3  C   UNL     1      33.980 -22.161 -17.520  0.00  0.00    -0.000 C 
ATOM      4  C   UNL     1      36.317 -21.290 -17.792  0.00  0.00    -0.000 C 
ATOM      5  C   UNL     1      33.571 -21.318 -18.730  0.00  0.00    -0.075 C 
ATOM      6  C   UNL     1      35.829 -20.477 -18.993  0.00  0.00    -0.075 C 
ATOM      7  H   UNL     1      35.005 -22.061 -19.960  0.00  0.00    -0.080 HD
ENDROOT
BRANCH   2  10
ATOM      8  O   UNL     1      37.948 -22.493 -16.132  0.00  0.00    -0.246 OA
ATOM      9  O   UNL     1      37.836 -24.999 -12.595  0.00  0.00    -0.271 OA
ATOM     10  N   UNL     1      35.627 -22.395 -15.721  0.00  0.00    -0.282 N 
ATOM     11  N   UNL     1      36.913 -23.644 -14.278  0.00  0.00    -0.229 N 
ATOM     12  C   UNL     1      34.782 -22.943 -14.753  0.00  0.00    +0.080 A 
ATOM     13  C   UNL     1      36.965 -22.799 -15.471  0.00  0.00    +0.337 A 
ATOM     14  C   UNL     1      35.550 -23.704 -13.870  0.00  0.00    +0.087 A 
ATOM     15  C   UNL     1      33.411 -22.809 -14.617  0.00  0.00    +0.019 C 
ATOM     16  C   UNL     1      34.951 -24.360 -12.809  0.00  0.00    +0.019 C 
ATOM     17  C   UNL     1      37.956 -24.303 -13.602  0.00  0.00    +0.245 C 
ATOM     18  C   UNL     1      32.802 -23.468 -13.550  0.00  0.00    +0.002 C 
ATOM     19  C   UNL     1      33.564 -24.236 -12.654  0.00  0.00    +0.002 C 
BRANCH  17  20
ATOM     20  C   UNL     1      39.324 -24.103 -14.204  0.00  0.00    +0.089 C 
ATOM     21  C   UNL     1      39.863 -25.420 -14.708  0.00  0.00    +0.010 C 
ENDBRANCH  17  20
ENDBRANCH   2  10
BRANCH   1  22
ATOM     22  C   UNL     1      34.276 -20.374 -20.831  0.00  0.00    -0.076 C 
BRANCH  22  23
ATOM     23  C   UNL     1      34.458 -18.868 -20.571  0.00  0.00    -0.000 C 
BRANCH  23  24
ATOM     24  C   UNL     1      34.955 -18.030 -21.807  0.00  0.00    +0.115 C 
BRANCH  24  25
ATOM     25  C   UNL     1      34.544 -16.534 -21.734  0.00  0.00    -0.006 C 
ATOM     26  C   UNL     1      34.173 -16.034 -20.519  0.00  0.00    -0.003 C 
ATOM     27  C   UNL     1      34.578 -15.807 -22.890  0.00  0.00    -0.003 C 
ATOM     28  C   UNL     1      33.804 -14.691 -20.453  0.00  0.00    -0.000 C 
ATOM     29  C   UNL     1      34.209 -14.463 -22.824  0.00  0.00    -0.000 C 
ATOM     30  C   UNL     1      33.822 -13.906 -21.606  0.00  0.00    -0.000 C 
ENDBRANCH  24  25
BRANCH  24  31
ATOM     31  C   UNL     1      34.367 -18.659 -23.095  0.00  0.00    -0.006 C 
ATOM     32  C   UNL     1      35.020 -19.730 -23.639  0.00  0.00    -0.003 C 
ATOM     33  C   UNL     1      33.230 -18.108 -23.615  0.00  0.00    -0.003 C 
ATOM     34  C   UNL     1      34.490 -20.297 -24.799  0.00  0.00    -0.000 C 
ATOM     35  C   UNL     1      32.700 -18.674 -24.775  0.00  0.00    -0.000 C 
ATOM     36  C   UNL     1      33.331 -19.768 -25.367  0.00  0.00    -0.000 C 
ENDBRANCH  24  31
BRANCH  24  38
ATOM     37  N   UNL     1      37.608 -18.073 -21.705  0.00  0.00    -0.195 NA
ATOM     38  C   UNL     1      36.449 -18.058 -21.758  0.00  0.00    +0.079 C 
ENDBRANCH  24  38
ENDBRANCH  23  24
ENDBRANCH  22  23
ENDBRANCH   1  22
TORSDOF 8
ENDMDL
MODEL 6
REMARK VINA RESULT:      -9.9      1.070      2.763
REMARK  Name = 61791
REMARK  8 active torsions:
REMARK  status: ('A' for Active; 'I' for Inactive)
REMARK    1  A    between atoms: N_1  and  C_22
REMARK    2  A    between atoms: C_2  and  N_10
REMARK    3  A    between atoms: C_17  and  C_20
REMARK    4  A    between atoms: C_22  and  C_23
REMARK    5  A    between atoms: C_23  and  C_24
REMARK    6  A    between atoms: C_24  and  C_25
REMARK    7  A    between atoms: C_24  and  C_31
REMARK    8  A    between atoms: C_24  and  C_38
REMARK                            x       y       z     vdW  Elec       q    Type
REMARK                         _______ _______ _______ _____ _____    ______ ____
ROOT
ATOM      1  N   UNL     1      34.592 -20.618 -19.241  0.00  0.00    +0.387 N 
ATOM      2  C   UNL     1      35.243 -22.557 -17.149  0.00  0.00    +0.086 C 
ATOM      3  C   UNL     1      36.014 -21.248 -17.317  0.00  0.00    -0.000 C 
ATOM      4  C   UNL     1      33.832 -22.417 -17.720  0.00  0.00    -0.000 C 
ATOM      5  C   UNL     1      35.974 -20.763 -18.768  0.00  0.00    -0.075 C 
ATOM      6  C   UNL     1      33.865 -21.893 -19.158  0.00  0.00    -0.075 C 
ATOM      7  H   UNL     1      34.120 -19.947 -18.634  0.00  0.00    -0.080 HD
ENDROOT
BRANCH   2  10
ATOM      8  O   UNL     1      32.905 -22.703 -15.279  0.00  0.00    -0.246 OA
ATOM      9  O   UNL     1      34.216 -24.089 -11.384  0.00  0.00    -0.271 OA
ATOM     10  N   UNL     1      35.199 -22.959 -15.765  0.00  0.00    -0.282 N 
ATOM     11  N   UNL     1      34.498 -23.469 -13.633  0.00  0.00    -0.229 N 
ATOM     12  C   UNL     1      36.313 -23.374 -15.031  0.00  0.00    +0.080 A 
ATOM     13  C   UNL     1      34.043 -23.002 -14.942  0.00  0.00    +0.337 A 
ATOM     14  C   UNL     1      35.902 -23.686 -13.735  0.00  0.00    +0.087 A 
ATOM     15  C   UNL     1      37.631 -23.485 -15.438  0.00  0.00    +0.019 C 
ATOM     16  C   UNL     1      36.819 -24.126 -12.798  0.00  0.00    +0.019 C 
ATOM     17  C   UNL     1      33.761 -23.689 -12.455  0.00  0.00    +0.245 C 
ATOM     18  C   UNL     1      38.561 -23.927 -14.498  0.00  0.00    +0.002 C 
ATOM     19  C   UNL     1      38.159 -24.245 -13.189  0.00  0.00    +0.002 C 
BRANCH  17  20
ATOM     20  C   UNL     1      32.286 -23.397 -12.570  0.00  0.00    +0.089 C 
ATOM     21  C   UNL     1      31.553 -24.627 -13.049  0.00  0.00    +0.010 C 
ENDBRANCH  17  20
ENDBRANCH   2  10
BRANCH   1  22
ATOM     22  C   UNL     1      34.570 -20.106 -20.611  0.00  0.00    -0.076 C 
BRANCH  22  23
ATOM     23  C   UNL     1      34.327 -18.586 -20.599  0.00  0.00    -0.000 C 
BRANCH  23  24
ATOM     24  C   UNL     1      34.863 -17.811 -21.860  0.00  0.00    +0.115 C 
BRANCH  24  25
ATOM     25  C   UNL     1      34.490 -16.304 -21.855  0.00  0.00    -0.006 C 
ATOM     26  C   UNL     1      34.523 -15.635 -23.045  0.00  0.00    -0.003 C 
ATOM     27  C   UNL     1      34.150 -15.736 -20.660  0.00  0.00    -0.003 C 
ATOM     28  C   UNL     1      34.188 -14.281 -23.040  0.00  0.00    -0.000 C 
ATOM     29  C   UNL     1      33.815 -14.382 -20.655  0.00  0.00    -0.000 C 
ATOM     30  C   UNL     1      33.834 -13.655 -21.845  0.00  0.00    -0.000 C 
ENDBRANCH  24  25
BRANCH  24  31
ATOM     31  C   UNL     1      34.279 -18.478 -23.130  0.00  0.00    -0.006 C 
ATOM     32  C   UNL     1      34.919 -19.580 -23.626  0.00  0.00    -0.003 C 
ATOM     33  C   UNL     1      33.158 -17.927 -23.685  0.00  0.00    -0.003 C 
ATOM     34  C   UNL     1      34.392 -20.180 -24.770  0.00  0.00    -0.000 C 
ATOM     35  C   UNL     1      32.632 -18.526 -24.829  0.00  0.00    -0.000 C 
ATOM     36  C   UNL     1      33.249 -19.654 -25.372  0.00  0.00    -0.000 C 
ENDBRANCH  24  31
BRANCH  24  38
ATOM     37  N   UNL     1      37.513 -17.940 -21.733  0.00  0.00    -0.195 NA
ATOM     38  C   UNL     1      36.355 -17.874 -21.786  0.00  0.00    +0.079 C 
ENDBRANCH  24  38
ENDBRANCH  23  24
ENDBRANCH  22  23
ENDBRANCH   1  22
TORSDOF 8
ENDMDL
MODEL 7
REMARK VINA RESULT:      -8.9      7.006     12.249
REMARK  Name = 61791
REMARK  8 active torsions:
REMARK  status: ('A' for Active; 'I' for Inactive)
REMARK    1  A    between atoms: N_1  and  C_22
REMARK    2  A    between atoms: C_2  and  N_10
REMARK    3  A    between atoms: C_17  and  C_20
REMARK    4  A    between atoms: C_22  and  C_23
REMARK    5  A    between atoms: C_23  and  C_24
REMARK    6  A    between atoms: C_24  and  C_25
REMARK    7  A    between atoms: C_24  and  C_31
REMARK    8  A    between atoms: C_24  and  C_38
REMARK                            x       y       z     vdW  Elec       q    Type
REMARK                         _______ _______ _______ _____ _____    ______ ____
ROOT
ATOM      1  N   UNL     1      31.281 -10.008 -21.729  0.00  0.00    +0.387 N 
ATOM      2  C   UNL     1      33.021 -12.359 -21.657  0.00  0.00    +0.086 C 
ATOM      3  C   UNL     1      31.591 -12.385 -21.118  0.00  0.00    -0.000 C 
ATOM      4  C   UNL     1      33.165 -11.269 -22.720  0.00  0.00    -0.000 C 
ATOM      5  C   UNL     1      31.149 -10.996 -20.651  0.00  0.00    -0.075 C 
ATOM      6  C   UNL     1      32.670  -9.918 -22.200  0.00  0.00    -0.075 C 
ATOM      7  H   UNL     1      30.703 -10.316 -22.511  0.00  0.00    -0.080 HD
ENDROOT
BRANCH   2  10
ATOM      8  O   UNL     1      34.201 -14.728 -20.250  0.00  0.00    -0.246 OA
ATOM      9  O   UNL     1      34.846 -17.953 -23.077  0.00  0.00    -0.271 OA
ATOM     10  N   UNL     1      33.400 -13.645 -22.186  0.00  0.00    -0.282 N 
ATOM     11  N   UNL     1      34.170 -15.802 -22.413  0.00  0.00    -0.229 N 
ATOM     12  C   UNL     1      33.266 -14.014 -23.527  0.00  0.00    +0.080 A 
ATOM     13  C   UNL     1      33.957 -14.723 -21.449  0.00  0.00    +0.337 A 
ATOM     14  C   UNL     1      33.730 -15.321 -23.679  0.00  0.00    +0.087 A 
ATOM     15  C   UNL     1      32.770 -13.275 -24.588  0.00  0.00    +0.019 C 
ATOM     16  C   UNL     1      33.707 -15.932 -24.920  0.00  0.00    +0.019 C 
ATOM     17  C   UNL     1      34.698 -17.091 -22.212  0.00  0.00    +0.245 C 
ATOM     18  C   UNL     1      32.746 -13.885 -25.842  0.00  0.00    +0.002 C 
ATOM     19  C   UNL     1      33.210 -15.201 -26.007  0.00  0.00    +0.002 C 
BRANCH  17  20
ATOM     20  C   UNL     1      35.100 -17.393 -20.790  0.00  0.00    +0.089 C 
ATOM     21  C   UNL     1      35.973 -18.624 -20.752  0.00  0.00    +0.010 C 
ENDBRANCH  17  20
ENDBRANCH   2  10
BRANCH   1  22
ATOM     22  C   UNL     1      30.807  -8.698 -21.283  0.00  0.00    -0.076 C 
BRANCH  22  23
ATOM     23  C   UNL     1      30.838  -7.701 -22.456  0.00  0.00    -0.000 C 
BRANCH  23  24
ATOM     24  C   UNL     1      31.825  -6.488 -22.279  0.00  0.00    +0.115 C 
BRANCH  24  25
ATOM     25  C   UNL     1      31.130  -5.108 -22.436  0.00  0.00    -0.006 C 
ATOM     26  C   UNL     1      30.781  -4.711 -23.695  0.00  0.00    -0.003 C 
ATOM     27  C   UNL     1      30.910  -4.374 -21.307  0.00  0.00    -0.003 C 
ATOM     28  C   UNL     1      30.157  -3.471 -23.836  0.00  0.00    -0.000 C 
ATOM     29  C   UNL     1      30.286  -3.135 -21.448  0.00  0.00    -0.000 C 
ATOM     30  C   UNL     1      29.909  -2.684 -22.713  0.00  0.00    -0.000 C 
ENDBRANCH  24  25
BRANCH  24  31
ATOM     31  C   UNL     1      32.952  -6.616 -23.334  0.00  0.00    -0.006 C 
ATOM     32  C   UNL     1      33.898  -7.585 -23.146  0.00  0.00    -0.003 C 
ATOM     33  C   UNL     1      32.938  -5.752 -24.394  0.00  0.00    -0.003 C 
ATOM     34  C   UNL     1      34.913  -7.700 -24.097  0.00  0.00    -0.000 C 
ATOM     35  C   UNL     1      33.953  -5.867 -25.344  0.00  0.00    -0.000 C 
ATOM     36  C   UNL     1      34.940  -6.841 -25.195  0.00  0.00    -0.000 C 
ENDBRANCH  24  31
BRANCH  24  38
ATOM     37  N   UNL     1      32.713  -6.591 -19.779  0.00  0.00    -0.195 NA
ATOM     38  C   UNL     1      32.319  -6.552 -20.870  0.00  0.00    +0.079 C 
ENDBRANCH  24  38
ENDBRANCH  23  24
ENDBRANCH  22  23
ENDBRANCH   1  22
TORSDOF 8
ENDMDL
MODEL 8
REMARK VINA RESULT:      -8.9      5.949     11.830
REMARK  Name = 61791
REMARK  8 active torsions:
REMARK  status: ('A' for Active; 'I' for Inactive)
REMARK    1  A    between atoms: N_1  and  C_22
REMARK    2  A    between atoms: C_2  and  N_10
REMARK    3  A    between atoms: C_17  and  C_20
REMARK    4  A    between atoms: C_22  and  C_23
REMARK    5  A    between atoms: C_23  and  C_24
REMARK    6  A    between atoms: C_24  and  C_25
REMARK    7  A    between atoms: C_24  and  C_31
REMARK    8  A    between atoms: C_24  and  C_38
REMARK                            x       y       z     vdW  Elec       q    Type
REMARK                         _______ _______ _______ _____ _____    ______ ____
ROOT
ATOM      1  N   UNL     1      33.423 -14.630 -20.661  0.00  0.00    +0.387 N 
ATOM      2  C   UNL     1      32.375 -12.143 -21.791  0.00  0.00    +0.086 C 
ATOM      3  C   UNL     1      32.068 -12.583 -20.359  0.00  0.00    -0.000 C 
ATOM      4  C   UNL     1      33.689 -12.763 -22.264  0.00  0.00    -0.000 C 
ATOM      5  C   UNL     1      32.123 -14.106 -20.223  0.00  0.00    -0.075 C 
ATOM      6  C   UNL     1      33.691 -14.280 -22.063  0.00  0.00    -0.075 C 
ATOM      7  H   UNL     1      34.147 -14.199 -20.086  0.00  0.00    -0.080 HD
ENDROOT
BRANCH   2  10
ATOM      8  O   UNL     1      33.567 -10.421 -23.935  0.00  0.00    -0.246 OA
ATOM      9  O   UNL     1      32.974  -6.236 -22.966  0.00  0.00    -0.271 OA
ATOM     10  N   UNL     1      32.418 -10.706 -21.894  0.00  0.00    -0.282 N 
ATOM     11  N   UNL     1      32.800  -8.552 -22.611  0.00  0.00    -0.229 N 
ATOM     12  C   UNL     1      31.874  -9.833 -20.949  0.00  0.00    +0.080 A 
ATOM     13  C   UNL     1      33.006  -9.960 -22.950  0.00  0.00    +0.337 A 
ATOM     14  C   UNL     1      32.099  -8.522 -21.372  0.00  0.00    +0.087 A 
ATOM     15  C   UNL     1      31.211 -10.128 -19.771  0.00  0.00    +0.019 C 
ATOM     16  C   UNL     1      31.656  -7.456 -20.609  0.00  0.00    +0.019 C 
ATOM     17  C   UNL     1      33.185  -7.397 -23.314  0.00  0.00    +0.245 C 
ATOM     18  C   UNL     1      30.763  -9.058 -18.997  0.00  0.00    +0.002 C 
ATOM     19  C   UNL     1      30.983  -7.734 -19.412  0.00  0.00    +0.002 C 
BRANCH  17  20
ATOM     20  C   UNL     1      33.917  -7.659 -24.607  0.00  0.00    +0.089 C 
ATOM     21  C   UNL     1      34.355  -6.354 -25.225  0.00  0.00    +0.010 C 
ENDBRANCH  17  20
ENDBRANCH   2  10
BRANCH   1  22
ATOM     22  C   UNL     1      33.479 -16.080 -20.477  0.00  0.00    -0.076 C 
BRANCH  22  23
ATOM     23  C   UNL     1      34.917 -16.583 -20.700  0.00  0.00    -0.000 C 
BRANCH  23  24
ATOM     24  C   UNL     1      35.043 -17.895 -21.560  0.00  0.00    +0.115 C 
BRANCH  24  25
ATOM     25  C   UNL     1      34.270 -17.820 -22.904  0.00  0.00    -0.006 C 
ATOM     26  C   UNL     1      33.617 -18.943 -23.327  0.00  0.00    -0.003 C 
ATOM     27  C   UNL     1      34.289 -16.636 -23.584  0.00  0.00    -0.003 C 
ATOM     28  C   UNL     1      32.923 -18.875 -24.535  0.00  0.00    -0.000 C 
ATOM     29  C   UNL     1      33.594 -16.569 -24.792  0.00  0.00    -0.000 C 
ATOM     30  C   UNL     1      32.911 -17.689 -25.267  0.00  0.00    -0.000 C 
ENDBRANCH  24  25
BRANCH  24  31
ATOM     31  C   UNL     1      34.502 -19.082 -20.724  0.00  0.00    -0.006 C 
ATOM     32  C   UNL     1      35.409 -19.892 -20.099  0.00  0.00    -0.003 C 
ATOM     33  C   UNL     1      33.147 -19.254 -20.660  0.00  0.00    -0.003 C 
ATOM     34  C   UNL     1      34.921 -20.960 -19.347  0.00  0.00    -0.000 C 
ATOM     35  C   UNL     1      32.659 -20.324 -19.908  0.00  0.00    -0.000 C 
ATOM     36  C   UNL     1      33.547 -21.177 -19.252  0.00  0.00    -0.000 C 
ENDBRANCH  24  31
BRANCH  24  38
ATOM     37  N   UNL     1      37.615 -18.137 -22.175  0.00  0.00    -0.195 NA
ATOM     38  C   UNL     1      36.490 -18.026 -21.913  0.00  0.00    +0.079 C 
ENDBRANCH  24  38
ENDBRANCH  23  24
ENDBRANCH  22  23
ENDBRANCH   1  22
TORSDOF 8
ENDMDL
MODEL 9
REMARK VINA RESULT:      -8.8      7.572     13.204
REMARK  Name = 61791
REMARK  8 active torsions:
REMARK  status: ('A' for Active; 'I' for Inactive)
REMARK    1  A    between atoms: N_1  and  C_22
REMARK    2  A    between atoms: C_2  and  N_10
REMARK    3  A    between atoms: C_17  and  C_20
REMARK    4  A    between atoms: C_22  and  C_23
REMARK    5  A    between atoms: C_23  and  C_24
REMARK    6  A    between atoms: C_24  and  C_25
REMARK    7  A    between atoms: C_24  and  C_31
REMARK    8  A    between atoms: C_24  and  C_38
REMARK                            x       y       z     vdW  Elec       q    Type
REMARK                         _______ _______ _______ _____ _____    ______ ____
ROOT
ATOM      1  N   UNL     1      30.916  -9.027 -22.805  0.00  0.00    +0.387 N 
ATOM      2  C   UNL     1      32.511 -11.418 -22.258  0.00  0.00    +0.086 C 
ATOM      3  C   UNL     1      30.992 -11.394 -22.089  0.00  0.00    -0.000 C 
ATOM      4  C   UNL     1      32.947 -10.362 -23.273  0.00  0.00    -0.000 C 
ATOM      5  C   UNL     1      30.491  -9.983 -21.774  0.00  0.00    -0.075 C 
ATOM      6  C   UNL     1      32.381  -8.985 -22.919  0.00  0.00    -0.075 C 
ATOM      7  H   UNL     1      30.541  -9.341 -23.700  0.00  0.00    -0.080 HD
ENDROOT
BRANCH   2  10
ATOM      8  O   UNL     1      33.566 -13.657 -20.567  0.00  0.00    -0.246 OA
ATOM      9  O   UNL     1      34.579 -17.048 -23.074  0.00  0.00    -0.271 OA
ATOM     10  N   UNL     1      32.969 -12.728 -22.651  0.00  0.00    -0.282 N 
ATOM     11  N   UNL     1      33.796 -14.875 -22.640  0.00  0.00    -0.229 N 
ATOM     12  C   UNL     1      32.992 -13.189 -23.970  0.00  0.00    +0.080 A 
ATOM     13  C   UNL     1      33.457 -13.739 -21.783  0.00  0.00    +0.337 A 
ATOM     14  C   UNL     1      33.493 -14.492 -23.978  0.00  0.00    +0.087 A 
ATOM     15  C   UNL     1      32.607 -12.536 -25.128  0.00  0.00    +0.019 C 
ATOM     16  C   UNL     1      33.620 -15.184 -25.168  0.00  0.00    +0.019 C 
ATOM     17  C   UNL     1      34.320 -16.134 -22.293  0.00  0.00    +0.245 C 
ATOM     18  C   UNL     1      32.735 -13.228 -26.331  0.00  0.00    +0.002 C 
ATOM     19  C   UNL     1      33.236 -14.541 -26.352  0.00  0.00    +0.002 C 
BRANCH  17  20
ATOM     20  C   UNL     1      34.565 -16.329 -20.817  0.00  0.00    +0.089 C 
ATOM     21  C   UNL     1      35.239 -17.659 -20.580  0.00  0.00    +0.010 C 
ENDBRANCH  17  20
ENDBRANCH   2  10
BRANCH   1  22
ATOM     22  C   UNL     1      30.388  -7.694 -22.517  0.00  0.00    -0.076 C 
BRANCH  22  23
ATOM     23  C   UNL     1      30.596  -6.773 -23.733  0.00  0.00    -0.000 C 
BRANCH  23  24
ATOM     24  C   UNL     1      31.427  -5.466 -23.450  0.00  0.00    +0.115 C 
BRANCH  24  25
ATOM     25  C   UNL     1      32.715  -5.364 -24.311  0.00  0.00    -0.006 C 
ATOM     26  C   UNL     1      33.265  -6.526 -24.773  0.00  0.00    -0.003 C 
ATOM     27  C   UNL     1      33.222  -4.120 -24.555  0.00  0.00    -0.003 C 
ATOM     28  C   UNL     1      34.422  -6.434 -25.547  0.00  0.00    -0.000 C 
ATOM     29  C   UNL     1      34.379  -4.029 -25.329  0.00  0.00    -0.000 C 
ATOM     30  C   UNL     1      34.979  -5.186 -25.825  0.00  0.00    -0.000 C 
ENDBRANCH  24  25
BRANCH  24  31
ATOM     31  C   UNL     1      31.812  -5.446 -21.950  0.00  0.00    -0.006 C 
ATOM     32  C   UNL     1      32.918  -6.153 -21.563  0.00  0.00    -0.003 C 
ATOM     33  C   UNL     1      31.025  -4.725 -21.096  0.00  0.00    -0.003 C 
ATOM     34  C   UNL     1      33.264  -6.135 -20.212  0.00  0.00    -0.000 C 
ATOM     35  C   UNL     1      31.371  -4.708 -19.745  0.00  0.00    -0.000 C 
ATOM     36  C   UNL     1      32.491  -5.413 -19.303  0.00  0.00    -0.000 C 
ENDBRANCH  24  31
BRANCH  24  38
ATOM     37  N   UNL     1      29.873  -3.441 -24.183  0.00  0.00    -0.195 NA
ATOM     38  C   UNL     1      30.557  -4.320 -23.857  0.00  0.00    +0.079 C 
ENDBRANCH  24  38
ENDBRANCH  23  24
ENDBRANCH  22  23
ENDBRANCH   1  22
TORSDOF 8
ENDMDL
