MODEL 1
REMARK VINA RESULT:     -10.9      0.000      0.000
REMARK  Name = 9925908
REMARK  4 active torsions:
REMARK  status: ('A' for Active; 'I' for Inactive)
REMARK    1  A    between atoms: C_3  and  C_13
REMARK    2  A    between atoms: C_6  and  C_24
REMARK    3  A    between atoms: N_12  and  C_19
REMARK    4  A    between atoms: C_19  and  C_20
REMARK                            x       y       z     vdW  Elec       q    Type
REMARK                         _______ _______ _______ _____ _____    ______ ____
ROOT
ATOM      1  N   UNL     1      33.271 -22.634 -16.619  0.00  0.00    -0.318 N 
ATOM      2  N   UNL     1      31.303 -22.199 -17.557  0.00  0.00    -0.318 N 
ATOM      3  C   UNL     1      32.604 -22.143 -17.701  0.00  0.00    +0.143 C 
ATOM      4  C   UNL     1      32.332 -23.039 -15.705  0.00  0.00    +0.059 C 
ATOM      5  C   UNL     1      31.112 -22.757 -16.314  0.00  0.00    +0.063 C 
ATOM      6  C   UNL     1      29.921 -23.056 -15.632  0.00  0.00    +0.067 C 
ATOM      7  C   UNL     1      32.442 -23.611 -14.437  0.00  0.00    +0.016 C 
ATOM      8  C   UNL     1      30.007 -23.631 -14.357  0.00  0.00    +0.006 C 
ATOM      9  C   UNL     1      31.246 -23.903 -13.773  0.00  0.00    +0.001 C 
ATOM     10  H   UNL     1      34.249 -22.688 -16.513  0.00  0.00    +0.148 HD
ATOM     11  H   UNL     1      30.615 -21.906 -18.197  0.00  0.00    +0.148 HD
ENDROOT
BRANCH   3  13
ATOM     12  N   UNL     1      34.818 -19.504 -20.332  0.00  0.00    +0.387 N 
ATOM     13  C   UNL     1      33.356 -21.605 -18.907  0.00  0.00    +0.033 C 
ATOM     14  C   UNL     1      34.811 -21.247 -18.574  0.00  0.00    -0.020 C 
ATOM     15  C   UNL     1      32.649 -20.399 -19.543  0.00  0.00    -0.020 C 
ATOM     16  C   UNL     1      35.531 -20.672 -19.796  0.00  0.00    -0.077 C 
ATOM     17  C   UNL     1      33.447 -19.854 -20.730  0.00  0.00    -0.077 C 
ATOM     18  H   UNL     1      34.761 -18.804 -19.591  0.00  0.00    -0.080 HD
BRANCH  12  19
ATOM     19  C   UNL     1      35.549 -18.933 -21.463  0.00  0.00    -0.077 C 
BRANCH  19  20
ATOM     20  C   UNL     1      35.327 -17.426 -21.545  0.00  0.00    -0.023 C 
ATOM     21  C   UNL     1      34.632 -17.000 -22.831  0.00  0.00    -0.002 C 
ENDBRANCH  19  20
ENDBRANCH  12  19
ENDBRANCH   3  13
BRANCH   6  24
ATOM     22  O   UNL     1      28.336 -21.646 -16.655  0.00  0.00    -0.270 OA
ATOM     23  N   UNL     1      27.722 -23.833 -16.334  0.00  0.00    -0.325 N 
ATOM     24  C   UNL     1      28.628 -22.780 -16.231  0.00  0.00    +0.244 C 
ATOM     25  H   UNL     1      26.836 -23.682 -16.736  0.00  0.00    +0.145 HD
ATOM     26  H   UNL     1      27.968 -24.728 -16.007  0.00  0.00    +0.145 HD
ENDBRANCH   6  24
TORSDOF 4
ENDMDL
MODEL 2
REMARK VINA RESULT:     -10.5      1.950      2.944
REMARK  Name = 9925908
REMARK  4 active torsions:
REMARK  status: ('A' for Active; 'I' for Inactive)
REMARK    1  A    between atoms: C_3  and  C_13
REMARK    2  A    between atoms: C_6  and  C_24
REMARK    3  A    between atoms: N_12  and  C_19
REMARK    4  A    between atoms: C_19  and  C_20
REMARK                            x       y       z     vdW  Elec       q    Type
REMARK                         _______ _______ _______ _____ _____    ______ ____
ROOT
ATOM      1  N   UNL     1      31.299 -22.259 -17.259  0.00  0.00    -0.318 N 
ATOM      2  N   UNL     1      33.330 -22.806 -16.540  0.00  0.00    -0.318 N 
ATOM      3  C   UNL     1      32.636 -22.279 -17.518  0.00  0.00    +0.143 C 
ATOM      4  C   UNL     1      31.112 -22.814 -16.019  0.00  0.00    +0.059 C 
ATOM      5  C   UNL     1      32.394 -23.147 -15.591  0.00  0.00    +0.063 C 
ATOM      6  C   UNL     1      32.562 -23.748 -14.333  0.00  0.00    +0.067 C 
ATOM      7  C   UNL     1      29.966 -23.047 -15.258  0.00  0.00    +0.016 C 
ATOM      8  C   UNL     1      31.425 -23.991 -13.551  0.00  0.00    +0.006 C 
ATOM      9  C   UNL     1      30.151 -23.645 -14.007  0.00  0.00    +0.001 C 
ATOM     10  H   UNL     1      30.596 -21.910 -17.853  0.00  0.00    +0.148 HD
ATOM     11  H   UNL     1      34.306 -22.929 -16.494  0.00  0.00    +0.148 HD
ENDROOT
BRANCH   3  13
ATOM     12  N   UNL     1      34.389 -19.610 -20.450  0.00  0.00    +0.387 N 
ATOM     13  C   UNL     1      33.190 -21.732 -18.824  0.00  0.00    +0.033 C 
ATOM     14  C   UNL     1      34.673 -21.352 -18.714  0.00  0.00    -0.020 C 
ATOM     15  C   UNL     1      32.377 -20.536 -19.344  0.00  0.00    -0.020 C 
ATOM     16  C   UNL     1      35.191 -20.767 -20.030  0.00  0.00    -0.077 C 
ATOM     17  C   UNL     1      32.979 -19.981 -20.637  0.00  0.00    -0.077 C 
ATOM     18  H   UNL     1      34.434 -18.911 -19.708  0.00  0.00    -0.080 HD
BRANCH  12  19
ATOM     19  C   UNL     1      34.932 -19.030 -21.678  0.00  0.00    -0.077 C 
BRANCH  19  20
ATOM     20  C   UNL     1      35.632 -17.707 -21.386  0.00  0.00    -0.023 C 
ATOM     21  C   UNL     1      34.672 -16.527 -21.343  0.00  0.00    -0.002 C 
ENDBRANCH  19  20
ENDBRANCH  12  19
ENDBRANCH   3  13
BRANCH   6  24
ATOM     22  O   UNL     1      34.829 -24.316 -14.629  0.00  0.00    -0.270 OA
ATOM     23  N   UNL     1      34.064 -24.202 -12.470  0.00  0.00    -0.325 N 
ATOM     24  C   UNL     1      33.882 -24.110 -13.848  0.00  0.00    +0.244 C 
ATOM     25  H   UNL     1      34.946 -24.444 -12.106  0.00  0.00    +0.145 HD
ATOM     26  H   UNL     1      33.312 -24.024 -11.860  0.00  0.00    +0.145 HD
ENDBRANCH   6  24
TORSDOF 4
ENDMDL
MODEL 3
REMARK VINA RESULT:     -10.5      7.608     10.255
REMARK  Name = 9925908
REMARK  4 active torsions:
REMARK  status: ('A' for Active; 'I' for Inactive)
REMARK    1  A    between atoms: C_3  and  C_13
REMARK    2  A    between atoms: C_6  and  C_24
REMARK    3  A    between atoms: N_12  and  C_19
REMARK    4  A    between atoms: C_19  and  C_20
REMARK                            x       y       z     vdW  Elec       q    Type
REMARK                         _______ _______ _______ _____ _____    ______ ____
ROOT
ATOM      1  N   UNL     1      33.003 -15.048 -23.844  0.00  0.00    -0.318 N 
ATOM      2  N   UNL     1      34.473 -15.244 -22.188  0.00  0.00    -0.318 N 
ATOM      3  C   UNL     1      33.647 -14.439 -22.809  0.00  0.00    +0.143 C 
ATOM      4  C   UNL     1      33.445 -16.346 -23.897  0.00  0.00    +0.059 C 
ATOM      5  C   UNL     1      34.361 -16.442 -22.854  0.00  0.00    +0.063 C 
ATOM      6  C   UNL     1      35.012 -17.666 -22.626  0.00  0.00    +0.067 C 
ATOM      7  C   UNL     1      33.131 -17.410 -24.743  0.00  0.00    +0.016 C 
ATOM      8  C   UNL     1      34.713 -18.749 -23.463  0.00  0.00    +0.006 C 
ATOM      9  C   UNL     1      33.788 -18.621 -24.501  0.00  0.00    +0.001 C 
ATOM     10  H   UNL     1      32.341 -14.633 -24.444  0.00  0.00    +0.148 HD
ATOM     11  H   UNL     1      35.047 -15.036 -21.415  0.00  0.00    +0.148 HD
ENDROOT
BRANCH   3  13
ATOM     12  N   UNL     1      31.739 -10.557 -22.533  0.00  0.00    +0.387 N 
ATOM     13  C   UNL     1      33.383 -12.981 -22.472  0.00  0.00    +0.033 C 
ATOM     14  C   UNL     1      32.148 -12.804 -21.578  0.00  0.00    -0.020 C 
ATOM     15  C   UNL     1      33.253 -12.108 -23.729  0.00  0.00    -0.020 C 
ATOM     16  C   UNL     1      31.884 -11.325 -21.288  0.00  0.00    -0.077 C 
ATOM     17  C   UNL     1      32.949 -10.653 -23.361  0.00  0.00    -0.077 C 
ATOM     18  H   UNL     1      30.964 -10.959 -23.061  0.00  0.00    -0.080 HD
BRANCH  12  19
ATOM     19  C   UNL     1      31.431  -9.158 -22.238  0.00  0.00    -0.077 C 
BRANCH  19  20
ATOM     20  C   UNL     1      31.123  -8.973 -20.756  0.00  0.00    -0.023 C 
ATOM     21  C   UNL     1      31.779  -7.732 -20.166  0.00  0.00    -0.002 C 
ENDBRANCH  19  20
ENDBRANCH  12  19
ENDBRANCH   3  13
BRANCH   6  24
ATOM     22  O   UNL     1      35.646 -17.651 -20.357  0.00  0.00    -0.270 OA
ATOM     23  N   UNL     1      37.281 -18.154 -21.885  0.00  0.00    -0.325 N 
ATOM     24  C   UNL     1      35.974 -17.811 -21.548  0.00  0.00    +0.244 C 
ATOM     25  H   UNL     1      37.959 -18.261 -21.179  0.00  0.00    +0.145 HD
ATOM     26  H   UNL     1      37.527 -18.291 -22.828  0.00  0.00    +0.145 HD
ENDBRANCH   6  24
TORSDOF 4
ENDMDL
MODEL 4
REMARK VINA RESULT:     -10.4      3.409      4.909
REMARK  Name = 9925908
REMARK  4 active torsions:
REMARK  status: ('A' for Active; 'I' for Inactive)
REMARK    1  A    between atoms: C_3  and  C_13
REMARK    2  A    between atoms: C_6  and  C_24
REMARK    3  A    between atoms: N_12  and  C_19
REMARK    4  A    between atoms: C_19  and  C_20
REMARK                            x       y       z     vdW  Elec       q    Type
REMARK                         _______ _______ _______ _____ _____    ______ ____
ROOT
ATOM      1  N   UNL     1      33.658 -21.244 -19.364  0.00  0.00    -0.318 N 
ATOM      2  N   UNL     1      35.743 -20.757 -18.768  0.00  0.00    -0.318 N 
ATOM      3  C   UNL     1      34.813 -20.592 -19.675  0.00  0.00    +0.143 C 
ATOM      4  C   UNL     1      33.854 -21.879 -18.164  0.00  0.00    +0.059 C 
ATOM      5  C   UNL     1      35.163 -21.560 -17.813  0.00  0.00    +0.063 C 
ATOM      6  C   UNL     1      35.691 -22.061 -16.612  0.00  0.00    +0.067 C 
ATOM      7  C   UNL     1      33.024 -22.681 -17.381  0.00  0.00    +0.016 C 
ATOM      8  C   UNL     1      34.875 -22.869 -15.809  0.00  0.00    +0.006 C 
ATOM      9  C   UNL     1      33.566 -23.171 -16.188  0.00  0.00    +0.001 C 
ATOM     10  H   UNL     1      32.833 -21.256 -19.902  0.00  0.00    +0.148 HD
ATOM     11  H   UNL     1      36.656 -20.387 -18.769  0.00  0.00    +0.148 HD
ENDROOT
BRANCH   3  13
ATOM     12  N   UNL     1      34.506 -17.357 -22.544  0.00  0.00    +0.387 N 
ATOM     13  C   UNL     1      34.935 -19.781 -20.955  0.00  0.00    +0.033 C 
ATOM     14  C   UNL     1      35.778 -18.512 -20.762  0.00  0.00    -0.020 C 
ATOM     15  C   UNL     1      33.565 -19.417 -21.545  0.00  0.00    -0.020 C 
ATOM     16  C   UNL     1      35.850 -17.696 -22.054  0.00  0.00    -0.077 C 
ATOM     17  C   UNL     1      33.717 -18.568 -22.810  0.00  0.00    -0.077 C 
ATOM     18  H   UNL     1      34.031 -16.826 -21.814  0.00  0.00    -0.080 HD
BRANCH  12  19
ATOM     19  C   UNL     1      34.594 -16.530 -23.747  0.00  0.00    -0.077 C 
BRANCH  19  20
ATOM     20  C   UNL     1      33.878 -15.200 -23.542  0.00  0.00    -0.023 C 
ATOM     21  C   UNL     1      34.007 -14.673 -22.119  0.00  0.00    -0.002 C 
ENDBRANCH  19  20
ENDBRANCH  12  19
ENDBRANCH   3  13
BRANCH   6  24
ATOM     22  O   UNL     1      37.512 -20.599 -16.304  0.00  0.00    -0.270 OA
ATOM     23  N   UNL     1      37.825 -22.786 -15.687  0.00  0.00    -0.325 N 
ATOM     24  C   UNL     1      37.050 -21.751 -16.207  0.00  0.00    +0.244 C 
ATOM     25  H   UNL     1      38.751 -22.611 -15.402  0.00  0.00    +0.145 HD
ATOM     26  H   UNL     1      37.446 -23.690 -15.603  0.00  0.00    +0.145 HD
ENDBRANCH   6  24
TORSDOF 4
ENDMDL
MODEL 5
REMARK VINA RESULT:     -10.3      2.461      3.732
REMARK  Name = 9925908
REMARK  4 active torsions:
REMARK  status: ('A' for Active; 'I' for Inactive)
REMARK    1  A    between atoms: C_3  and  C_13
REMARK    2  A    between atoms: C_6  and  C_24
REMARK    3  A    between atoms: N_12  and  C_19
REMARK    4  A    between atoms: C_19  and  C_20
REMARK                            x       y       z     vdW  Elec       q    Type
REMARK                         _______ _______ _______ _____ _____    ______ ____
ROOT
ATOM      1  N   UNL     1      36.372 -20.809 -18.419  0.00  0.00    -0.318 N 
ATOM      2  N   UNL     1      34.233 -21.398 -18.545  0.00  0.00    -0.318 N 
ATOM      3  C   UNL     1      35.217 -20.770 -19.139  0.00  0.00    +0.143 C 
ATOM      4  C   UNL     1      36.119 -21.514 -17.270  0.00  0.00    +0.059 C 
ATOM      5  C   UNL     1      34.777 -21.871 -17.373  0.00  0.00    +0.063 C 
ATOM      6  C   UNL     1      34.186 -22.618 -16.340  0.00  0.00    +0.067 C 
ATOM      7  C   UNL     1      36.923 -21.860 -16.184  0.00  0.00    +0.016 C 
ATOM      8  C   UNL     1      34.975 -22.977 -15.239  0.00  0.00    +0.006 C 
ATOM      9  C   UNL     1      36.319 -22.604 -15.165  0.00  0.00    +0.001 C 
ATOM     10  H   UNL     1      37.233 -20.403 -18.675  0.00  0.00    +0.148 HD
ATOM     11  H   UNL     1      33.309 -21.507 -18.866  0.00  0.00    +0.148 HD
ENDROOT
BRANCH   3  13
ATOM     12  N   UNL     1      34.651 -17.702 -22.148  0.00  0.00    +0.387 N 
ATOM     13  C   UNL     1      35.153 -20.058 -20.480  0.00  0.00    +0.033 C 
ATOM     14  C   UNL     1      36.141 -18.886 -20.564  0.00  0.00    -0.020 C 
ATOM     15  C   UNL     1      33.734 -19.576 -20.815  0.00  0.00    -0.020 C 
ATOM     16  C   UNL     1      36.026 -18.163 -21.908  0.00  0.00    -0.077 C 
ATOM     17  C   UNL     1      33.706 -18.828 -22.151  0.00  0.00    -0.077 C 
ATOM     18  H   UNL     1      34.392 -17.077 -21.385  0.00  0.00    -0.080 HD
BRANCH  12  19
ATOM     19  C   UNL     1      34.571 -16.966 -23.409  0.00  0.00    -0.077 C 
BRANCH  19  20
ATOM     20  C   UNL     1      34.442 -15.468 -23.153  0.00  0.00    -0.023 C 
ATOM     21  C   UNL     1      34.143 -15.142 -21.696  0.00  0.00    -0.002 C 
ENDBRANCH  19  20
ENDBRANCH  12  19
ENDBRANCH   3  13
BRANCH   6  24
ATOM     22  O   UNL     1      32.193 -23.107 -17.496  0.00  0.00    -0.270 OA
ATOM     23  N   UNL     1      32.139 -23.302 -15.211  0.00  0.00    -0.325 N 
ATOM     24  C   UNL     1      32.791 -23.013 -16.408  0.00  0.00    +0.244 C 
ATOM     25  H   UNL     1      31.193 -23.573 -15.219  0.00  0.00    +0.145 HD
ATOM     26  H   UNL     1      32.624 -23.236 -14.357  0.00  0.00    +0.145 HD
ENDBRANCH   6  24
TORSDOF 4
ENDMDL
MODEL 6
REMARK VINA RESULT:     -10.0      5.117      9.616
REMARK  Name = 9925908
REMARK  4 active torsions:
REMARK  status: ('A' for Active; 'I' for Inactive)
REMARK    1  A    between atoms: C_3  and  C_13
REMARK    2  A    between atoms: C_6  and  C_24
REMARK    3  A    between atoms: N_12  and  C_19
REMARK    4  A    between atoms: C_19  and  C_20
REMARK                            x       y       z     vdW  Elec       q    Type
REMARK                         _______ _______ _______ _____ _____    ______ ____
ROOT
ATOM      1  N   UNL     1      34.296 -15.467 -21.169  0.00  0.00    -0.318 N 
ATOM      2  N   UNL     1      33.974 -16.006 -23.301  0.00  0.00    -0.318 N 
ATOM      3  C   UNL     1      34.335 -16.442 -22.120  0.00  0.00    +0.143 C 
ATOM      4  C   UNL     1      33.878 -14.312 -21.779  0.00  0.00    +0.059 C 
ATOM      5  C   UNL     1      33.683 -14.675 -23.109  0.00  0.00    +0.063 C 
ATOM      6  C   UNL     1      33.245 -13.705 -24.026  0.00  0.00    +0.067 C 
ATOM      7  C   UNL     1      33.659 -13.022 -21.297  0.00  0.00    +0.016 C 
ATOM      8  C   UNL     1      33.019 -12.402 -23.564  0.00  0.00    +0.006 C 
ATOM      9  C   UNL     1      33.222 -12.069 -22.223  0.00  0.00    +0.001 C 
ATOM     10  H   UNL     1      34.527 -15.573 -20.217  0.00  0.00    +0.148 HD
ATOM     11  H   UNL     1      33.921 -16.518 -24.141  0.00  0.00    +0.148 HD
ENDROOT
BRANCH   3  13
ATOM     12  N   UNL     1      35.415 -19.980 -19.861  0.00  0.00    +0.387 N 
ATOM     13  C   UNL     1      34.762 -17.858 -21.773  0.00  0.00    +0.033 C 
ATOM     14  C   UNL     1      33.683 -18.616 -20.988  0.00  0.00    -0.020 C 
ATOM     15  C   UNL     1      36.093 -17.894 -21.008  0.00  0.00    -0.020 C 
ATOM     16  C   UNL     1      34.156 -20.024 -20.618  0.00  0.00    -0.077 C 
ATOM     17  C   UNL     1      36.479 -19.328 -20.638  0.00  0.00    -0.077 C 
ATOM     18  H   UNL     1      35.256 -19.426 -19.020  0.00  0.00    -0.080 HD
BRANCH  12  19
ATOM     19  C   UNL     1      35.822 -21.329 -19.468  0.00  0.00    -0.077 C 
BRANCH  19  20
ATOM     20  C   UNL     1      35.443 -21.606 -18.017  0.00  0.00    -0.023 C 
ATOM     21  C   UNL     1      36.555 -21.256 -17.039  0.00  0.00    -0.002 C 
ENDBRANCH  19  20
ENDBRANCH  12  19
ENDBRANCH   3  13
BRANCH   6  24
ATOM     22  O   UNL     1      33.083 -15.218 -25.825  0.00  0.00    -0.270 OA
ATOM     23  N   UNL     1      32.735 -13.001 -26.302  0.00  0.00    -0.325 N 
ATOM     24  C   UNL     1      33.027 -14.041 -25.422  0.00  0.00    +0.244 C 
ATOM     25  H   UNL     1      32.582 -13.192 -27.255  0.00  0.00    +0.145 HD
ATOM     26  H   UNL     1      32.681 -12.076 -25.971  0.00  0.00    +0.145 HD
ENDBRANCH   6  24
TORSDOF 4
ENDMDL
MODEL 7
REMARK VINA RESULT:      -9.8      4.835      6.362
REMARK  Name = 9925908
REMARK  4 active torsions:
REMARK  status: ('A' for Active; 'I' for Inactive)
REMARK    1  A    between atoms: C_3  and  C_13
REMARK    2  A    between atoms: C_6  and  C_24
REMARK    3  A    between atoms: N_12  and  C_19
REMARK    4  A    between atoms: C_19  and  C_20
REMARK                            x       y       z     vdW  Elec       q    Type
REMARK                         _______ _______ _______ _____ _____    ______ ____
ROOT
ATOM      1  N   UNL     1      35.259 -23.223 -14.424  0.00  0.00    -0.318 N 
ATOM      2  N   UNL     1      37.219 -23.203 -15.471  0.00  0.00    -0.318 N 
ATOM      3  C   UNL     1      35.978 -22.786 -15.495  0.00  0.00    +0.143 C 
ATOM      4  C   UNL     1      36.096 -23.982 -13.647  0.00  0.00    +0.059 C 
ATOM      5  C   UNL     1      37.314 -23.954 -14.322  0.00  0.00    +0.063 C 
ATOM      6  C   UNL     1      38.411 -24.647 -13.784  0.00  0.00    +0.067 C 
ATOM      7  C   UNL     1      35.900 -24.668 -12.449  0.00  0.00    +0.016 C 
ATOM      8  C   UNL     1      38.236 -25.344 -12.581  0.00  0.00    +0.006 C 
ATOM      9  C   UNL     1      37.003 -25.352 -11.927  0.00  0.00    +0.001 C 
ATOM     10  H   UNL     1      34.310 -23.030 -14.242  0.00  0.00    +0.148 HD
ATOM     11  H   UNL     1      37.928 -23.020 -16.130  0.00  0.00    +0.148 HD
ENDROOT
BRANCH   3  13
ATOM     12  N   UNL     1      34.427 -21.400 -19.298  0.00  0.00    +0.387 N 
ATOM     13  C   UNL     1      35.342 -21.910 -16.562  0.00  0.00    +0.033 C 
ATOM     14  C   UNL     1      34.051 -22.522 -17.124  0.00  0.00    -0.020 C 
ATOM     15  C   UNL     1      36.314 -21.588 -17.707  0.00  0.00    -0.020 C 
ATOM     16  C   UNL     1      33.455 -21.640 -18.223  0.00  0.00    -0.077 C 
ATOM     17  C   UNL     1      35.635 -20.739 -18.784  0.00  0.00    -0.077 C 
ATOM     18  H   UNL     1      34.703 -22.305 -19.680  0.00  0.00    -0.080 HD
BRANCH  12  19
ATOM     19  C   UNL     1      33.823 -20.603 -20.366  0.00  0.00    -0.077 C 
BRANCH  19  20
ATOM     20  C   UNL     1      34.784 -19.516 -20.838  0.00  0.00    -0.023 C 
ATOM     21  C   UNL     1      34.359 -18.884 -22.156  0.00  0.00    -0.002 C 
ENDBRANCH  19  20
ENDBRANCH  12  19
ENDBRANCH   3  13
BRANCH   6  24
ATOM     22  O   UNL     1      40.628 -23.907 -14.074  0.00  0.00    -0.270 OA
ATOM     23  N   UNL     1      39.871 -25.506 -15.534  0.00  0.00    -0.325 N 
ATOM     24  C   UNL     1      39.699 -24.643 -14.454  0.00  0.00    +0.244 C 
ATOM     25  H   UNL     1      40.732 -25.530 -16.012  0.00  0.00    +0.145 HD
ATOM     26  H   UNL     1      39.134 -26.093 -15.818  0.00  0.00    +0.145 HD
ENDBRANCH   6  24
TORSDOF 4
ENDMDL
MODEL 8
REMARK VINA RESULT:      -9.7      7.660     11.493
REMARK  Name = 9925908
REMARK  4 active torsions:
REMARK  status: ('A' for Active; 'I' for Inactive)
REMARK    1  A    between atoms: C_3  and  C_13
REMARK    2  A    between atoms: C_6  and  C_24
REMARK    3  A    between atoms: N_12  and  C_19
REMARK    4  A    between atoms: C_19  and  C_20
REMARK                            x       y       z     vdW  Elec       q    Type
REMARK                         _______ _______ _______ _____ _____    ______ ____
ROOT
ATOM      1  N   UNL     1      32.441 -13.045 -24.087  0.00  0.00    -0.318 N 
ATOM      2  N   UNL     1      32.946 -13.433 -21.957  0.00  0.00    -0.318 N 
ATOM      3  C   UNL     1      32.391 -12.599 -22.800  0.00  0.00    +0.143 C 
ATOM      4  C   UNL     1      33.076 -14.260 -24.077  0.00  0.00    +0.059 C 
ATOM      5  C   UNL     1      33.382 -14.480 -22.737  0.00  0.00    +0.063 C 
ATOM      6  C   UNL     1      34.050 -15.661 -22.372  0.00  0.00    +0.067 C 
ATOM      7  C   UNL     1      33.400 -15.158 -25.094  0.00  0.00    +0.016 C 
ATOM      8  C   UNL     1      34.385 -16.578 -23.377  0.00  0.00    +0.006 C 
ATOM      9  C   UNL     1      34.064 -16.329 -24.713  0.00  0.00    +0.001 C 
ATOM     10  H   UNL     1      32.085 -12.580 -24.879  0.00  0.00    +0.148 HD
ATOM     11  H   UNL     1      33.033 -13.333 -20.982  0.00  0.00    +0.148 HD
ENDROOT
BRANCH   3  13
ATOM     12  N   UNL     1      31.752  -8.626 -21.189  0.00  0.00    +0.387 N 
ATOM     13  C   UNL     1      31.744 -11.267 -22.457  0.00  0.00    +0.033 C 
ATOM     14  C   UNL     1      32.516 -10.077 -23.044  0.00  0.00    -0.020 C 
ATOM     15  C   UNL     1      31.561 -11.082 -20.944  0.00  0.00    -0.020 C 
ATOM     16  C   UNL     1      31.866  -8.749 -22.649  0.00  0.00    -0.077 C 
ATOM     17  C   UNL     1      30.944  -9.718 -20.625  0.00  0.00    -0.077 C 
ATOM     18  H   UNL     1      32.690  -8.693 -20.794  0.00  0.00    -0.080 HD
BRANCH  12  19
ATOM     19  C   UNL     1      31.180  -7.329 -20.828  0.00  0.00    -0.077 C 
BRANCH  19  20
ATOM     20  C   UNL     1      32.276  -6.281 -20.669  0.00  0.00    -0.023 C 
ATOM     21  C   UNL     1      32.096  -5.092 -21.602  0.00  0.00    -0.002 C 
ENDBRANCH  19  20
ENDBRANCH  12  19
ENDBRANCH   3  13
BRANCH   6  24
ATOM     22  O   UNL     1      34.107 -15.124 -20.079  0.00  0.00    -0.270 OA
ATOM     23  N   UNL     1      35.018 -17.138 -20.694  0.00  0.00    -0.325 N 
ATOM     24  C   UNL     1      34.385 -15.931 -20.985  0.00  0.00    +0.244 C 
ATOM     25  H   UNL     1      35.259 -17.354 -19.764  0.00  0.00    +0.145 HD
ATOM     26  H   UNL     1      35.221 -17.774 -21.416  0.00  0.00    +0.145 HD
ENDBRANCH   6  24
TORSDOF 4
ENDMDL
MODEL 9
REMARK VINA RESULT:      -9.6      2.578      3.750
REMARK  Name = 9925908
REMARK  4 active torsions:
REMARK  status: ('A' for Active; 'I' for Inactive)
REMARK    1  A    between atoms: C_3  and  C_13
REMARK    2  A    between atoms: C_6  and  C_24
REMARK    3  A    between atoms: N_12  and  C_19
REMARK    4  A    between atoms: C_19  and  C_20
REMARK                            x       y       z     vdW  Elec       q    Type
REMARK                         _______ _______ _______ _____ _____    ______ ____
ROOT
ATOM      1  N   UNL     1      32.547 -22.688 -16.827  0.00  0.00    -0.318 N 
ATOM      2  N   UNL     1      34.694 -22.490 -16.286  0.00  0.00    -0.318 N 
ATOM      3  C   UNL     1      33.795 -22.312 -17.222  0.00  0.00    +0.143 C 
ATOM      4  C   UNL     1      32.643 -23.145 -15.537  0.00  0.00    +0.059 C 
ATOM      5  C   UNL     1      33.993 -23.010 -15.223  0.00  0.00    +0.063 C 
ATOM      6  C   UNL     1      34.441 -23.395 -13.948  0.00  0.00    +0.067 C 
ATOM      7  C   UNL     1      31.695 -23.648 -14.646  0.00  0.00    +0.016 C 
ATOM      8  C   UNL     1      33.506 -23.903 -13.036  0.00  0.00    +0.006 C 
ATOM      9  C   UNL     1      32.158 -24.026 -13.381  0.00  0.00    +0.001 C 
ATOM     10  H   UNL     1      31.726 -22.642 -17.369  0.00  0.00    +0.148 HD
ATOM     11  H   UNL     1      35.657 -22.294 -16.333  0.00  0.00    +0.148 HD
ENDROOT
BRANCH   3  13
ATOM     12  N   UNL     1      34.469 -19.544 -20.489  0.00  0.00    +0.387 N 
ATOM     13  C   UNL     1      34.041 -21.755 -18.615  0.00  0.00    +0.033 C 
ATOM     14  C   UNL     1      35.381 -21.011 -18.716  0.00  0.00    -0.020 C 
ATOM     15  C   UNL     1      32.897 -20.846 -19.088  0.00  0.00    -0.020 C 
ATOM     16  C   UNL     1      35.583 -20.427 -20.116  0.00  0.00    -0.077 C 
ATOM     17  C   UNL     1      33.189 -20.268 -20.475  0.00  0.00    -0.077 C 
ATOM     18  H   UNL     1      34.415 -18.797 -19.797  0.00  0.00    -0.080 HD
BRANCH  12  19
ATOM     19  C   UNL     1      34.705 -18.951 -21.805  0.00  0.00    -0.077 C 
BRANCH  19  20
ATOM     20  C   UNL     1      35.531 -17.675 -21.682  0.00  0.00    -0.023 C 
ATOM     21  C   UNL     1      34.739 -16.423 -22.032  0.00  0.00    -0.002 C 
ENDBRANCH  19  20
ENDBRANCH  12  19
ENDBRANCH   3  13
BRANCH   6  24
ATOM     22  O   UNL     1      36.751 -23.583 -14.365  0.00  0.00    -0.270 OA
ATOM     23  N   UNL     1      36.133 -22.768 -12.312  0.00  0.00    -0.325 N 
ATOM     24  C   UNL     1      35.839 -23.270 -13.578  0.00  0.00    +0.244 C 
ATOM     25  H   UNL     1      37.070 -22.669 -12.028  0.00  0.00    +0.145 HD
ATOM     26  H   UNL     1      35.404 -22.511 -11.703  0.00  0.00    +0.145 HD
ENDBRANCH   6  24
TORSDOF 4
ENDMDL
