MODEL 1
REMARK VINA RESULT:     -10.5      0.000      0.000
REMARK  Name = 10220323
REMARK  0 active torsions:
REMARK  status: ('A' for Active; 'I' for Inactive)
REMARK                            x       y       z     vdW  Elec       q    Type
REMARK                         _______ _______ _______ _____ _____    ______ ____
ROOT
ATOM      1  O   UNL     1      34.553 -19.782 -23.583  0.00  0.00    -0.213 OA
ATOM      2  N   UNL     1      34.263 -16.719 -21.973  0.00  0.00    -0.249 N 
ATOM      3  N   UNL     1      34.335 -17.522 -24.093  0.00  0.00    -0.319 NA
ATOM      4  C   UNL     1      34.399 -18.147 -21.753  0.00  0.00    +0.176 C 
ATOM      5  C   UNL     1      33.202 -18.764 -21.010  0.00  0.00    +0.062 C 
ATOM      6  C   UNL     1      35.695 -18.525 -21.015  0.00  0.00    +0.062 C 
ATOM      7  C   UNL     1      33.864 -19.867 -20.243  0.00  0.00    -0.023 C 
ATOM      8  C   UNL     1      35.256 -19.734 -20.246  0.00  0.00    -0.023 C 
ATOM      9  C   UNL     1      34.441 -18.612 -23.234  0.00  0.00    +0.198 C 
ATOM     10  C   UNL     1      34.236 -16.464 -23.332  0.00  0.00    +0.201 C 
ATOM     11  C   UNL     1      34.165 -15.689 -21.064  0.00  0.00    +0.068 C 
ATOM     12  C   UNL     1      33.248 -20.905 -19.561  0.00  0.00    -0.004 C 
ATOM     13  C   UNL     1      36.061 -20.636 -19.567  0.00  0.00    -0.004 C 
ATOM     14  C   UNL     1      34.103 -15.073 -23.843  0.00  0.00    +0.049 C 
ATOM     15  C   UNL     1      34.052 -21.823 -18.883  0.00  0.00    -0.000 C 
ATOM     16  C   UNL     1      35.448 -21.690 -18.886  0.00  0.00    -0.000 C 
ATOM     17  C   UNL     1      34.044 -14.414 -21.473  0.00  0.00    +0.016 C 
ATOM     18  C   UNL     1      34.013 -14.118 -22.900  0.00  0.00    +0.005 C 
ENDROOT
TORSDOF 0
ENDMDL
MODEL 2
REMARK VINA RESULT:      -9.3      9.243     13.016
REMARK  Name = 10220323
REMARK  0 active torsions:
REMARK  status: ('A' for Active; 'I' for Inactive)
REMARK                            x       y       z     vdW  Elec       q    Type
REMARK                         _______ _______ _______ _____ _____    ______ ____
ROOT
ATOM      1  O   UNL     1      31.930  -5.107 -20.063  0.00  0.00    -0.213 OA
ATOM      2  N   UNL     1      31.596  -8.329 -21.313  0.00  0.00    -0.249 N 
ATOM      3  N   UNL     1      31.615  -7.284 -19.301  0.00  0.00    -0.319 NA
ATOM      4  C   UNL     1      31.788  -6.942 -21.693  0.00  0.00    +0.176 C 
ATOM      5  C   UNL     1      30.643  -6.382 -22.553  0.00  0.00    +0.062 C 
ATOM      6  C   UNL     1      33.124  -6.692 -22.416  0.00  0.00    +0.062 C 
ATOM      7  C   UNL     1      31.371  -5.397 -23.416  0.00  0.00    -0.023 C 
ATOM      8  C   UNL     1      32.756  -5.570 -23.338  0.00  0.00    -0.023 C 
ATOM      9  C   UNL     1      31.790  -6.306 -20.276  0.00  0.00    +0.198 C 
ATOM     10  C   UNL     1      31.509  -8.420 -19.936  0.00  0.00    +0.201 C 
ATOM     11  C   UNL     1      31.498  -9.456 -22.099  0.00  0.00    +0.068 C 
ATOM     12  C   UNL     1      30.817  -4.430 -24.238  0.00  0.00    -0.004 C 
ATOM     13  C   UNL     1      33.616  -4.778 -24.084  0.00  0.00    -0.004 C 
ATOM     14  C   UNL     1      31.309  -9.737 -19.272  0.00  0.00    +0.049 C 
ATOM     15  C   UNL     1      31.677  -3.622 -24.986  0.00  0.00    -0.000 C 
ATOM     16  C   UNL     1      33.067  -3.795 -24.909  0.00  0.00    -0.000 C 
ATOM     17  C   UNL     1      31.317 -10.669 -21.550  0.00  0.00    +0.016 C 
ATOM     18  C   UNL     1      31.222 -10.794 -20.101  0.00  0.00    +0.005 C 
ENDROOT
TORSDOF 0
ENDMDL
MODEL 3
REMARK VINA RESULT:      -9.0      5.618      8.250
REMARK  Name = 10220323
REMARK  0 active torsions:
REMARK  status: ('A' for Active; 'I' for Inactive)
REMARK                            x       y       z     vdW  Elec       q    Type
REMARK                         _______ _______ _______ _____ _____    ______ ____
ROOT
ATOM      1  O   UNL     1      37.879 -22.093 -15.752  0.00  0.00    -0.213 OA
ATOM      2  N   UNL     1      34.512 -22.479 -16.506  0.00  0.00    -0.249 N 
ATOM      3  N   UNL     1      36.369 -21.581 -17.448  0.00  0.00    -0.319 NA
ATOM      4  C   UNL     1      35.524 -22.756 -15.505  0.00  0.00    +0.176 C 
ATOM      5  C   UNL     1      35.745 -24.258 -15.262  0.00  0.00    +0.062 C 
ATOM      6  C   UNL     1      35.246 -22.068 -14.156  0.00  0.00    +0.062 C 
ATOM      7  C   UNL     1      36.116 -24.275 -13.811  0.00  0.00    -0.023 C 
ATOM      8  C   UNL     1      35.838 -23.052 -13.194  0.00  0.00    -0.023 C 
ATOM      9  C   UNL     1      36.746 -22.116 -16.219  0.00  0.00    +0.198 C 
ATOM     10  C   UNL     1      35.089 -21.810 -17.570  0.00  0.00    +0.201 C 
ATOM     11  C   UNL     1      33.168 -22.782 -16.513  0.00  0.00    +0.068 C 
ATOM     12  C   UNL     1      36.641 -25.335 -13.089  0.00  0.00    -0.004 C 
ATOM     13  C   UNL     1      36.080 -22.864 -11.841  0.00  0.00    -0.004 C 
ATOM     14  C   UNL     1      34.272 -21.401 -18.745  0.00  0.00    +0.049 C 
ATOM     15  C   UNL     1      36.896 -25.152 -11.729  0.00  0.00    -0.000 C 
ATOM     16  C   UNL     1      36.617 -23.924 -11.109  0.00  0.00    -0.000 C 
ATOM     17  C   UNL     1      32.386 -22.435 -17.550  0.00  0.00    +0.016 C 
ATOM     18  C   UNL     1      32.968 -21.729 -18.684  0.00  0.00    +0.005 C 
ENDROOT
TORSDOF 0
ENDMDL
MODEL 4
REMARK VINA RESULT:      -8.9      7.892      9.660
REMARK  Name = 10220323
REMARK  0 active torsions:
REMARK  status: ('A' for Active; 'I' for Inactive)
REMARK                            x       y       z     vdW  Elec       q    Type
REMARK                         _______ _______ _______ _____ _____    ______ ____
ROOT
ATOM      1  O   UNL     1      34.232 -24.110 -11.942  0.00  0.00    -0.213 OA
ATOM      2  N   UNL     1      33.148 -23.268 -15.132  0.00  0.00    -0.249 N 
ATOM      3  N   UNL     1      32.320 -23.337 -13.021  0.00  0.00    -0.319 NA
ATOM      4  C   UNL     1      34.289 -23.745 -14.373  0.00  0.00    +0.176 C 
ATOM      5  C   UNL     1      35.494 -22.790 -14.422  0.00  0.00    +0.062 C 
ATOM      6  C   UNL     1      34.749 -25.152 -14.792  0.00  0.00    +0.062 C 
ATOM      7  C   UNL     1      36.640 -23.751 -14.332  0.00  0.00    -0.023 C 
ATOM      8  C   UNL     1      36.224 -25.070 -14.539  0.00  0.00    -0.023 C 
ATOM      9  C   UNL     1      33.644 -23.764 -12.960  0.00  0.00    +0.198 C 
ATOM     10  C   UNL     1      32.080 -23.066 -14.277  0.00  0.00    +0.201 C 
ATOM     11  C   UNL     1      33.025 -23.017 -16.480  0.00  0.00    +0.068 C 
ATOM     12  C   UNL     1      37.974 -23.450 -14.110  0.00  0.00    -0.004 C 
ATOM     13  C   UNL     1      37.135 -26.115 -14.526  0.00  0.00    -0.004 C 
ATOM     14  C   UNL     1      30.774 -22.575 -14.794  0.00  0.00    +0.049 C 
ATOM     15  C   UNL     1      38.896 -24.498 -14.087  0.00  0.00    -0.000 C 
ATOM     16  C   UNL     1      38.480 -25.821 -14.294  0.00  0.00    -0.000 C 
ATOM     17  C   UNL     1      31.867 -22.573 -16.999  0.00  0.00    +0.016 C 
ATOM     18  C   UNL     1      30.725 -22.351 -16.120  0.00  0.00    +0.005 C 
ENDROOT
TORSDOF 0
ENDMDL
MODEL 5
REMARK VINA RESULT:      -8.9      3.921      7.879
REMARK  Name = 10220323
REMARK  0 active torsions:
REMARK  status: ('A' for Active; 'I' for Inactive)
REMARK                            x       y       z     vdW  Elec       q    Type
REMARK                         _______ _______ _______ _____ _____    ______ ____
ROOT
ATOM      1  O   UNL     1      32.103 -12.645 -25.830  0.00  0.00    -0.213 OA
ATOM      2  N   UNL     1      33.565 -14.379 -23.201  0.00  0.00    -0.249 N 
ATOM      3  N   UNL     1      33.034 -14.729 -25.378  0.00  0.00    -0.319 NA
ATOM      4  C   UNL     1      32.969 -13.110 -23.576  0.00  0.00    +0.176 C 
ATOM      5  C   UNL     1      33.943 -11.925 -23.468  0.00  0.00    +0.062 C 
ATOM      6  C   UNL     1      31.693 -12.781 -22.782  0.00  0.00    +0.062 C 
ATOM      7  C   UNL     1      33.014 -10.807 -23.104  0.00  0.00    -0.023 C 
ATOM      8  C   UNL     1      31.758 -11.286 -22.721  0.00  0.00    -0.023 C 
ATOM      9  C   UNL     1      32.639 -13.433 -25.059  0.00  0.00    +0.198 C 
ATOM     10  C   UNL     1      33.556 -15.230 -24.290  0.00  0.00    +0.201 C 
ATOM     11  C   UNL     1      34.088 -14.787 -21.994  0.00  0.00    +0.068 C 
ATOM     12  C   UNL     1      33.296  -9.451 -23.089  0.00  0.00    -0.004 C 
ATOM     13  C   UNL     1      30.757 -10.416 -22.316  0.00  0.00    -0.004 C 
ATOM     14  C   UNL     1      34.111 -16.607 -24.183  0.00  0.00    +0.049 C 
ATOM     15  C   UNL     1      32.291  -8.568 -22.691  0.00  0.00    -0.000 C 
ATOM     16  C   UNL     1      31.030  -9.047 -22.307  0.00  0.00    -0.000 C 
ATOM     17  C   UNL     1      34.602 -16.020 -21.844  0.00  0.00    +0.016 C 
ATOM     18  C   UNL     1      34.605 -16.938 -22.976  0.00  0.00    +0.005 C 
ENDROOT
TORSDOF 0
ENDMDL
MODEL 6
REMARK VINA RESULT:      -8.9      5.864      8.396
REMARK  Name = 10220323
REMARK  0 active torsions:
REMARK  status: ('A' for Active; 'I' for Inactive)
REMARK                            x       y       z     vdW  Elec       q    Type
REMARK                         _______ _______ _______ _____ _____    ______ ____
ROOT
ATOM      1  O   UNL     1      32.844 -23.974 -14.242  0.00  0.00    -0.213 OA
ATOM      2  N   UNL     1      34.832 -22.387 -16.606  0.00  0.00    -0.249 N 
ATOM      3  N   UNL     1      32.662 -22.990 -16.344  0.00  0.00    -0.319 NA
ATOM      4  C   UNL     1      34.848 -23.018 -15.299  0.00  0.00    +0.176 C 
ATOM      5  C   UNL     1      35.257 -22.061 -14.167  0.00  0.00    +0.062 C 
ATOM      6  C   UNL     1      35.741 -24.270 -15.242  0.00  0.00    +0.062 C 
ATOM      7  C   UNL     1      35.949 -22.995 -13.222  0.00  0.00    -0.023 C 
ATOM      8  C   UNL     1      36.219 -24.229 -13.823  0.00  0.00    -0.023 C 
ATOM      9  C   UNL     1      33.345 -23.396 -15.201  0.00  0.00    +0.198 C 
ATOM     10  C   UNL     1      33.548 -22.421 -17.117  0.00  0.00    +0.201 C 
ATOM     11  C   UNL     1      35.858 -21.813 -17.323  0.00  0.00    +0.068 C 
ATOM     12  C   UNL     1      36.337 -22.737 -11.918  0.00  0.00    -0.004 C 
ATOM     13  C   UNL     1      36.883 -25.230 -13.130  0.00  0.00    -0.004 C 
ATOM     14  C   UNL     1      33.245 -21.838 -18.453  0.00  0.00    +0.049 C 
ATOM     15  C   UNL     1      36.998 -23.742 -11.210  0.00  0.00    -0.000 C 
ATOM     16  C   UNL     1      37.269 -24.980 -11.812  0.00  0.00    -0.000 C 
ATOM     17  C   UNL     1      35.639 -21.273 -18.534  0.00  0.00    +0.016 C 
ATOM     18  C   UNL     1      34.294 -21.295 -19.096  0.00  0.00    +0.005 C 
ENDROOT
TORSDOF 0
ENDMDL
MODEL 7
REMARK VINA RESULT:      -8.8      7.746      9.657
REMARK  Name = 10220323
REMARK  0 active torsions:
REMARK  status: ('A' for Active; 'I' for Inactive)
REMARK                            x       y       z     vdW  Elec       q    Type
REMARK                         _______ _______ _______ _____ _____    ______ ____
ROOT
ATOM      1  O   UNL     1      35.406 -22.537 -16.442  0.00  0.00    -0.213 OA
ATOM      2  N   UNL     1      32.852 -23.804 -14.460  0.00  0.00    -0.249 N 
ATOM      3  N   UNL     1      33.083 -22.497 -16.299  0.00  0.00    -0.319 NA
ATOM      4  C   UNL     1      34.292 -23.771 -14.631  0.00  0.00    +0.176 C 
ATOM      5  C   UNL     1      34.904 -25.156 -14.903  0.00  0.00    +0.062 C 
ATOM      6  C   UNL     1      35.028 -23.125 -13.444  0.00  0.00    +0.062 C 
ATOM      7  C   UNL     1      36.250 -25.020 -14.260  0.00  0.00    -0.023 C 
ATOM      8  C   UNL     1      36.319 -23.885 -13.446  0.00  0.00    -0.023 C 
ATOM      9  C   UNL     1      34.361 -22.869 -15.893  0.00  0.00    +0.198 C 
ATOM     10  C   UNL     1      32.255 -23.052 -15.455  0.00  0.00    +0.201 C 
ATOM     11  C   UNL     1      32.088 -24.441 -13.508  0.00  0.00    +0.068 C 
ATOM     12  C   UNL     1      37.329 -25.880 -14.379  0.00  0.00    -0.004 C 
ATOM     13  C   UNL     1      37.472 -23.588 -12.734  0.00  0.00    -0.004 C 
ATOM     14  C   UNL     1      30.774 -22.913 -15.519  0.00  0.00    +0.049 C 
ATOM     15  C   UNL     1      38.496 -25.584 -13.672  0.00  0.00    -0.000 C 
ATOM     16  C   UNL     1      38.567 -24.445 -12.855  0.00  0.00    -0.000 C 
ATOM     17  C   UNL     1      30.747 -24.348 -13.520  0.00  0.00    +0.016 C 
ATOM     18  C   UNL     1      30.092 -23.562 -14.558  0.00  0.00    +0.005 C 
ENDROOT
TORSDOF 0
ENDMDL
MODEL 8
REMARK VINA RESULT:      -8.7      7.215     10.084
REMARK  Name = 10220323
REMARK  0 active torsions:
REMARK  status: ('A' for Active; 'I' for Inactive)
REMARK                            x       y       z     vdW  Elec       q    Type
REMARK                         _______ _______ _______ _____ _____    ______ ____
ROOT
ATOM      1  O   UNL     1      35.013 -25.987 -15.778  0.00  0.00    -0.213 OA
ATOM      2  N   UNL     1      36.117 -23.678 -13.431  0.00  0.00    -0.249 N 
ATOM      3  N   UNL     1      36.540 -25.825 -14.028  0.00  0.00    -0.319 NA
ATOM      4  C   UNL     1      35.197 -23.873 -14.536  0.00  0.00    +0.176 C 
ATOM      5  C   UNL     1      35.475 -22.943 -15.729  0.00  0.00    +0.062 C 
ATOM      6  C   UNL     1      33.721 -23.733 -14.126  0.00  0.00    +0.062 C 
ATOM      7  C   UNL     1      34.095 -22.740 -16.276  0.00  0.00    -0.023 C 
ATOM      8  C   UNL     1      33.116 -23.182 -15.381  0.00  0.00    -0.023 C 
ATOM      9  C   UNL     1      35.547 -25.347 -14.879  0.00  0.00    +0.198 C 
ATOM     10  C   UNL     1      36.834 -24.842 -13.220  0.00  0.00    +0.201 C 
ATOM     11  C   UNL     1      36.334 -22.568 -12.646  0.00  0.00    +0.068 C 
ATOM     12  C   UNL     1      33.747 -22.165 -17.488  0.00  0.00    -0.004 C 
ATOM     13  C   UNL     1      31.767 -23.058 -15.681  0.00  0.00    -0.004 C 
ATOM     14  C   UNL     1      37.855 -24.921 -12.139  0.00  0.00    +0.049 C 
ATOM     15  C   UNL     1      32.392 -22.045 -17.802  0.00  0.00    -0.000 C 
ATOM     16  C   UNL     1      31.409 -22.488 -16.904  0.00  0.00    -0.000 C 
ATOM     17  C   UNL     1      37.245 -22.586 -11.657  0.00  0.00    +0.016 C 
ATOM     18  C   UNL     1      38.014 -23.800 -11.413  0.00  0.00    +0.005 C 
ENDROOT
TORSDOF 0
ENDMDL
MODEL 9
REMARK VINA RESULT:      -8.7      9.246     12.547
REMARK  Name = 10220323
REMARK  0 active torsions:
REMARK  status: ('A' for Active; 'I' for Inactive)
REMARK                            x       y       z     vdW  Elec       q    Type
REMARK                         _______ _______ _______ _____ _____    ______ ____
ROOT
ATOM      1  O   UNL     1      32.328  -5.030 -21.620  0.00  0.00    -0.213 OA
ATOM      2  N   UNL     1      31.810  -8.457 -21.834  0.00  0.00    -0.249 N 
ATOM      3  N   UNL     1      31.717  -6.822 -20.266  0.00  0.00    -0.319 NA
ATOM      4  C   UNL     1      32.180  -7.281 -22.599  0.00  0.00    +0.176 C 
ATOM      5  C   UNL     1      31.196  -6.960 -23.736  0.00  0.00    +0.062 C 
ATOM      6  C   UNL     1      33.604  -7.359 -23.178  0.00  0.00    +0.062 C 
ATOM      7  C   UNL     1      32.108  -6.352 -24.758  0.00  0.00    -0.023 C 
ATOM      8  C   UNL     1      33.452  -6.574 -24.445  0.00  0.00    -0.023 C 
ATOM      9  C   UNL     1      32.093  -6.223 -21.465  0.00  0.00    +0.198 C 
ATOM     10  C   UNL     1      31.567  -8.094 -20.522  0.00  0.00    +0.201 C 
ATOM     11  C   UNL     1      31.685  -9.769 -22.234  0.00  0.00    +0.068 C 
ATOM     12  C   UNL     1      31.745  -5.671 -25.908  0.00  0.00    -0.004 C 
ATOM     13  C   UNL     1      34.462  -6.119 -25.279  0.00  0.00    -0.004 C 
ATOM     14  C   UNL     1      31.166  -9.111 -19.513  0.00  0.00    +0.049 C 
ATOM     15  C   UNL     1      32.756  -5.201 -26.748  0.00  0.00    -0.000 C 
ATOM     16  C   UNL     1      34.106  -5.423 -26.436  0.00  0.00    -0.000 C 
ATOM     17  C   UNL     1      31.326 -10.727 -21.362  0.00  0.00    +0.016 C 
ATOM     18  C   UNL     1      31.064 -10.371 -19.973  0.00  0.00    +0.005 C 
ENDROOT
TORSDOF 0
ENDMDL
