MODEL 1
REMARK VINA RESULT:     -13.4      0.000      0.000
REMARK  Name = 5289179
REMARK  4 active torsions:
REMARK  status: ('A' for Active; 'I' for Inactive)
REMARK    1  A    between atoms: C_3  and  C_14
REMARK    2  A    between atoms: C_6  and  C_22
REMARK    3  A    between atoms: C_14  and  C_15
REMARK    4  A    between atoms: C_22  and  C_25
REMARK                            x       y       z     vdW  Elec       q    Type
REMARK                         _______ _______ _______ _____ _____    ______ ____
ROOT
ATOM      1  N   UNL     1      34.176 -16.651 -22.891  0.00  0.00    -0.249 N 
ATOM      2  N   UNL     1      33.794 -17.809 -24.767  0.00  0.00    -0.375 NA
ATOM      3  C   UNL     1      34.608 -17.931 -22.652  0.00  0.00    +0.208 C 
ATOM      4  C   UNL     1      33.688 -16.626 -24.195  0.00  0.00    +0.189 C 
ATOM      5  C   UNL     1      34.189 -15.541 -22.050  0.00  0.00    +0.071 C 
ATOM      6  C   UNL     1      33.706 -14.375 -22.513  0.00  0.00    +0.054 C 
ATOM      7  C   UNL     1      34.361 -18.620 -23.817  0.00  0.00    +0.182 C 
ATOM      8  C   UNL     1      33.178 -15.384 -24.674  0.00  0.00    +0.048 C 
ATOM      9  C   UNL     1      33.185 -14.303 -23.869  0.00  0.00    +0.008 C 
ATOM     10  N   UNL     1      34.628 -19.925 -24.044  0.00  0.00    -0.335 N 
ATOM     11  H   UNL     1      34.414 -20.326 -24.916  0.00  0.00    +0.144 HD
ATOM     12  H   UNL     1      35.039 -20.474 -23.337  0.00  0.00    +0.144 HD
ENDROOT
BRANCH   3  14
ATOM     13  O   UNL     1      36.236 -17.962 -20.923  0.00  0.00    -0.289 OA
ATOM     14  C   UNL     1      35.183 -18.404 -21.431  0.00  0.00    +0.200 C 
BRANCH  14  15
ATOM     15  C   UNL     1      34.532 -19.493 -20.633  0.00  0.00    +0.037 C 
ATOM     16  C   UNL     1      33.161 -19.552 -20.605  0.00  0.00    +0.003 C 
ATOM     17  C   UNL     1      35.337 -20.382 -19.965  0.00  0.00    +0.003 C 
ATOM     18  C   UNL     1      32.556 -20.566 -19.862  0.00  0.00    +0.000 C 
ATOM     19  C   UNL     1      34.732 -21.395 -19.221  0.00  0.00    +0.000 C 
ATOM     20  C   UNL     1      33.341 -21.487 -19.170  0.00  0.00    +0.000 C 
ENDBRANCH  14  15
ENDBRANCH   3  14
BRANCH   6  22
ATOM     21  O   UNL     1      34.539 -13.111 -20.723  0.00  0.00    -0.286 OA
ATOM     22  C   UNL     1      33.715 -13.207 -21.633  0.00  0.00    +0.201 C 
BRANCH  22  25
ATOM     23  F   UNL     1      31.403 -12.931 -20.069  0.00  0.00    -0.204 F 
ATOM     24  F   UNL     1      34.052 -11.294 -23.657  0.00  0.00    -0.204 F 
ATOM     25  C   UNL     1      32.730 -12.115 -21.863  0.00  0.00    +0.094 C 
ATOM     26  C   UNL     1      31.616 -12.044 -21.053  0.00  0.00    +0.145 C 
ATOM     27  C   UNL     1      32.964 -11.212 -22.878  0.00  0.00    +0.145 C 
ATOM     28  C   UNL     1      30.693 -11.021 -21.268  0.00  0.00    +0.030 C 
ATOM     29  C   UNL     1      32.041 -10.189 -23.092  0.00  0.00    +0.030 C 
ATOM     30  C   UNL     1      30.905 -10.094 -22.288  0.00  0.00    +0.005 C 
ENDBRANCH  22  25
ENDBRANCH   6  22
TORSDOF 4
ENDMDL
MODEL 2
REMARK VINA RESULT:     -12.2      2.425      7.649
REMARK  Name = 5289179
REMARK  4 active torsions:
REMARK  status: ('A' for Active; 'I' for Inactive)
REMARK    1  A    between atoms: C_3  and  C_14
REMARK    2  A    between atoms: C_6  and  C_22
REMARK    3  A    between atoms: C_14  and  C_15
REMARK    4  A    between atoms: C_22  and  C_25
REMARK                            x       y       z     vdW  Elec       q    Type
REMARK                         _______ _______ _______ _____ _____    ______ ____
ROOT
ATOM      1  N   UNL     1      33.976 -16.379 -22.975  0.00  0.00    -0.249 N 
ATOM      2  N   UNL     1      33.213 -16.185 -25.069  0.00  0.00    -0.375 NA
ATOM      3  C   UNL     1      33.620 -15.065 -23.138  0.00  0.00    +0.208 C 
ATOM      4  C   UNL     1      33.709 -17.023 -24.180  0.00  0.00    +0.189 C 
ATOM      5  C   UNL     1      34.505 -17.020 -21.857  0.00  0.00    +0.071 C 
ATOM      6  C   UNL     1      34.778 -18.334 -21.937  0.00  0.00    +0.054 C 
ATOM      7  C   UNL     1      33.157 -14.973 -24.430  0.00  0.00    +0.182 C 
ATOM      8  C   UNL     1      34.003 -18.416 -24.251  0.00  0.00    +0.048 C 
ATOM      9  C   UNL     1      34.515 -19.048 -23.177  0.00  0.00    +0.008 C 
ATOM     10  N   UNL     1      32.694 -13.856 -25.034  0.00  0.00    -0.335 N 
ATOM     11  H   UNL     1      32.382 -13.895 -25.967  0.00  0.00    +0.144 HD
ATOM     12  H   UNL     1      32.667 -13.004 -24.540  0.00  0.00    +0.144 HD
ENDROOT
BRANCH   3  14
ATOM     13  O   UNL     1      34.435 -14.118 -21.118  0.00  0.00    -0.289 OA
ATOM     14  C   UNL     1      33.729 -14.041 -22.146  0.00  0.00    +0.200 C 
BRANCH  14  15
ATOM     15  C   UNL     1      32.988 -12.744 -22.280  0.00  0.00    +0.037 C 
ATOM     16  C   UNL     1      33.520 -11.769 -23.086  0.00  0.00    +0.003 C 
ATOM     17  C   UNL     1      31.813 -12.590 -21.587  0.00  0.00    +0.003 C 
ATOM     18  C   UNL     1      32.830 -10.562 -23.209  0.00  0.00    +0.000 C 
ATOM     19  C   UNL     1      31.123 -11.384 -21.710  0.00  0.00    +0.000 C 
ATOM     20  C   UNL     1      31.633 -10.369 -22.522  0.00  0.00    +0.000 C 
ENDBRANCH  14  15
ENDBRANCH   3  14
BRANCH   6  22
ATOM     21  O   UNL     1      36.444 -18.700 -20.328  0.00  0.00    -0.286 OA
ATOM     22  C   UNL     1      35.336 -19.013 -20.768  0.00  0.00    +0.201 C 
BRANCH  22  25
ATOM     23  F   UNL     1      32.533 -18.966 -20.711  0.00  0.00    -0.204 F 
ATOM     24  F   UNL     1      36.545 -21.187 -19.472  0.00  0.00    -0.204 F 
ATOM     25  C   UNL     1      34.541 -20.074 -20.092  0.00  0.00    +0.094 C 
ATOM     26  C   UNL     1      33.165 -19.982 -20.106  0.00  0.00    +0.145 C 
ATOM     27  C   UNL     1      35.207 -21.112 -19.476  0.00  0.00    +0.145 C 
ATOM     28  C   UNL     1      32.420 -20.977 -19.473  0.00  0.00    +0.030 C 
ATOM     29  C   UNL     1      34.460 -22.106 -18.843  0.00  0.00    +0.030 C 
ATOM     30  C   UNL     1      33.067 -22.038 -18.841  0.00  0.00    +0.005 C 
ENDBRANCH  22  25
ENDBRANCH   6  22
TORSDOF 4
ENDMDL
MODEL 3
REMARK VINA RESULT:     -11.6      6.541      9.805
REMARK  Name = 5289179
REMARK  4 active torsions:
REMARK  status: ('A' for Active; 'I' for Inactive)
REMARK    1  A    between atoms: C_3  and  C_14
REMARK    2  A    between atoms: C_6  and  C_22
REMARK    3  A    between atoms: C_14  and  C_15
REMARK    4  A    between atoms: C_22  and  C_25
REMARK                            x       y       z     vdW  Elec       q    Type
REMARK                         _______ _______ _______ _____ _____    ______ ____
ROOT
ATOM      1  N   UNL     1      34.052 -22.771 -15.408  0.00  0.00    -0.249 N 
ATOM      2  N   UNL     1      32.748 -22.860 -13.593  0.00  0.00    -0.375 NA
ATOM      3  C   UNL     1      34.894 -22.877 -14.330  0.00  0.00    +0.208 C 
ATOM      4  C   UNL     1      32.752 -22.765 -14.907  0.00  0.00    +0.189 C 
ATOM      5  C   UNL     1      34.357 -22.683 -16.764  0.00  0.00    +0.071 C 
ATOM      6  C   UNL     1      33.348 -22.586 -17.647  0.00  0.00    +0.054 C 
ATOM      7  C   UNL     1      34.070 -22.928 -13.231  0.00  0.00    +0.182 C 
ATOM      8  C   UNL     1      31.692 -22.662 -15.854  0.00  0.00    +0.048 C 
ATOM      9  C   UNL     1      31.974 -22.576 -17.169  0.00  0.00    +0.008 C 
ATOM     10  N   UNL     1      34.463 -23.035 -11.942  0.00  0.00    -0.335 N 
ATOM     11  H   UNL     1      33.792 -23.066 -11.224  0.00  0.00    +0.144 HD
ATOM     12  H   UNL     1      35.422 -23.084 -11.723  0.00  0.00    +0.144 HD
ENDROOT
BRANCH   3  14
ATOM     13  O   UNL     1      37.061 -21.912 -14.450  0.00  0.00    -0.289 OA
ATOM     14  C   UNL     1      36.322 -22.918 -14.387  0.00  0.00    +0.200 C 
BRANCH  14  15
ATOM     15  C   UNL     1      37.066 -24.219 -14.359  0.00  0.00    +0.037 C 
ATOM     16  C   UNL     1      38.438 -24.187 -14.378  0.00  0.00    +0.003 C 
ATOM     17  C   UNL     1      36.340 -25.384 -14.317  0.00  0.00    +0.003 C 
ATOM     18  C   UNL     1      39.129 -25.399 -14.352  0.00  0.00    +0.000 C 
ATOM     19  C   UNL     1      37.032 -26.595 -14.290  0.00  0.00    +0.000 C 
ATOM     20  C   UNL     1      38.427 -26.602 -14.308  0.00  0.00    +0.000 C 
ENDBRANCH  14  15
ENDBRANCH   3  14
BRANCH   6  22
ATOM     21  O   UNL     1      33.540 -23.471 -19.810  0.00  0.00    -0.286 OA
ATOM     22  C   UNL     1      33.662 -22.491 -19.073  0.00  0.00    +0.201 C 
BRANCH  22  25
ATOM     23  F   UNL     1      31.880 -20.701 -20.291  0.00  0.00    -0.204 F 
ATOM     24  F   UNL     1      36.342 -21.668 -18.980  0.00  0.00    -0.204 F 
ATOM     25  C   UNL     1      34.111 -21.189 -19.635  0.00  0.00    +0.094 C 
ATOM     26  C   UNL     1      33.175 -20.361 -20.220  0.00  0.00    +0.145 C 
ATOM     27  C   UNL     1      35.445 -20.853 -19.552  0.00  0.00    +0.145 C 
ATOM     28  C   UNL     1      33.595 -19.140 -20.747  0.00  0.00    +0.030 C 
ATOM     29  C   UNL     1      35.864 -19.632 -20.080  0.00  0.00    +0.030 C 
ATOM     30  C   UNL     1      34.940 -18.775 -20.677  0.00  0.00    +0.005 C 
ENDBRANCH  22  25
ENDBRANCH   6  22
TORSDOF 4
ENDMDL
MODEL 4
REMARK VINA RESULT:     -11.6      6.543      9.811
REMARK  Name = 5289179
REMARK  4 active torsions:
REMARK  status: ('A' for Active; 'I' for Inactive)
REMARK    1  A    between atoms: C_3  and  C_14
REMARK    2  A    between atoms: C_6  and  C_22
REMARK    3  A    between atoms: C_14  and  C_15
REMARK    4  A    between atoms: C_22  and  C_25
REMARK                            x       y       z     vdW  Elec       q    Type
REMARK                         _______ _______ _______ _____ _____    ______ ____
ROOT
ATOM      1  N   UNL     1      34.048 -22.772 -15.406  0.00  0.00    -0.249 N 
ATOM      2  N   UNL     1      32.744 -22.858 -13.591  0.00  0.00    -0.375 NA
ATOM      3  C   UNL     1      34.890 -22.877 -14.329  0.00  0.00    +0.208 C 
ATOM      4  C   UNL     1      32.749 -22.764 -14.906  0.00  0.00    +0.189 C 
ATOM      5  C   UNL     1      34.354 -22.684 -16.763  0.00  0.00    +0.071 C 
ATOM      6  C   UNL     1      33.345 -22.587 -17.646  0.00  0.00    +0.054 C 
ATOM      7  C   UNL     1      34.066 -22.928 -13.229  0.00  0.00    +0.182 C 
ATOM      8  C   UNL     1      31.689 -22.661 -15.853  0.00  0.00    +0.048 C 
ATOM      9  C   UNL     1      31.971 -22.576 -17.167  0.00  0.00    +0.008 C 
ATOM     10  N   UNL     1      34.459 -23.034 -11.940  0.00  0.00    -0.335 N 
ATOM     11  H   UNL     1      33.788 -23.064 -11.222  0.00  0.00    +0.144 HD
ATOM     12  H   UNL     1      35.418 -23.084 -11.721  0.00  0.00    +0.144 HD
ENDROOT
BRANCH   3  14
ATOM     13  O   UNL     1      37.058 -21.913 -14.446  0.00  0.00    -0.289 OA
ATOM     14  C   UNL     1      36.318 -22.919 -14.386  0.00  0.00    +0.200 C 
BRANCH  14  15
ATOM     15  C   UNL     1      37.062 -24.221 -14.360  0.00  0.00    +0.037 C 
ATOM     16  C   UNL     1      36.337 -25.385 -14.315  0.00  0.00    +0.003 C 
ATOM     17  C   UNL     1      38.434 -24.188 -14.379  0.00  0.00    +0.003 C 
ATOM     18  C   UNL     1      37.030 -26.596 -14.290  0.00  0.00    +0.000 C 
ATOM     19  C   UNL     1      39.127 -25.399 -14.354  0.00  0.00    +0.000 C 
ATOM     20  C   UNL     1      38.423 -26.603 -14.310  0.00  0.00    +0.000 C 
ENDBRANCH  14  15
ENDBRANCH   3  14
BRANCH   6  22
ATOM     21  O   UNL     1      33.537 -23.473 -19.808  0.00  0.00    -0.286 OA
ATOM     22  C   UNL     1      33.660 -22.493 -19.071  0.00  0.00    +0.201 C 
BRANCH  22  25
ATOM     23  F   UNL     1      36.340 -21.672 -18.979  0.00  0.00    -0.204 F 
ATOM     24  F   UNL     1      31.879 -20.703 -20.293  0.00  0.00    -0.204 F 
ATOM     25  C   UNL     1      34.108 -21.191 -19.634  0.00  0.00    +0.094 C 
ATOM     26  C   UNL     1      35.443 -20.856 -19.551  0.00  0.00    +0.145 C 
ATOM     27  C   UNL     1      33.174 -20.363 -20.219  0.00  0.00    +0.145 C 
ATOM     28  C   UNL     1      35.863 -19.635 -20.078  0.00  0.00    +0.030 C 
ATOM     29  C   UNL     1      33.595 -19.142 -20.746  0.00  0.00    +0.030 C 
ATOM     30  C   UNL     1      34.939 -18.778 -20.675  0.00  0.00    +0.005 C 
ENDBRANCH  22  25
ENDBRANCH   6  22
TORSDOF 4
ENDMDL
MODEL 5
REMARK VINA RESULT:     -11.2      5.929      9.052
REMARK  Name = 5289179
REMARK  4 active torsions:
REMARK  status: ('A' for Active; 'I' for Inactive)
REMARK    1  A    between atoms: C_3  and  C_14
REMARK    2  A    between atoms: C_6  and  C_22
REMARK    3  A    between atoms: C_14  and  C_15
REMARK    4  A    between atoms: C_22  and  C_25
REMARK                            x       y       z     vdW  Elec       q    Type
REMARK                         _______ _______ _______ _____ _____    ______ ____
ROOT
ATOM      1  N   UNL     1      31.581  -8.010 -21.482  0.00  0.00    -0.249 N 
ATOM      2  N   UNL     1      31.885  -7.577 -19.308  0.00  0.00    -0.375 NA
ATOM      3  C   UNL     1      31.294  -9.171 -20.811  0.00  0.00    +0.208 C 
ATOM      4  C   UNL     1      31.936  -7.065 -20.522  0.00  0.00    +0.189 C 
ATOM      5  C   UNL     1      31.547  -7.746 -22.849  0.00  0.00    +0.071 C 
ATOM      6  C   UNL     1      31.874  -6.515 -23.277  0.00  0.00    +0.054 C 
ATOM      7  C   UNL     1      31.489  -8.879 -19.482  0.00  0.00    +0.182 C 
ATOM      8  C   UNL     1      32.281  -5.763 -20.989  0.00  0.00    +0.048 C 
ATOM      9  C   UNL     1      32.252  -5.496 -22.309  0.00  0.00    +0.008 C 
ATOM     10  N   UNL     1      31.323  -9.729 -18.444  0.00  0.00    -0.335 N 
ATOM     11  H   UNL     1      31.488  -9.421 -17.524  0.00  0.00    +0.144 HD
ATOM     12  H   UNL     1      31.035 -10.657 -18.610  0.00  0.00    +0.144 HD
ENDROOT
BRANCH   3  14
ATOM     13  O   UNL     1      29.724 -10.657 -21.794  0.00  0.00    -0.289 OA
ATOM     14  C   UNL     1      30.886 -10.403 -21.411  0.00  0.00    +0.200 C 
BRANCH  14  15
ATOM     15  C   UNL     1      31.862 -11.515 -21.649  0.00  0.00    +0.037 C 
ATOM     16  C   UNL     1      32.590 -11.507 -22.813  0.00  0.00    +0.003 C 
ATOM     17  C   UNL     1      31.982 -12.493 -20.693  0.00  0.00    +0.003 C 
ATOM     18  C   UNL     1      33.498 -12.543 -23.034  0.00  0.00    +0.000 C 
ATOM     19  C   UNL     1      32.890 -13.529 -20.914  0.00  0.00    +0.000 C 
ATOM     20  C   UNL     1      33.648 -13.554 -22.086  0.00  0.00    +0.000 C 
ENDBRANCH  14  15
ENDBRANCH   3  14
BRANCH   6  22
ATOM     21  O   UNL     1      31.029  -6.795 -25.446  0.00  0.00    -0.286 OA
ATOM     22  C   UNL     1      31.843  -6.232 -24.712  0.00  0.00    +0.201 C 
BRANCH  22  25
ATOM     23  F   UNL     1      31.039  -3.635 -25.400  0.00  0.00    -0.204 F 
ATOM     24  F   UNL     1      34.547  -6.830 -25.159  0.00  0.00    -0.204 F 
ATOM     25  C   UNL     1      32.791  -5.235 -25.279  0.00  0.00    +0.094 C 
ATOM     26  C   UNL     1      32.321  -3.977 -25.594  0.00  0.00    +0.145 C 
ATOM     27  C   UNL     1      34.106  -5.603 -25.470  0.00  0.00    +0.145 C 
ATOM     28  C   UNL     1      33.210  -3.043 -26.125  0.00  0.00    +0.030 C 
ATOM     29  C   UNL     1      34.993  -4.668 -26.002  0.00  0.00    +0.030 C 
ATOM     30  C   UNL     1      34.545  -3.388 -26.330  0.00  0.00    +0.005 C 
ENDBRANCH  22  25
ENDBRANCH   6  22
TORSDOF 4
ENDMDL
MODEL 6
REMARK VINA RESULT:     -11.2      5.932      9.079
REMARK  Name = 5289179
REMARK  4 active torsions:
REMARK  status: ('A' for Active; 'I' for Inactive)
REMARK    1  A    between atoms: C_3  and  C_14
REMARK    2  A    between atoms: C_6  and  C_22
REMARK    3  A    between atoms: C_14  and  C_15
REMARK    4  A    between atoms: C_22  and  C_25
REMARK                            x       y       z     vdW  Elec       q    Type
REMARK                         _______ _______ _______ _____ _____    ______ ____
ROOT
ATOM      1  N   UNL     1      31.585  -8.009 -21.486  0.00  0.00    -0.249 N 
ATOM      2  N   UNL     1      31.886  -7.573 -19.313  0.00  0.00    -0.375 NA
ATOM      3  C   UNL     1      31.294  -9.168 -20.815  0.00  0.00    +0.208 C 
ATOM      4  C   UNL     1      31.941  -7.064 -20.528  0.00  0.00    +0.189 C 
ATOM      5  C   UNL     1      31.555  -7.747 -22.855  0.00  0.00    +0.071 C 
ATOM      6  C   UNL     1      31.885  -6.516 -23.283  0.00  0.00    +0.054 C 
ATOM      7  C   UNL     1      31.488  -8.875 -19.485  0.00  0.00    +0.182 C 
ATOM      8  C   UNL     1      32.289  -5.763 -20.995  0.00  0.00    +0.048 C 
ATOM      9  C   UNL     1      32.264  -5.497 -22.316  0.00  0.00    +0.008 C 
ATOM     10  N   UNL     1      31.317  -9.724 -18.447  0.00  0.00    -0.335 N 
ATOM     11  H   UNL     1      31.481  -9.415 -17.528  0.00  0.00    +0.144 HD
ATOM     12  H   UNL     1      31.028 -10.651 -18.612  0.00  0.00    +0.144 HD
ENDROOT
BRANCH   3  14
ATOM     13  O   UNL     1      29.722 -10.653 -21.798  0.00  0.00    -0.289 OA
ATOM     14  C   UNL     1      30.884 -10.400 -21.414  0.00  0.00    +0.200 C 
BRANCH  14  15
ATOM     15  C   UNL     1      31.859 -11.515 -21.650  0.00  0.00    +0.037 C 
ATOM     16  C   UNL     1      31.980 -12.490 -20.692  0.00  0.00    +0.003 C 
ATOM     17  C   UNL     1      32.588 -11.508 -22.813  0.00  0.00    +0.003 C 
ATOM     18  C   UNL     1      32.887 -13.527 -20.912  0.00  0.00    +0.000 C 
ATOM     19  C   UNL     1      33.496 -12.544 -23.033  0.00  0.00    +0.000 C 
ATOM     20  C   UNL     1      33.645 -13.554 -22.082  0.00  0.00    +0.000 C 
ENDBRANCH  14  15
ENDBRANCH   3  14
BRANCH   6  22
ATOM     21  O   UNL     1      31.046  -6.800 -25.454  0.00  0.00    -0.286 OA
ATOM     22  C   UNL     1      31.857  -6.236 -24.718  0.00  0.00    +0.201 C 
BRANCH  22  25
ATOM     23  F   UNL     1      34.557  -6.839 -25.181  0.00  0.00    -0.204 F 
ATOM     24  F   UNL     1      31.059  -3.632 -25.390  0.00  0.00    -0.204 F 
ATOM     25  C   UNL     1      32.805  -5.238 -25.284  0.00  0.00    +0.094 C 
ATOM     26  C   UNL     1      34.119  -5.608 -25.483  0.00  0.00    +0.145 C 
ATOM     27  C   UNL     1      32.339  -3.977 -25.589  0.00  0.00    +0.145 C 
ATOM     28  C   UNL     1      35.007  -4.673 -26.013  0.00  0.00    +0.030 C 
ATOM     29  C   UNL     1      33.228  -3.043 -26.119  0.00  0.00    +0.030 C 
ATOM     30  C   UNL     1      34.562  -3.390 -26.331  0.00  0.00    +0.005 C 
ENDBRANCH  22  25
ENDBRANCH   6  22
TORSDOF 4
ENDMDL
MODEL 7
REMARK VINA RESULT:     -11.1      5.815     10.811
REMARK  Name = 5289179
REMARK  4 active torsions:
REMARK  status: ('A' for Active; 'I' for Inactive)
REMARK    1  A    between atoms: C_3  and  C_14
REMARK    2  A    between atoms: C_6  and  C_22
REMARK    3  A    between atoms: C_14  and  C_15
REMARK    4  A    between atoms: C_22  and  C_25
REMARK                            x       y       z     vdW  Elec       q    Type
REMARK                         _______ _______ _______ _____ _____    ______ ____
ROOT
ATOM      1  N   UNL     1      34.366 -21.733 -17.863  0.00  0.00    -0.249 N 
ATOM      2  N   UNL     1      32.154 -21.743 -18.196  0.00  0.00    -0.375 NA
ATOM      3  C   UNL     1      34.152 -21.112 -19.067  0.00  0.00    +0.208 C 
ATOM      4  C   UNL     1      33.117 -22.101 -17.370  0.00  0.00    +0.189 C 
ATOM      5  C   UNL     1      35.564 -21.986 -17.198  0.00  0.00    +0.071 C 
ATOM      6  C   UNL     1      35.522 -22.619 -16.013  0.00  0.00    +0.054 C 
ATOM      7  C   UNL     1      32.789 -21.132 -19.248  0.00  0.00    +0.182 C 
ATOM      8  C   UNL     1      33.086 -22.771 -16.113  0.00  0.00    +0.048 C 
ATOM      9  C   UNL     1      34.238 -23.021 -15.460  0.00  0.00    +0.008 C 
ATOM     10  N   UNL     1      32.116 -20.626 -20.305  0.00  0.00    -0.335 N 
ATOM     11  H   UNL     1      31.135 -20.689 -20.340  0.00  0.00    +0.144 HD
ATOM     12  H   UNL     1      32.609 -20.192 -21.040  0.00  0.00    +0.144 HD
ENDROOT
BRANCH   3  14
ATOM     13  O   UNL     1      36.340 -20.995 -19.983  0.00  0.00    -0.289 OA
ATOM     14  C   UNL     1      35.166 -20.575 -19.921  0.00  0.00    +0.200 C 
BRANCH  14  15
ATOM     15  C   UNL     1      34.877 -19.435 -20.852  0.00  0.00    +0.037 C 
ATOM     16  C   UNL     1      34.271 -19.709 -22.052  0.00  0.00    +0.003 C 
ATOM     17  C   UNL     1      35.235 -18.168 -20.461  0.00  0.00    +0.003 C 
ATOM     18  C   UNL     1      34.004 -18.648 -22.918  0.00  0.00    +0.000 C 
ATOM     19  C   UNL     1      34.967 -17.107 -21.326  0.00  0.00    +0.000 C 
ATOM     20  C   UNL     1      34.352 -17.348 -22.555  0.00  0.00    +0.000 C 
ENDBRANCH  14  15
ENDBRANCH   3  14
BRANCH   6  22
ATOM     21  O   UNL     1      37.835 -22.394 -15.701  0.00  0.00    -0.286 OA
ATOM     22  C   UNL     1      36.776 -22.889 -15.311  0.00  0.00    +0.201 C 
BRANCH  22  25
ATOM     23  F   UNL     1      36.859 -21.819 -12.719  0.00  0.00    -0.204 F 
ATOM     24  F   UNL     1      36.662 -25.687 -15.470  0.00  0.00    -0.204 F 
ATOM     25  C   UNL     1      36.761 -23.751 -14.098  0.00  0.00    +0.094 C 
ATOM     26  C   UNL     1      36.805 -23.152 -12.857  0.00  0.00    +0.145 C 
ATOM     27  C   UNL     1      36.704 -25.119 -14.257  0.00  0.00    +0.145 C 
ATOM     28  C   UNL     1      36.791 -23.960 -11.720  0.00  0.00    +0.030 C 
ATOM     29  C   UNL     1      36.690 -25.927 -13.120  0.00  0.00    +0.030 C 
ATOM     30  C   UNL     1      36.734 -25.348 -11.852  0.00  0.00    +0.005 C 
ENDBRANCH  22  25
ENDBRANCH   6  22
TORSDOF 4
ENDMDL
MODEL 8
REMARK VINA RESULT:     -11.1      5.811     10.823
REMARK  Name = 5289179
REMARK  4 active torsions:
REMARK  status: ('A' for Active; 'I' for Inactive)
REMARK    1  A    between atoms: C_3  and  C_14
REMARK    2  A    between atoms: C_6  and  C_22
REMARK    3  A    between atoms: C_14  and  C_15
REMARK    4  A    between atoms: C_22  and  C_25
REMARK                            x       y       z     vdW  Elec       q    Type
REMARK                         _______ _______ _______ _____ _____    ______ ____
ROOT
ATOM      1  N   UNL     1      34.365 -21.731 -17.870  0.00  0.00    -0.249 N 
ATOM      2  N   UNL     1      32.153 -21.738 -18.202  0.00  0.00    -0.375 NA
ATOM      3  C   UNL     1      34.151 -21.106 -19.072  0.00  0.00    +0.208 C 
ATOM      4  C   UNL     1      33.115 -22.098 -17.377  0.00  0.00    +0.189 C 
ATOM      5  C   UNL     1      35.562 -21.985 -17.205  0.00  0.00    +0.071 C 
ATOM      6  C   UNL     1      35.521 -22.621 -16.022  0.00  0.00    +0.054 C 
ATOM      7  C   UNL     1      32.788 -21.125 -19.252  0.00  0.00    +0.182 C 
ATOM      8  C   UNL     1      33.085 -22.772 -16.121  0.00  0.00    +0.048 C 
ATOM      9  C   UNL     1      34.237 -23.024 -15.469  0.00  0.00    +0.008 C 
ATOM     10  N   UNL     1      32.115 -20.616 -20.308  0.00  0.00    -0.335 N 
ATOM     11  H   UNL     1      31.134 -20.679 -20.343  0.00  0.00    +0.144 HD
ATOM     12  H   UNL     1      32.608 -20.181 -21.042  0.00  0.00    +0.144 HD
ENDROOT
BRANCH   3  14
ATOM     13  O   UNL     1      36.340 -20.987 -19.985  0.00  0.00    -0.289 OA
ATOM     14  C   UNL     1      35.164 -20.568 -19.925  0.00  0.00    +0.200 C 
BRANCH  14  15
ATOM     15  C   UNL     1      34.875 -19.429 -20.857  0.00  0.00    +0.037 C 
ATOM     16  C   UNL     1      34.275 -19.706 -22.059  0.00  0.00    +0.003 C 
ATOM     17  C   UNL     1      35.226 -18.161 -20.465  0.00  0.00    +0.003 C 
ATOM     18  C   UNL     1      34.007 -18.646 -22.926  0.00  0.00    +0.000 C 
ATOM     19  C   UNL     1      34.958 -17.101 -21.331  0.00  0.00    +0.000 C 
ATOM     20  C   UNL     1      34.348 -17.345 -22.562  0.00  0.00    +0.000 C 
ENDBRANCH  14  15
ENDBRANCH   3  14
BRANCH   6  22
ATOM     21  O   UNL     1      37.835 -22.403 -15.713  0.00  0.00    -0.286 OA
ATOM     22  C   UNL     1      36.775 -22.893 -15.320  0.00  0.00    +0.201 C 
BRANCH  22  25
ATOM     23  F   UNL     1      36.659 -25.691 -15.473  0.00  0.00    -0.204 F 
ATOM     24  F   UNL     1      36.858 -21.818 -12.731  0.00  0.00    -0.204 F 
ATOM     25  C   UNL     1      36.758 -23.752 -14.105  0.00  0.00    +0.094 C 
ATOM     26  C   UNL     1      36.700 -25.121 -14.260  0.00  0.00    +0.145 C 
ATOM     27  C   UNL     1      36.802 -23.150 -12.866  0.00  0.00    +0.145 C 
ATOM     28  C   UNL     1      36.684 -25.926 -13.121  0.00  0.00    +0.030 C 
ATOM     29  C   UNL     1      36.785 -23.956 -11.728  0.00  0.00    +0.030 C 
ATOM     30  C   UNL     1      36.726 -25.344 -11.855  0.00  0.00    +0.005 C 
ENDBRANCH  22  25
ENDBRANCH   6  22
TORSDOF 4
ENDMDL
MODEL 9
REMARK VINA RESULT:     -11.0      6.924     10.932
REMARK  Name = 5289179
REMARK  4 active torsions:
REMARK  status: ('A' for Active; 'I' for Inactive)
REMARK    1  A    between atoms: C_3  and  C_14
REMARK    2  A    between atoms: C_6  and  C_22
REMARK    3  A    between atoms: C_14  and  C_15
REMARK    4  A    between atoms: C_22  and  C_25
REMARK                            x       y       z     vdW  Elec       q    Type
REMARK                         _______ _______ _______ _____ _____    ______ ____
ROOT
ATOM      1  N   UNL     1      33.954 -22.894 -15.530  0.00  0.00    -0.249 N 
ATOM      2  N   UNL     1      36.038 -22.193 -15.121  0.00  0.00    -0.375 NA
ATOM      3  C   UNL     1      34.503 -22.577 -16.747  0.00  0.00    +0.208 C 
ATOM      4  C   UNL     1      34.929 -22.643 -14.569  0.00  0.00    +0.189 C 
ATOM      5  C   UNL     1      32.681 -23.376 -15.232  0.00  0.00    +0.071 C 
ATOM      6  C   UNL     1      32.367 -23.616 -13.948  0.00  0.00    +0.054 C 
ATOM      7  C   UNL     1      35.779 -22.150 -16.467  0.00  0.00    +0.182 C 
ATOM      8  C   UNL     1      34.583 -22.901 -13.210  0.00  0.00    +0.048 C 
ATOM      9  C   UNL     1      33.355 -23.368 -12.909  0.00  0.00    +0.008 C 
ATOM     10  N   UNL     1      36.698 -21.735 -17.368  0.00  0.00    -0.335 N 
ATOM     11  H   UNL     1      37.589 -21.448 -17.066  0.00  0.00    +0.144 HD
ATOM     12  H   UNL     1      36.474 -21.720 -18.327  0.00  0.00    +0.144 HD
ENDROOT
BRANCH   3  14
ATOM     13  O   UNL     1      33.254 -23.703 -18.424  0.00  0.00    -0.289 OA
ATOM     14  C   UNL     1      33.845 -22.683 -18.012  0.00  0.00    +0.200 C 
BRANCH  14  15
ATOM     15  C   UNL     1      33.802 -21.527 -18.967  0.00  0.00    +0.037 C 
ATOM     16  C   UNL     1      32.587 -20.949 -19.237  0.00  0.00    +0.003 C 
ATOM     17  C   UNL     1      34.980 -21.102 -19.529  0.00  0.00    +0.003 C 
ATOM     18  C   UNL     1      32.548 -19.874 -20.126  0.00  0.00    +0.000 C 
ATOM     19  C   UNL     1      34.941 -20.027 -20.418  0.00  0.00    +0.000 C 
ATOM     20  C   UNL     1      33.723 -19.413 -20.716  0.00  0.00    +0.000 C 
ENDBRANCH  14  15
ENDBRANCH   3  14
BRANCH   6  22
ATOM     21  O   UNL     1      30.853 -24.853 -12.654  0.00  0.00    -0.286 OA
ATOM     22  C   UNL     1      31.032 -24.120 -13.628  0.00  0.00    +0.201 C 
BRANCH  22  25
ATOM     23  F   UNL     1      29.558 -25.983 -15.118  0.00  0.00    -0.204 F 
ATOM     24  F   UNL     1      30.192 -21.452 -13.842  0.00  0.00    -0.204 F 
ATOM     25  C   UNL     1      29.879 -23.718 -14.478  0.00  0.00    +0.094 C 
ATOM     26  C   UNL     1      29.202 -24.692 -15.183  0.00  0.00    +0.145 C 
ATOM     27  C   UNL     1      29.525 -22.387 -14.533  0.00  0.00    +0.145 C 
ATOM     28  C   UNL     1      28.121 -24.315 -15.980  0.00  0.00    +0.030 C 
ATOM     29  C   UNL     1      28.445 -22.012 -15.330  0.00  0.00    +0.030 C 
ATOM     30  C   UNL     1      27.743 -22.975 -16.054  0.00  0.00    +0.005 C 
ENDBRANCH  22  25
ENDBRANCH   6  22
TORSDOF 4
ENDMDL
