MODEL 1
REMARK VINA RESULT:     -12.2      0.000      0.000
REMARK  Name = 11441375
REMARK  6 active torsions:
REMARK  status: ('A' for Active; 'I' for Inactive)
REMARK    1  A    between atoms: C_1  and  C_13
REMARK    2  A    between atoms: C_9  and  O_18
REMARK    3  A    between atoms: N_12  and  C_15
REMARK    4  A    between atoms: O_18  and  C_21
REMARK    5  A    between atoms: C_24  and  O_29
REMARK    6  A    between atoms: C_27  and  O_31
REMARK                            x       y       z     vdW  Elec       q    Type
REMARK                         _______ _______ _______ _____ _____    ______ ____
ROOT
ATOM      1  C   UNL     1      33.761 -21.914 -17.601  0.00  0.00    +0.053 C 
ATOM      2  C   UNL     1      34.223 -21.068 -18.623  0.00  0.00    +0.005 C 
ATOM      3  C   UNL     1      34.647 -22.449 -16.665  0.00  0.00    +0.005 C 
ATOM      4  C   UNL     1      35.602 -20.761 -18.696  0.00  0.00    +0.003 C 
ATOM      5  C   UNL     1      33.346 -20.522 -19.573  0.00  0.00    +0.003 C 
ATOM      6  C   UNL     1      36.003 -22.146 -16.737  0.00  0.00    +0.000 C 
ATOM      7  C   UNL     1      36.480 -21.308 -17.746  0.00  0.00    +0.000 C 
ATOM      8  C   UNL     1      36.064 -19.915 -19.718  0.00  0.00    +0.037 C 
ATOM      9  C   UNL     1      35.179 -19.380 -20.654  0.00  0.00    +0.145 C 
ATOM     10  C   UNL     1      33.823 -19.682 -20.582  0.00  0.00    +0.037 C 
ENDROOT
BRANCH   1  13
ATOM     11  O   UNL     1      31.550 -22.037 -18.375  0.00  0.00    -0.270 OA
ATOM     12  N   UNL     1      31.973 -22.875 -16.256  0.00  0.00    -0.302 N 
ATOM     13  C   UNL     1      32.354 -22.277 -17.460  0.00  0.00    +0.246 C 
ATOM     14  H   UNL     1      32.664 -23.036 -15.573  0.00  0.00    +0.150 HD
BRANCH  12  15
ATOM     15  C   UNL     1      30.621 -23.266 -15.966  0.00  0.00    +0.072 C 
ATOM     16  C   UNL     1      29.867 -22.626 -14.847  0.00  0.00    +0.021 C 
ATOM     17  C   UNL     1      30.301 -24.059 -14.742  0.00  0.00    +0.021 C 
ENDBRANCH  12  15
ENDBRANCH   1  13
BRANCH   9  18
ATOM     18  O   UNL     1      35.641 -18.560 -21.637  0.00  0.00    -0.453 OA
BRANCH  18  21
ATOM     19  N   UNL     1      33.271 -18.126 -25.012  0.00  0.00    -0.244 NA
ATOM     20  C   UNL     1      34.348 -17.137 -23.097  0.00  0.00    +0.055 C 
ATOM     21  C   UNL     1      34.847 -18.390 -22.759  0.00  0.00    +0.148 C 
ATOM     22  C   UNL     1      33.548 -17.047 -24.255  0.00  0.00    +0.087 C 
ATOM     23  C   UNL     1      34.617 -15.990 -22.330  0.00  0.00    +0.045 C 
ATOM     24  C   UNL     1      34.096 -14.755 -22.705  0.00  0.00    +0.173 C 
ATOM     25  C   UNL     1      34.576 -19.505 -23.521  0.00  0.00    +0.058 C 
ATOM     26  C   UNL     1      33.041 -15.799 -24.606  0.00  0.00    +0.059 C 
ATOM     27  C   UNL     1      33.307 -14.659 -23.844  0.00  0.00    +0.174 C 
ATOM     28  C   UNL     1      33.783 -19.320 -24.636  0.00  0.00    +0.102 C 
BRANCH  24  29
ATOM     29  O   UNL     1      34.366 -13.653 -21.951  0.00  0.00    -0.468 OA
ATOM     30  C   UNL     1      33.668 -13.527 -20.713  0.00  0.00    +0.253 C 
ENDBRANCH  24  29
BRANCH  27  31
ATOM     31  O   UNL     1      32.789 -13.460 -24.230  0.00  0.00    -0.468 OA
ATOM     32  C   UNL     1      32.706 -13.210 -25.631  0.00  0.00    +0.253 C 
ENDBRANCH  27  31
ENDBRANCH  18  21
ENDBRANCH   9  18
TORSDOF 6
ENDMDL
MODEL 2
REMARK VINA RESULT:     -12.0      5.597      9.856
REMARK  Name = 11441375
REMARK  6 active torsions:
REMARK  status: ('A' for Active; 'I' for Inactive)
REMARK    1  A    between atoms: C_1  and  C_13
REMARK    2  A    between atoms: C_9  and  O_18
REMARK    3  A    between atoms: N_12  and  C_15
REMARK    4  A    between atoms: O_18  and  C_21
REMARK    5  A    between atoms: C_24  and  O_29
REMARK    6  A    between atoms: C_27  and  O_31
REMARK                            x       y       z     vdW  Elec       q    Type
REMARK                         _______ _______ _______ _____ _____    ______ ____
ROOT
ATOM      1  C   UNL     1      33.681 -14.538 -22.469  0.00  0.00    +0.053 C 
ATOM      2  C   UNL     1      32.865 -13.429 -22.188  0.00  0.00    +0.005 C 
ATOM      3  C   UNL     1      34.034 -14.847 -23.783  0.00  0.00    +0.005 C 
ATOM      4  C   UNL     1      32.400 -12.625 -23.255  0.00  0.00    +0.003 C 
ATOM      5  C   UNL     1      32.501 -13.104 -20.872  0.00  0.00    +0.003 C 
ATOM      6  C   UNL     1      33.577 -14.055 -24.832  0.00  0.00    +0.000 C 
ATOM      7  C   UNL     1      32.764 -12.950 -24.571  0.00  0.00    +0.000 C 
ATOM      8  C   UNL     1      31.584 -11.517 -22.974  0.00  0.00    +0.037 C 
ATOM      9  C   UNL     1      31.232 -11.207 -21.660  0.00  0.00    +0.145 C 
ATOM     10  C   UNL     1      31.689 -11.999 -20.611  0.00  0.00    +0.037 C 
ENDROOT
BRANCH   1  13
ATOM     11  O   UNL     1      34.170 -15.058 -20.234  0.00  0.00    -0.270 OA
ATOM     12  N   UNL     1      34.739 -16.637 -21.832  0.00  0.00    -0.302 N 
ATOM     13  C   UNL     1      34.201 -15.414 -21.423  0.00  0.00    +0.246 C 
ATOM     14  H   UNL     1      34.731 -16.855 -22.792  0.00  0.00    +0.150 HD
BRANCH  12  15
ATOM     15  C   UNL     1      35.305 -17.591 -20.919  0.00  0.00    +0.072 C 
ATOM     16  C   UNL     1      36.481 -18.421 -21.317  0.00  0.00    +0.021 C 
ATOM     17  C   UNL     1      35.133 -19.057 -21.143  0.00  0.00    +0.021 C 
ENDBRANCH  12  15
ENDBRANCH   1  13
BRANCH   9  18
ATOM     18  O   UNL     1      30.442 -10.129 -21.403  0.00  0.00    -0.453 OA
BRANCH  18  21
ATOM     19  N   UNL     1      32.190  -6.910 -19.459  0.00  0.00    -0.244 NA
ATOM     20  C   UNL     1      31.187  -7.832 -21.445  0.00  0.00    +0.055 C 
ATOM     21  C   UNL     1      31.023  -9.040 -20.775  0.00  0.00    +0.148 C 
ATOM     22  C   UNL     1      31.787  -6.772 -20.736  0.00  0.00    +0.087 C 
ATOM     23  C   UNL     1      30.777  -7.652 -22.777  0.00  0.00    +0.045 C 
ATOM     24  C   UNL     1      30.960  -6.427 -23.411  0.00  0.00    +0.173 C 
ATOM     25  C   UNL     1      31.429  -9.201 -19.468  0.00  0.00    +0.058 C 
ATOM     26  C   UNL     1      31.957  -5.557 -21.394  0.00  0.00    +0.059 C 
ATOM     27  C   UNL     1      31.551  -5.377 -22.718  0.00  0.00    +0.174 C 
ATOM     28  C   UNL     1      32.007  -8.107 -18.856  0.00  0.00    +0.102 C 
BRANCH  24  29
ATOM     29  O   UNL     1      30.558  -6.268 -24.702  0.00  0.00    -0.468 OA
ATOM     30  C   UNL     1      31.554  -6.407 -25.714  0.00  0.00    +0.253 C 
ENDBRANCH  24  29
BRANCH  27  31
ATOM     31  O   UNL     1      31.738  -4.169 -23.318  0.00  0.00    -0.468 OA
ATOM     32  C   UNL     1      31.105  -3.042 -22.717  0.00  0.00    +0.253 C 
ENDBRANCH  27  31
ENDBRANCH  18  21
ENDBRANCH   9  18
TORSDOF 6
ENDMDL
MODEL 3
REMARK VINA RESULT:     -12.0      2.403      9.111
REMARK  Name = 11441375
REMARK  6 active torsions:
REMARK  status: ('A' for Active; 'I' for Inactive)
REMARK    1  A    between atoms: C_1  and  C_13
REMARK    2  A    between atoms: C_9  and  O_18
REMARK    3  A    between atoms: N_12  and  C_15
REMARK    4  A    between atoms: O_18  and  C_21
REMARK    5  A    between atoms: C_24  and  O_29
REMARK    6  A    between atoms: C_27  and  O_31
REMARK                            x       y       z     vdW  Elec       q    Type
REMARK                         _______ _______ _______ _____ _____    ______ ____
ROOT
ATOM      1  C   UNL     1      33.567 -14.207 -23.084  0.00  0.00    +0.053 C 
ATOM      2  C   UNL     1      33.958 -15.428 -22.510  0.00  0.00    +0.005 C 
ATOM      3  C   UNL     1      33.319 -14.111 -24.453  0.00  0.00    +0.005 C 
ATOM      4  C   UNL     1      34.100 -16.567 -23.337  0.00  0.00    +0.003 C 
ATOM      5  C   UNL     1      34.210 -15.542 -21.133  0.00  0.00    +0.003 C 
ATOM      6  C   UNL     1      33.459 -15.232 -25.266  0.00  0.00    +0.000 C 
ATOM      7  C   UNL     1      33.848 -16.453 -24.713  0.00  0.00    +0.000 C 
ATOM      8  C   UNL     1      34.491 -17.788 -22.763  0.00  0.00    +0.037 C 
ATOM      9  C   UNL     1      34.738 -17.884 -21.393  0.00  0.00    +0.145 C 
ATOM     10  C   UNL     1      34.598 -16.764 -20.580  0.00  0.00    +0.037 C 
ENDROOT
BRANCH   1  13
ATOM     11  O   UNL     1      34.237 -12.677 -21.436  0.00  0.00    -0.270 OA
ATOM     12  N   UNL     1      32.254 -12.228 -22.547  0.00  0.00    -0.302 N 
ATOM     13  C   UNL     1      33.397 -12.990 -22.296  0.00  0.00    +0.246 C 
ATOM     14  H   UNL     1      31.629 -12.535 -23.244  0.00  0.00    +0.150 HD
BRANCH  12  15
ATOM     15  C   UNL     1      31.944 -11.018 -21.837  0.00  0.00    +0.072 C 
ATOM     16  C   UNL     1      31.277 -11.068 -20.502  0.00  0.00    +0.021 C 
ATOM     17  C   UNL     1      30.531 -10.555 -21.698  0.00  0.00    +0.021 C 
ENDBRANCH  12  15
ENDBRANCH   1  13
BRANCH   9  18
ATOM     18  O   UNL     1      35.114 -19.074 -20.852  0.00  0.00    -0.453 OA
BRANCH  18  21
ATOM     19  N   UNL     1      32.098 -21.456 -19.294  0.00  0.00    -0.244 NA
ATOM     20  C   UNL     1      34.390 -20.716 -19.235  0.00  0.00    +0.055 C 
ATOM     21  C   UNL     1      34.123 -19.879 -20.314  0.00  0.00    +0.148 C 
ATOM     22  C   UNL     1      33.327 -21.503 -18.747  0.00  0.00    +0.087 C 
ATOM     23  C   UNL     1      35.660 -20.790 -18.640  0.00  0.00    +0.045 C 
ATOM     24  C   UNL     1      35.883 -21.641 -17.562  0.00  0.00    +0.173 C 
ATOM     25  C   UNL     1      32.873 -19.817 -20.888  0.00  0.00    +0.058 C 
ATOM     26  C   UNL     1      33.578 -22.346 -17.668  0.00  0.00    +0.059 C 
ATOM     27  C   UNL     1      34.841 -22.421 -17.074  0.00  0.00    +0.174 C 
ATOM     28  C   UNL     1      31.895 -20.624 -20.341  0.00  0.00    +0.102 C 
BRANCH  24  29
ATOM     29  O   UNL     1      37.120 -21.702 -16.995  0.00  0.00    -0.468 OA
ATOM     30  C   UNL     1      37.487 -20.633 -16.124  0.00  0.00    +0.253 C 
ENDBRANCH  24  29
BRANCH  27  31
ATOM     31  O   UNL     1      35.036 -23.259 -16.020  0.00  0.00    -0.468 OA
ATOM     32  C   UNL     1      34.055 -23.241 -14.986  0.00  0.00    +0.253 C 
ENDBRANCH  27  31
ENDBRANCH  18  21
ENDBRANCH   9  18
TORSDOF 6
ENDMDL
MODEL 4
REMARK VINA RESULT:     -11.7      1.758      2.644
REMARK  Name = 11441375
REMARK  6 active torsions:
REMARK  status: ('A' for Active; 'I' for Inactive)
REMARK    1  A    between atoms: C_1  and  C_13
REMARK    2  A    between atoms: C_9  and  O_18
REMARK    3  A    between atoms: N_12  and  C_15
REMARK    4  A    between atoms: O_18  and  C_21
REMARK    5  A    between atoms: C_24  and  O_29
REMARK    6  A    between atoms: C_27  and  O_31
REMARK                            x       y       z     vdW  Elec       q    Type
REMARK                         _______ _______ _______ _____ _____    ______ ____
ROOT
ATOM      1  C   UNL     1      34.529 -21.834 -17.733  0.00  0.00    +0.053 C 
ATOM      2  C   UNL     1      34.845 -20.907 -18.740  0.00  0.00    +0.005 C 
ATOM      3  C   UNL     1      33.231 -22.329 -17.603  0.00  0.00    +0.005 C 
ATOM      4  C   UNL     1      33.830 -20.477 -19.627  0.00  0.00    +0.003 C 
ATOM      5  C   UNL     1      36.146 -20.400 -18.885  0.00  0.00    +0.003 C 
ATOM      6  C   UNL     1      32.233 -21.905 -18.476  0.00  0.00    +0.000 C 
ATOM      7  C   UNL     1      32.529 -20.984 -19.482  0.00  0.00    +0.000 C 
ATOM      8  C   UNL     1      34.147 -19.550 -20.634  0.00  0.00    +0.037 C 
ATOM      9  C   UNL     1      35.445 -19.055 -20.764  0.00  0.00    +0.145 C 
ATOM     10  C   UNL     1      36.442 -19.479 -19.891  0.00  0.00    +0.037 C 
ENDROOT
BRANCH   1  13
ATOM     11  O   UNL     1      36.722 -22.054 -16.930  0.00  0.00    -0.270 OA
ATOM     12  N   UNL     1      35.050 -23.120 -15.732  0.00  0.00    -0.302 N 
ATOM     13  C   UNL     1      35.520 -22.327 -16.781  0.00  0.00    +0.246 C 
ATOM     14  H   UNL     1      34.083 -23.297 -15.674  0.00  0.00    +0.150 HD
BRANCH  12  15
ATOM     15  C   UNL     1      35.910 -23.692 -14.733  0.00  0.00    +0.072 C 
ATOM     16  C   UNL     1      36.048 -25.173 -14.604  0.00  0.00    +0.021 C 
ATOM     17  C   UNL     1      35.339 -24.387 -13.541  0.00  0.00    +0.021 C 
ENDBRANCH  12  15
ENDBRANCH   1  13
BRANCH   9  18
ATOM     18  O   UNL     1      35.737 -18.159 -21.746  0.00  0.00    -0.453 OA
BRANCH  18  21
ATOM     19  N   UNL     1      33.145 -17.992 -24.979  0.00  0.00    -0.244 NA
ATOM     20  C   UNL     1      34.308 -16.861 -23.197  0.00  0.00    +0.055 C 
ATOM     21  C   UNL     1      34.868 -18.078 -22.822  0.00  0.00    +0.148 C 
ATOM     22  C   UNL     1      33.434 -16.863 -24.304  0.00  0.00    +0.087 C 
ATOM     23  C   UNL     1      34.587 -15.665 -22.516  0.00  0.00    +0.045 C 
ATOM     24  C   UNL     1      34.005 -14.469 -22.924  0.00  0.00    +0.173 C 
ATOM     25  C   UNL     1      34.585 -19.243 -23.500  0.00  0.00    +0.058 C 
ATOM     26  C   UNL     1      32.865 -15.653 -24.691  0.00  0.00    +0.059 C 
ATOM     27  C   UNL     1      33.142 -14.463 -24.014  0.00  0.00    +0.174 C 
ATOM     28  C   UNL     1      33.718 -19.146 -24.571  0.00  0.00    +0.102 C 
BRANCH  24  29
ATOM     29  O   UNL     1      34.286 -13.318 -22.254  0.00  0.00    -0.468 OA
ATOM     30  C   UNL     1      33.588 -13.093 -21.029  0.00  0.00    +0.253 C 
ENDBRANCH  24  29
BRANCH  27  31
ATOM     31  O   UNL     1      32.562 -13.304 -24.432  0.00  0.00    -0.468 OA
ATOM     32  C   UNL     1      32.726 -12.955 -25.805  0.00  0.00    +0.253 C 
ENDBRANCH  27  31
ENDBRANCH  18  21
ENDBRANCH   9  18
TORSDOF 6
ENDMDL
MODEL 5
REMARK VINA RESULT:     -11.6      2.409      9.224
REMARK  Name = 11441375
REMARK  6 active torsions:
REMARK  status: ('A' for Active; 'I' for Inactive)
REMARK    1  A    between atoms: C_1  and  C_13
REMARK    2  A    between atoms: C_9  and  O_18
REMARK    3  A    between atoms: N_12  and  C_15
REMARK    4  A    between atoms: O_18  and  C_21
REMARK    5  A    between atoms: C_24  and  O_29
REMARK    6  A    between atoms: C_27  and  O_31
REMARK                            x       y       z     vdW  Elec       q    Type
REMARK                         _______ _______ _______ _____ _____    ______ ____
ROOT
ATOM      1  C   UNL     1      34.000 -16.431 -23.256  0.00  0.00    +0.053 C 
ATOM      2  C   UNL     1      34.448 -17.413 -22.356  0.00  0.00    +0.005 C 
ATOM      3  C   UNL     1      33.432 -16.792 -24.478  0.00  0.00    +0.005 C 
ATOM      4  C   UNL     1      34.318 -18.778 -22.702  0.00  0.00    +0.003 C 
ATOM      5  C   UNL     1      35.021 -17.067 -21.122  0.00  0.00    +0.003 C 
ATOM      6  C   UNL     1      33.305 -18.135 -24.817  0.00  0.00    +0.000 C 
ATOM      7  C   UNL     1      33.745 -19.124 -23.936  0.00  0.00    +0.000 C 
ATOM      8  C   UNL     1      34.765 -19.760 -21.802  0.00  0.00    +0.037 C 
ATOM      9  C   UNL     1      35.332 -19.399 -20.579  0.00  0.00    +0.145 C 
ATOM     10  C   UNL     1      35.460 -18.056 -20.240  0.00  0.00    +0.037 C 
ENDROOT
BRANCH   1  13
ATOM     11  O   UNL     1      34.810 -14.270 -23.676  0.00  0.00    -0.270 OA
ATOM     12  N   UNL     1      33.379 -14.526 -21.872  0.00  0.00    -0.302 N 
ATOM     13  C   UNL     1      34.098 -15.003 -22.971  0.00  0.00    +0.246 C 
ATOM     14  H   UNL     1      32.834 -15.163 -21.355  0.00  0.00    +0.150 HD
BRANCH  12  15
ATOM     15  C   UNL     1      33.396 -13.150 -21.459  0.00  0.00    +0.072 C 
ATOM     16  C   UNL     1      32.245 -12.566 -20.707  0.00  0.00    +0.021 C 
ATOM     17  C   UNL     1      32.515 -12.142 -22.121  0.00  0.00    +0.021 C 
ENDBRANCH  12  15
ENDBRANCH   1  13
BRANCH   9  18
ATOM     18  O   UNL     1      35.759 -20.361 -19.717  0.00  0.00    -0.453 OA
BRANCH  18  21
ATOM     19  N   UNL     1      32.842 -22.320 -17.515  0.00  0.00    -0.244 NA
ATOM     20  C   UNL     1      35.141 -21.643 -17.766  0.00  0.00    +0.055 C 
ATOM     21  C   UNL     1      34.803 -21.022 -18.964  0.00  0.00    +0.148 C 
ATOM     22  C   UNL     1      34.109 -22.294 -17.059  0.00  0.00    +0.087 C 
ATOM     23  C   UNL     1      36.451 -21.636 -17.261  0.00  0.00    +0.045 C 
ATOM     24  C   UNL     1      36.746 -22.271 -16.058  0.00  0.00    +0.173 C 
ATOM     25  C   UNL     1      33.513 -21.037 -19.447  0.00  0.00    +0.058 C 
ATOM     26  C   UNL     1      34.432 -22.921 -15.859  0.00  0.00    +0.059 C 
ATOM     27  C   UNL     1      35.735 -22.914 -15.355  0.00  0.00    +0.174 C 
ATOM     28  C   UNL     1      32.570 -21.699 -18.685  0.00  0.00    +0.102 C 
BRANCH  24  29
ATOM     29  O   UNL     1      38.022 -22.254 -15.581  0.00  0.00    -0.468 OA
ATOM     30  C   UNL     1      38.676 -23.514 -15.436  0.00  0.00    +0.253 C 
ENDBRANCH  24  29
BRANCH  27  31
ATOM     31  O   UNL     1      36.000 -23.541 -14.176  0.00  0.00    -0.468 OA
ATOM     32  C   UNL     1      35.844 -22.773 -12.984  0.00  0.00    +0.253 C 
ENDBRANCH  27  31
ENDBRANCH  18  21
ENDBRANCH   9  18
TORSDOF 6
ENDMDL
MODEL 6
REMARK VINA RESULT:     -11.3      1.991      9.450
REMARK  Name = 11441375
REMARK  6 active torsions:
REMARK  status: ('A' for Active; 'I' for Inactive)
REMARK    1  A    between atoms: C_1  and  C_13
REMARK    2  A    between atoms: C_9  and  O_18
REMARK    3  A    between atoms: N_12  and  C_15
REMARK    4  A    between atoms: O_18  and  C_21
REMARK    5  A    between atoms: C_24  and  O_29
REMARK    6  A    between atoms: C_27  and  O_31
REMARK                            x       y       z     vdW  Elec       q    Type
REMARK                         _______ _______ _______ _____ _____    ______ ____
ROOT
ATOM      1  C   UNL     1      34.901 -18.076 -22.025  0.00  0.00    +0.053 C 
ATOM      2  C   UNL     1      34.267 -19.038 -21.222  0.00  0.00    +0.005 C 
ATOM      3  C   UNL     1      36.286 -17.909 -21.978  0.00  0.00    +0.005 C 
ATOM      4  C   UNL     1      35.049 -19.841 -20.358  0.00  0.00    +0.003 C 
ATOM      5  C   UNL     1      32.876 -19.219 -21.258  0.00  0.00    +0.003 C 
ATOM      6  C   UNL     1      37.054 -18.699 -21.128  0.00  0.00    +0.000 C 
ATOM      7  C   UNL     1      36.440 -19.660 -20.322  0.00  0.00    +0.000 C 
ATOM      8  C   UNL     1      34.415 -20.803 -19.555  0.00  0.00    +0.037 C 
ATOM      9  C   UNL     1      33.031 -20.971 -19.603  0.00  0.00    +0.145 C 
ATOM     10  C   UNL     1      32.263 -20.180 -20.453  0.00  0.00    +0.037 C 
ENDROOT
BRANCH   1  13
ATOM     11  O   UNL     1      33.649 -17.680 -23.970  0.00  0.00    -0.270 OA
ATOM     12  N   UNL     1      34.093 -15.855 -22.613  0.00  0.00    -0.302 N 
ATOM     13  C   UNL     1      34.164 -17.211 -22.942  0.00  0.00    +0.246 C 
ATOM     14  H   UNL     1      34.525 -15.551 -21.781  0.00  0.00    +0.150 HD
BRANCH  12  15
ATOM     15  C   UNL     1      33.421 -14.882 -23.428  0.00  0.00    +0.072 C 
ATOM     16  C   UNL     1      33.961 -13.496 -23.563  0.00  0.00    +0.021 C 
ATOM     17  C   UNL     1      32.688 -13.739 -22.807  0.00  0.00    +0.021 C 
ENDBRANCH  12  15
ENDBRANCH   1  13
BRANCH   9  18
ATOM     18  O   UNL     1      32.431 -21.909 -18.820  0.00  0.00    -0.453 OA
BRANCH  18  21
ATOM     19  N   UNL     1      34.292 -22.817 -15.227  0.00  0.00    -0.244 NA
ATOM     20  C   UNL     1      32.262 -22.472 -16.478  0.00  0.00    +0.055 C 
ATOM     21  C   UNL     1      33.029 -22.214 -17.609  0.00  0.00    +0.148 C 
ATOM     22  C   UNL     1      32.947 -22.775 -15.284  0.00  0.00    +0.087 C 
ATOM     23  C   UNL     1      30.857 -22.437 -16.501  0.00  0.00    +0.045 C 
ATOM     24  C   UNL     1      30.128 -22.701 -15.346  0.00  0.00    +0.173 C 
ATOM     25  C   UNL     1      34.406 -22.252 -17.572  0.00  0.00    +0.058 C 
ATOM     26  C   UNL     1      32.192 -23.036 -14.144  0.00  0.00    +0.059 C 
ATOM     27  C   UNL     1      30.796 -23.001 -14.165  0.00  0.00    +0.174 C 
ATOM     28  C   UNL     1      34.988 -22.558 -16.357  0.00  0.00    +0.102 C 
BRANCH  24  29
ATOM     29  O   UNL     1      28.767 -22.664 -15.384  0.00  0.00    -0.468 OA
ATOM     30  C   UNL     1      28.103 -23.791 -15.955  0.00  0.00    +0.253 C 
ENDBRANCH  24  29
BRANCH  27  31
ATOM     31  O   UNL     1      30.102 -23.264 -13.023  0.00  0.00    -0.468 OA
ATOM     32  C   UNL     1      29.882 -24.635 -12.700  0.00  0.00    +0.253 C 
ENDBRANCH  27  31
ENDBRANCH  18  21
ENDBRANCH   9  18
TORSDOF 6
ENDMDL
MODEL 7
REMARK VINA RESULT:     -10.6      6.083     10.276
REMARK  Name = 11441375
REMARK  6 active torsions:
REMARK  status: ('A' for Active; 'I' for Inactive)
REMARK    1  A    between atoms: C_1  and  C_13
REMARK    2  A    between atoms: C_9  and  O_18
REMARK    3  A    between atoms: N_12  and  C_15
REMARK    4  A    between atoms: O_18  and  C_21
REMARK    5  A    between atoms: C_24  and  O_29
REMARK    6  A    between atoms: C_27  and  O_31
REMARK                            x       y       z     vdW  Elec       q    Type
REMARK                         _______ _______ _______ _____ _____    ______ ____
ROOT
ATOM      1  C   UNL     1      33.365 -14.179 -21.590  0.00  0.00    +0.053 C 
ATOM      2  C   UNL     1      32.967 -12.928 -22.089  0.00  0.00    +0.005 C 
ATOM      3  C   UNL     1      32.874 -14.649 -20.372  0.00  0.00    +0.005 C 
ATOM      4  C   UNL     1      32.058 -12.143 -21.342  0.00  0.00    +0.003 C 
ATOM      5  C   UNL     1      33.451 -12.441 -23.314  0.00  0.00    +0.003 C 
ATOM      6  C   UNL     1      31.980 -13.876 -19.637  0.00  0.00    +0.000 C 
ATOM      7  C   UNL     1      31.574 -12.630 -20.117  0.00  0.00    +0.000 C 
ATOM      8  C   UNL     1      31.660 -10.891 -21.841  0.00  0.00    +0.037 C 
ATOM      9  C   UNL     1      32.151 -10.422 -23.060  0.00  0.00    +0.145 C 
ATOM     10  C   UNL     1      33.044 -11.196 -23.795  0.00  0.00    +0.037 C 
ENDROOT
BRANCH   1  13
ATOM     11  O   UNL     1      34.743 -14.712 -23.413  0.00  0.00    -0.270 OA
ATOM     12  N   UNL     1      34.633 -16.256 -21.689  0.00  0.00    -0.302 N 
ATOM     13  C   UNL     1      34.297 -15.047 -22.303  0.00  0.00    +0.246 C 
ATOM     14  H   UNL     1      34.242 -16.459 -20.807  0.00  0.00    +0.150 HD
BRANCH  12  15
ATOM     15  C   UNL     1      35.520 -17.219 -22.280  0.00  0.00    +0.072 C 
ATOM     16  C   UNL     1      35.106 -18.646 -22.430  0.00  0.00    +0.021 C 
ATOM     17  C   UNL     1      36.173 -18.271 -21.444  0.00  0.00    +0.021 C 
ENDBRANCH  12  15
ENDBRANCH   1  13
BRANCH   9  18
ATOM     18  O   UNL     1      31.754  -9.209 -23.531  0.00  0.00    -0.453 OA
BRANCH  18  21
ATOM     19  N   UNL     1      32.149  -5.986 -20.951  0.00  0.00    -0.244 NA
ATOM     20  C   UNL     1      31.989  -6.828 -23.203  0.00  0.00    +0.055 C 
ATOM     21  C   UNL     1      31.887  -8.117 -22.690  0.00  0.00    +0.148 C 
ATOM     22  C   UNL     1      32.121  -5.770 -22.280  0.00  0.00    +0.087 C 
ATOM     23  C   UNL     1      31.963  -6.566 -24.583  0.00  0.00    +0.045 C 
ATOM     24  C   UNL     1      32.067  -5.261 -25.054  0.00  0.00    +0.173 C 
ATOM     25  C   UNL     1      31.914  -8.358 -21.334  0.00  0.00    +0.058 C 
ATOM     26  C   UNL     1      32.224  -4.475 -22.779  0.00  0.00    +0.059 C 
ATOM     27  C   UNL     1      32.198  -4.213 -24.151  0.00  0.00    +0.174 C 
ATOM     28  C   UNL     1      32.047  -7.260 -20.508  0.00  0.00    +0.102 C 
BRANCH  24  29
ATOM     29  O   UNL     1      32.040  -5.023 -26.395  0.00  0.00    -0.468 OA
ATOM     30  C   UNL     1      33.114  -5.555 -27.170  0.00  0.00    +0.253 C 
ENDBRANCH  24  29
BRANCH  27  31
ATOM     31  O   UNL     1      32.301  -2.928 -24.589  0.00  0.00    -0.468 OA
ATOM     32  C   UNL     1      31.394  -1.979 -24.033  0.00  0.00    +0.253 C 
ENDBRANCH  27  31
ENDBRANCH  18  21
ENDBRANCH   9  18
TORSDOF 6
ENDMDL
MODEL 8
REMARK VINA RESULT:     -10.5      2.715      9.701
REMARK  Name = 11441375
REMARK  6 active torsions:
REMARK  status: ('A' for Active; 'I' for Inactive)
REMARK    1  A    between atoms: C_1  and  C_13
REMARK    2  A    between atoms: C_9  and  O_18
REMARK    3  A    between atoms: N_12  and  C_15
REMARK    4  A    between atoms: O_18  and  C_21
REMARK    5  A    between atoms: C_24  and  O_29
REMARK    6  A    between atoms: C_27  and  O_31
REMARK                            x       y       z     vdW  Elec       q    Type
REMARK                         _______ _______ _______ _____ _____    ______ ____
ROOT
ATOM      1  C   UNL     1      34.848 -19.089 -20.834  0.00  0.00    +0.053 C 
ATOM      2  C   UNL     1      34.206 -20.108 -20.111  0.00  0.00    +0.005 C 
ATOM      3  C   UNL     1      36.195 -18.798 -20.612  0.00  0.00    +0.005 C 
ATOM      4  C   UNL     1      34.940 -20.842 -19.150  0.00  0.00    +0.003 C 
ATOM      5  C   UNL     1      32.852 -20.413 -20.323  0.00  0.00    +0.003 C 
ATOM      6  C   UNL     1      36.916 -19.521 -19.667  0.00  0.00    +0.000 C 
ATOM      7  C   UNL     1      36.294 -20.537 -18.939  0.00  0.00    +0.000 C 
ATOM      8  C   UNL     1      34.298 -21.861 -18.428  0.00  0.00    +0.037 C 
ATOM      9  C   UNL     1      32.952 -22.152 -18.650  0.00  0.00    +0.145 C 
ATOM     10  C   UNL     1      32.230 -21.429 -19.596  0.00  0.00    +0.037 C 
ENDROOT
BRANCH   1  13
ATOM     11  O   UNL     1      33.417 -18.833 -22.675  0.00  0.00    -0.270 OA
ATOM     12  N   UNL     1      34.396 -16.912 -21.828  0.00  0.00    -0.302 N 
ATOM     13  C   UNL     1      34.159 -18.289 -21.843  0.00  0.00    +0.246 C 
ATOM     14  H   UNL     1      34.997 -16.547 -21.139  0.00  0.00    +0.150 HD
BRANCH  12  15
ATOM     15  C   UNL     1      33.805 -16.003 -22.771  0.00  0.00    +0.072 C 
ATOM     16  C   UNL     1      34.630 -15.381 -23.849  0.00  0.00    +0.021 C 
ATOM     17  C   UNL     1      34.111 -14.542 -22.718  0.00  0.00    +0.021 C 
ENDBRANCH  12  15
ENDBRANCH   1  13
BRANCH   9  18
ATOM     18  O   UNL     1      32.344 -23.143 -17.944  0.00  0.00    -0.453 OA
BRANCH  18  21
ATOM     19  N   UNL     1      31.246 -22.319 -14.031  0.00  0.00    -0.244 NA
ATOM     20  C   UNL     1      32.862 -23.198 -15.586  0.00  0.00    +0.055 C 
ATOM     21  C   UNL     1      31.999 -22.878 -16.629  0.00  0.00    +0.148 C 
ATOM     22  C   UNL     1      32.437 -22.896 -14.276  0.00  0.00    +0.087 C 
ATOM     23  C   UNL     1      34.112 -23.801 -15.805  0.00  0.00    +0.045 C 
ATOM     24  C   UNL     1      34.945 -24.105 -14.732  0.00  0.00    +0.173 C 
ATOM     25  C   UNL     1      30.776 -22.287 -16.398  0.00  0.00    +0.058 C 
ATOM     26  C   UNL     1      33.290 -23.211 -13.222  0.00  0.00    +0.059 C 
ATOM     27  C   UNL     1      34.533 -23.810 -13.438  0.00  0.00    +0.174 C 
ATOM     28  C   UNL     1      30.447 -22.028 -15.083  0.00  0.00    +0.102 C 
BRANCH  24  29
ATOM     29  O   UNL     1      36.154 -24.689 -14.961  0.00  0.00    -0.468 OA
ATOM     30  C   UNL     1      36.187 -26.114 -15.013  0.00  0.00    +0.253 C 
ENDBRANCH  24  29
BRANCH  27  31
ATOM     31  O   UNL     1      35.332 -24.098 -12.374  0.00  0.00    -0.468 OA
ATOM     32  C   UNL     1      35.777 -23.000 -11.581  0.00  0.00    +0.253 C 
ENDBRANCH  27  31
ENDBRANCH  18  21
ENDBRANCH   9  18
TORSDOF 6
ENDMDL
MODEL 9
REMARK VINA RESULT:     -10.3      3.657     10.404
REMARK  Name = 11441375
REMARK  6 active torsions:
REMARK  status: ('A' for Active; 'I' for Inactive)
REMARK    1  A    between atoms: C_1  and  C_13
REMARK    2  A    between atoms: C_9  and  O_18
REMARK    3  A    between atoms: N_12  and  C_15
REMARK    4  A    between atoms: O_18  and  C_21
REMARK    5  A    between atoms: C_24  and  O_29
REMARK    6  A    between atoms: C_27  and  O_31
REMARK                            x       y       z     vdW  Elec       q    Type
REMARK                         _______ _______ _______ _____ _____    ______ ____
ROOT
ATOM      1  C   UNL     1      33.971 -19.419 -20.927  0.00  0.00    +0.053 C 
ATOM      2  C   UNL     1      34.443 -20.211 -19.868  0.00  0.00    +0.005 C 
ATOM      3  C   UNL     1      32.636 -19.487 -21.327  0.00  0.00    +0.005 C 
ATOM      4  C   UNL     1      33.548 -21.084 -19.206  0.00  0.00    +0.003 C 
ATOM      5  C   UNL     1      35.783 -20.155 -19.453  0.00  0.00    +0.003 C 
ATOM      6  C   UNL     1      31.757 -20.346 -20.676  0.00  0.00    +0.000 C 
ATOM      7  C   UNL     1      32.209 -21.141 -19.621  0.00  0.00    +0.000 C 
ATOM      8  C   UNL     1      34.020 -21.877 -18.146  0.00  0.00    +0.037 C 
ATOM      9  C   UNL     1      35.355 -21.808 -17.746  0.00  0.00    +0.145 C 
ATOM     10  C   UNL     1      36.234 -20.949 -18.398  0.00  0.00    +0.037 C 
ENDROOT
BRANCH   1  13
ATOM     11  O   UNL     1      36.066 -18.618 -21.616  0.00  0.00    -0.270 OA
ATOM     12  N   UNL     1      34.200 -17.472 -22.373  0.00  0.00    -0.302 N 
ATOM     13  C   UNL     1      34.832 -18.493 -21.658  0.00  0.00    +0.246 C 
ATOM     14  H   UNL     1      33.216 -17.432 -22.363  0.00  0.00    +0.150 HD
BRANCH  12  15
ATOM     15  C   UNL     1      34.917 -16.477 -23.121  0.00  0.00    +0.072 C 
ATOM     16  C   UNL     1      34.492 -15.046 -23.088  0.00  0.00    +0.021 C 
ATOM     17  C   UNL     1      34.315 -15.856 -24.338  0.00  0.00    +0.021 C 
ENDBRANCH  12  15
ENDBRANCH   1  13
BRANCH   9  18
ATOM     18  O   UNL     1      35.797 -22.581 -16.716  0.00  0.00    -0.453 OA
BRANCH  18  21
ATOM     19  N   UNL     1      33.080 -23.383 -13.688  0.00  0.00    -0.244 NA
ATOM     20  C   UNL     1      35.368 -23.207 -14.424  0.00  0.00    +0.055 C 
ATOM     21  C   UNL     1      34.909 -22.854 -15.689  0.00  0.00    +0.148 C 
ATOM     22  C   UNL     1      34.400 -23.469 -13.433  0.00  0.00    +0.087 C 
ATOM     23  C   UNL     1      36.737 -23.306 -14.123  0.00  0.00    +0.045 C 
ATOM     24  C   UNL     1      37.152 -23.664 -12.844  0.00  0.00    +0.173 C 
ATOM     25  C   UNL     1      33.564 -22.760 -15.969  0.00  0.00    +0.058 C 
ATOM     26  C   UNL     1      34.844 -23.825 -12.162  0.00  0.00    +0.059 C 
ATOM     27  C   UNL     1      36.204 -23.924 -11.862  0.00  0.00    +0.174 C 
ATOM     28  C   UNL     1      32.692 -23.035 -14.935  0.00  0.00    +0.102 C 
BRANCH  24  29
ATOM     29  O   UNL     1      38.482 -23.756 -12.568  0.00  0.00    -0.468 OA
ATOM     30  C   UNL     1      39.239 -24.699 -13.325  0.00  0.00    +0.253 C 
ENDBRANCH  24  29
BRANCH  27  31
ATOM     31  O   UNL     1      36.588 -24.274 -10.603  0.00  0.00    -0.468 OA
ATOM     32  C   UNL     1      35.731 -23.885  -9.532  0.00  0.00    +0.253 C 
ENDBRANCH  27  31
ENDBRANCH  18  21
ENDBRANCH   9  18
TORSDOF 6
ENDMDL
