MODEL 1
REMARK VINA RESULT:     -13.7      0.000      0.000
REMARK  Name = 11476460
REMARK  8 active torsions:
REMARK  status: ('A' for Active; 'I' for Inactive)
REMARK    1  A    between atoms: C_2  and  N_10
REMARK    2  A    between atoms: C_5  and  C_23
REMARK    3  A    between atoms: C_11  and  C_14
REMARK    4  A    between atoms: C_14  and  O_15
REMARK    5  A    between atoms: O_15  and  P_16
REMARK    6  A    between atoms: P_16  and  O_18
REMARK    7  A    between atoms: P_16  and  O_20
REMARK    8  A    between atoms: C_27  and  C_32
REMARK                            x       y       z     vdW  Elec       q    Type
REMARK                         _______ _______ _______ _____ _____    ______ ____
ROOT
ATOM      1  F   UNL     1      32.983 -22.074 -18.203  0.00  0.00    -0.204 F 
ATOM      2  C   UNL     1      35.700 -22.793 -15.890  0.00  0.00    +0.059 C 
ATOM      3  C   UNL     1      34.439 -22.808 -16.496  0.00  0.00    +0.045 C 
ATOM      4  C   UNL     1      36.718 -22.008 -16.440  0.00  0.00    +0.015 C 
ATOM      5  C   UNL     1      35.219 -21.265 -18.183  0.00  0.00    +0.029 C 
ATOM      6  C   UNL     1      34.199 -22.046 -17.639  0.00  0.00    +0.141 C 
ATOM      7  C   UNL     1      36.478 -21.246 -17.584  0.00  0.00    +0.004 C 
ENDROOT
BRANCH   2  10
ATOM      8  O   UNL     1      36.125 -25.302 -13.287  0.00  0.00    -0.434 OA
ATOM      9  O   UNL     1      35.395 -25.776 -15.382  0.00  0.00    -0.226 OA
ATOM     10  N   UNL     1      35.944 -23.570 -14.723  0.00  0.00    -0.221 N 
ATOM     11  C   UNL     1      36.736 -24.180 -12.636  0.00  0.00    +0.221 C 
ATOM     12  C   UNL     1      36.301 -22.987 -13.458  0.00  0.00    +0.148 C 
ATOM     13  C   UNL     1      35.788 -24.946 -14.574  0.00  0.00    +0.409 C 
BRANCH  11  14
ATOM     14  C   UNL     1      38.246 -24.382 -12.624  0.00  0.00    +0.199 C 
BRANCH  14  15
ATOM     15  O   UNL     1      38.568 -25.440 -13.509  0.00  0.00    -0.269 OA
BRANCH  15  16
ATOM     16  P   UNL     1      40.032 -25.447 -14.203  0.00  0.00    +0.473 P 
ATOM     17  O   UNL     1      40.955 -26.529 -13.723  0.00  0.00    -0.227 OA
BRANCH  16  18
ATOM     18  O   UNL     1      40.566 -23.936 -13.989  0.00  0.00    -0.303 OA
ATOM     19  H   UNL     1      39.826 -23.365 -13.729  0.00  0.00    +0.222 HD
ENDBRANCH  16  18
BRANCH  16  20
ATOM     20  O   UNL     1      39.683 -25.498 -15.782  0.00  0.00    -0.303 OA
ATOM     21  H   UNL     1      40.505 -25.568 -16.291  0.00  0.00    +0.222 HD
ENDBRANCH  16  20
ENDBRANCH  15  16
ENDBRANCH  14  15
ENDBRANCH  11  14
ENDBRANCH   2  10
BRANCH   5  23
ATOM     22  N   UNL     1      33.418 -19.688 -21.040  0.00  0.00    -0.234 NA
ATOM     23  C   UNL     1      34.975 -20.472 -19.369  0.00  0.00    +0.021 C 
ATOM     24  C   UNL     1      36.000 -19.756 -19.973  0.00  0.00    +0.004 C 
ATOM     25  C   UNL     1      33.714 -20.407 -19.935  0.00  0.00    +0.100 C 
ATOM     26  C   UNL     1      35.736 -19.005 -21.112  0.00  0.00    +0.029 C 
ATOM     27  C   UNL     1      34.439 -19.004 -21.602  0.00  0.00    +0.146 C 
BRANCH  27  32
ATOM     28  N   UNL     1      34.325 -16.935 -22.888  0.00  0.00    -0.105 NA
ATOM     29  N   UNL     1      33.854 -16.745 -24.128  0.00  0.00    -0.113 N 
ATOM     30  N   UNL     1      33.544 -18.816 -23.876  0.00  0.00    -0.085 NA
ATOM     31  N   UNL     1      33.381 -17.833 -24.753  0.00  0.00    -0.018 NA
ATOM     32  C   UNL     1      34.109 -18.247 -22.776  0.00  0.00    +0.092 C 
ATOM     33  C   UNL     1      33.854 -15.449 -24.755  0.00  0.00    +0.163 C 
ENDBRANCH  27  32
ENDBRANCH   5  23
TORSDOF 8
ENDMDL
MODEL 2
REMARK VINA RESULT:     -12.3      7.107     11.106
REMARK  Name = 11476460
REMARK  8 active torsions:
REMARK  status: ('A' for Active; 'I' for Inactive)
REMARK    1  A    between atoms: C_2  and  N_10
REMARK    2  A    between atoms: C_5  and  C_23
REMARK    3  A    between atoms: C_11  and  C_14
REMARK    4  A    between atoms: C_14  and  O_15
REMARK    5  A    between atoms: O_15  and  P_16
REMARK    6  A    between atoms: P_16  and  O_18
REMARK    7  A    between atoms: P_16  and  O_20
REMARK    8  A    between atoms: C_27  and  C_32
REMARK                            x       y       z     vdW  Elec       q    Type
REMARK                         _______ _______ _______ _____ _____    ______ ____
ROOT
ATOM      1  F   UNL     1      32.699 -20.799 -19.589  0.00  0.00    -0.204 F 
ATOM      2  C   UNL     1      34.603 -18.622 -21.800  0.00  0.00    +0.059 C 
ATOM      3  C   UNL     1      33.534 -19.325 -21.234  0.00  0.00    +0.045 C 
ATOM      4  C   UNL     1      35.877 -18.734 -21.233  0.00  0.00    +0.015 C 
ATOM      5  C   UNL     1      35.010 -20.239 -19.554  0.00  0.00    +0.029 C 
ATOM      6  C   UNL     1      33.737 -20.132 -20.115  0.00  0.00    +0.141 C 
ATOM      7  C   UNL     1      36.080 -19.541 -20.114  0.00  0.00    +0.004 C 
ENDROOT
BRANCH   2  10
ATOM      8  O   UNL     1      33.786 -17.069 -24.990  0.00  0.00    -0.434 OA
ATOM      9  O   UNL     1      33.300 -19.225 -24.481  0.00  0.00    -0.226 OA
ATOM     10  N   UNL     1      34.396 -17.799 -22.942  0.00  0.00    -0.221 N 
ATOM     11  C   UNL     1      34.212 -15.908 -24.264  0.00  0.00    +0.221 C 
ATOM     12  C   UNL     1      34.922 -16.465 -23.048  0.00  0.00    +0.148 C 
ATOM     13  C   UNL     1      33.777 -18.152 -24.139  0.00  0.00    +0.409 C 
BRANCH  11  14
ATOM     14  C   UNL     1      32.989 -15.072 -23.912  0.00  0.00    +0.199 C 
BRANCH  14  15
ATOM     15  O   UNL     1      33.305 -13.704 -24.104  0.00  0.00    -0.269 OA
BRANCH  15  16
ATOM     16  P   UNL     1      33.256 -12.713 -22.824  0.00  0.00    +0.473 P 
ATOM     17  O   UNL     1      34.021 -13.189 -21.624  0.00  0.00    -0.227 OA
BRANCH  16  18
ATOM     18  O   UNL     1      31.675 -12.472 -22.585  0.00  0.00    -0.303 OA
ATOM     19  H   UNL     1      31.548 -11.899 -21.812  0.00  0.00    +0.222 HD
ENDBRANCH  16  18
BRANCH  16  20
ATOM     20  O   UNL     1      33.758 -11.303 -23.439  0.00  0.00    -0.303 OA
ATOM     21  H   UNL     1      33.202 -11.066 -24.197  0.00  0.00    +0.222 HD
ENDBRANCH  16  20
ENDBRANCH  15  16
ENDBRANCH  14  15
ENDBRANCH  11  14
ENDBRANCH   2  10
BRANCH   5  23
ATOM     22  N   UNL     1      34.402 -22.790 -16.906  0.00  0.00    -0.234 NA
ATOM     23  C   UNL     1      35.226 -21.076 -18.393  0.00  0.00    +0.021 C 
ATOM     24  C   UNL     1      36.403 -20.991 -17.660  0.00  0.00    +0.004 C 
ATOM     25  C   UNL     1      34.265 -21.982 -17.980  0.00  0.00    +0.100 C 
ATOM     26  C   UNL     1      36.581 -21.806 -16.549  0.00  0.00    +0.029 C 
ATOM     27  C   UNL     1      35.559 -22.682 -16.216  0.00  0.00    +0.146 C 
BRANCH  27  32
ATOM     28  N   UNL     1      36.407 -24.670 -15.087  0.00  0.00    -0.105 NA
ATOM     29  N   UNL     1      36.195 -25.070 -13.825  0.00  0.00    -0.113 N 
ATOM     30  N   UNL     1      35.080 -23.281 -13.888  0.00  0.00    -0.085 NA
ATOM     31  N   UNL     1      35.414 -24.278 -13.078  0.00  0.00    -0.018 NA
ATOM     32  C   UNL     1      35.688 -23.546 -15.077  0.00  0.00    +0.092 C 
ATOM     33  C   UNL     1      36.771 -26.282 -13.302  0.00  0.00    +0.163 C 
ENDBRANCH  27  32
ENDBRANCH   5  23
TORSDOF 8
ENDMDL
MODEL 3
REMARK VINA RESULT:     -11.9     12.021     15.430
REMARK  Name = 11476460
REMARK  8 active torsions:
REMARK  status: ('A' for Active; 'I' for Inactive)
REMARK    1  A    between atoms: C_2  and  N_10
REMARK    2  A    between atoms: C_5  and  C_23
REMARK    3  A    between atoms: C_11  and  C_14
REMARK    4  A    between atoms: C_14  and  O_15
REMARK    5  A    between atoms: O_15  and  P_16
REMARK    6  A    between atoms: P_16  and  O_18
REMARK    7  A    between atoms: P_16  and  O_20
REMARK    8  A    between atoms: C_27  and  C_32
REMARK                            x       y       z     vdW  Elec       q    Type
REMARK                         _______ _______ _______ _____ _____    ______ ____
ROOT
ATOM      1  F   UNL     1      31.479 -12.824 -20.256  0.00  0.00    -0.204 F 
ATOM      2  C   UNL     1      31.839  -9.997 -22.520  0.00  0.00    +0.059 C 
ATOM      3  C   UNL     1      31.383 -10.802 -21.471  0.00  0.00    +0.045 C 
ATOM      4  C   UNL     1      32.848 -10.472 -23.364  0.00  0.00    +0.015 C 
ATOM      5  C   UNL     1      32.938 -12.537 -22.112  0.00  0.00    +0.029 C 
ATOM      6  C   UNL     1      31.931 -12.068 -21.267  0.00  0.00    +0.141 C 
ATOM      7  C   UNL     1      33.396 -11.739 -23.160  0.00  0.00    +0.004 C 
ENDROOT
BRANCH   2  10
ATOM      8  O   UNL     1      30.519  -6.607 -22.390  0.00  0.00    -0.434 OA
ATOM      9  O   UNL     1      31.348  -7.702 -20.586  0.00  0.00    -0.226 OA
ATOM     10  N   UNL     1      31.280  -8.705 -22.729  0.00  0.00    -0.221 N 
ATOM     11  C   UNL     1      30.529  -6.802 -23.811  0.00  0.00    +0.221 C 
ATOM     12  C   UNL     1      30.708  -8.295 -23.983  0.00  0.00    +0.148 C 
ATOM     13  C   UNL     1      31.097  -7.699 -21.783  0.00  0.00    +0.409 C 
BRANCH  11  14
ATOM     14  C   UNL     1      31.668  -5.988 -24.411  0.00  0.00    +0.199 C 
BRANCH  14  15
ATOM     15  O   UNL     1      31.193  -4.684 -24.693  0.00  0.00    -0.269 OA
BRANCH  15  16
ATOM     16  P   UNL     1      31.358  -3.540 -23.559  0.00  0.00    +0.473 P 
ATOM     17  O   UNL     1      31.845  -2.213 -24.064  0.00  0.00    -0.227 OA
BRANCH  16  18
ATOM     18  O   UNL     1      32.292  -4.240 -22.440  0.00  0.00    -0.303 OA
ATOM     19  H   UNL     1      33.220  -4.201 -22.724  0.00  0.00    +0.222 HD
ENDBRANCH  16  18
BRANCH  16  20
ATOM     20  O   UNL     1      29.899  -3.511 -22.860  0.00  0.00    -0.303 OA
ATOM     21  H   UNL     1      30.002  -3.567 -21.897  0.00  0.00    +0.222 HD
ENDBRANCH  16  20
ENDBRANCH  15  16
ENDBRANCH  14  15
ENDBRANCH  11  14
ENDBRANCH   2  10
BRANCH   5  23
ATOM     22  N   UNL     1      34.252 -15.556 -20.366  0.00  0.00    -0.234 NA
ATOM     23  C   UNL     1      33.508 -13.851 -21.905  0.00  0.00    +0.021 C 
ATOM     24  C   UNL     1      33.860 -14.654 -22.982  0.00  0.00    +0.004 C 
ATOM     25  C   UNL     1      33.722 -14.341 -20.630  0.00  0.00    +0.100 C 
ATOM     26  C   UNL     1      34.408 -15.911 -22.752  0.00  0.00    +0.029 C 
ATOM     27  C   UNL     1      34.582 -16.312 -21.437  0.00  0.00    +0.146 C 
BRANCH  27  32
ATOM     28  N   UNL     1      34.442 -18.603 -20.613  0.00  0.00    -0.105 NA
ATOM     29  N   UNL     1      35.409 -19.528 -20.546  0.00  0.00    -0.113 N 
ATOM     30  N   UNL     1      36.452 -17.895 -21.380  0.00  0.00    -0.085 NA
ATOM     31  N   UNL     1      36.617 -19.153 -20.990  0.00  0.00    -0.018 NA
ATOM     32  C   UNL     1      35.144 -17.599 -21.142  0.00  0.00    +0.092 C 
ATOM     33  C   UNL     1      35.167 -20.850 -20.027  0.00  0.00    +0.163 C 
ENDBRANCH  27  32
ENDBRANCH   5  23
TORSDOF 8
ENDMDL
MODEL 4
REMARK VINA RESULT:     -11.7     11.764     15.310
REMARK  Name = 11476460
REMARK  8 active torsions:
REMARK  status: ('A' for Active; 'I' for Inactive)
REMARK    1  A    between atoms: C_2  and  N_10
REMARK    2  A    between atoms: C_5  and  C_23
REMARK    3  A    between atoms: C_11  and  C_14
REMARK    4  A    between atoms: C_14  and  O_15
REMARK    5  A    between atoms: O_15  and  P_16
REMARK    6  A    between atoms: P_16  and  O_18
REMARK    7  A    between atoms: P_16  and  O_20
REMARK    8  A    between atoms: C_27  and  C_32
REMARK                            x       y       z     vdW  Elec       q    Type
REMARK                         _______ _______ _______ _____ _____    ______ ____
ROOT
ATOM      1  F   UNL     1      31.052 -12.149 -20.587  0.00  0.00    -0.204 F 
ATOM      2  C   UNL     1      31.571  -9.033 -22.394  0.00  0.00    +0.059 C 
ATOM      3  C   UNL     1      31.041  -9.974 -21.506  0.00  0.00    +0.045 C 
ATOM      4  C   UNL     1      32.642  -9.392 -23.220  0.00  0.00    +0.015 C 
ATOM      5  C   UNL     1      32.644 -11.613 -22.270  0.00  0.00    +0.029 C 
ATOM      6  C   UNL     1      31.576 -11.261 -21.444  0.00  0.00    +0.141 C 
ATOM      7  C   UNL     1      33.177 -10.679 -23.157  0.00  0.00    +0.004 C 
ENDROOT
BRANCH   2  10
ATOM      8  O   UNL     1      30.430  -5.607 -21.933  0.00  0.00    -0.434 OA
ATOM      9  O   UNL     1      31.592  -6.766 -20.367  0.00  0.00    -0.226 OA
ATOM     10  N   UNL     1      31.026  -7.720 -22.458  0.00  0.00    -0.221 N 
ATOM     11  C   UNL     1      30.125  -5.772 -23.325  0.00  0.00    +0.221 C 
ATOM     12  C   UNL     1      30.211  -7.266 -23.552  0.00  0.00    +0.148 C 
ATOM     13  C   UNL     1      31.087  -6.729 -21.481  0.00  0.00    +0.409 C 
BRANCH  11  14
ATOM     14  C   UNL     1      31.134  -4.982 -24.147  0.00  0.00    +0.199 C 
BRANCH  14  15
ATOM     15  O   UNL     1      32.108  -5.878 -24.651  0.00  0.00    -0.269 OA
BRANCH  15  16
ATOM     16  P   UNL     1      33.669  -5.579 -24.338  0.00  0.00    +0.473 P 
ATOM     17  O   UNL     1      34.099  -5.868 -22.929  0.00  0.00    -0.227 OA
BRANCH  16  18
ATOM     18  O   UNL     1      33.873  -4.051 -24.824  0.00  0.00    -0.303 OA
ATOM     19  H   UNL     1      33.307  -3.878 -25.593  0.00  0.00    +0.222 HD
ENDBRANCH  16  18
BRANCH  16  20
ATOM     20  O   UNL     1      34.436  -6.436 -25.475  0.00  0.00    -0.303 OA
ATOM     21  H   UNL     1      34.977  -7.122 -25.053  0.00  0.00    +0.222 HD
ENDBRANCH  16  20
ENDBRANCH  15  16
ENDBRANCH  14  15
ENDBRANCH  11  14
ENDBRANCH   2  10
BRANCH   5  23
ATOM     22  N   UNL     1      34.102 -14.747 -20.875  0.00  0.00    -0.234 NA
ATOM     23  C   UNL     1      33.201 -12.948 -22.210  0.00  0.00    +0.021 C 
ATOM     24  C   UNL     1      33.379 -13.699 -23.364  0.00  0.00    +0.004 C 
ATOM     25  C   UNL     1      33.574 -13.509 -21.002  0.00  0.00    +0.100 C 
ATOM     26  C   UNL     1      33.919 -14.978 -23.275  0.00  0.00    +0.029 C 
ATOM     27  C   UNL     1      34.261 -15.452 -22.018  0.00  0.00    +0.146 C 
BRANCH  27  32
ATOM     28  N   UNL     1      35.226 -17.259 -20.696  0.00  0.00    -0.105 NA
ATOM     29  N   UNL     1      35.649 -18.463 -21.107  0.00  0.00    -0.113 N 
ATOM     30  N   UNL     1      34.991 -17.610 -22.920  0.00  0.00    -0.085 NA
ATOM     31  N   UNL     1      35.529 -18.715 -22.418  0.00  0.00    -0.018 NA
ATOM     32  C   UNL     1      34.823 -16.763 -21.867  0.00  0.00    +0.092 C 
ATOM     33  C   UNL     1      36.201 -19.430 -20.194  0.00  0.00    +0.163 C 
ENDBRANCH  27  32
ENDBRANCH   5  23
TORSDOF 8
ENDMDL
MODEL 5
REMARK VINA RESULT:     -11.6      6.265      9.242
REMARK  Name = 11476460
REMARK  8 active torsions:
REMARK  status: ('A' for Active; 'I' for Inactive)
REMARK    1  A    between atoms: C_2  and  N_10
REMARK    2  A    between atoms: C_5  and  C_23
REMARK    3  A    between atoms: C_11  and  C_14
REMARK    4  A    between atoms: C_14  and  O_15
REMARK    5  A    between atoms: O_15  and  P_16
REMARK    6  A    between atoms: P_16  and  O_18
REMARK    7  A    between atoms: P_16  and  O_20
REMARK    8  A    between atoms: C_27  and  C_32
REMARK                            x       y       z     vdW  Elec       q    Type
REMARK                         _______ _______ _______ _____ _____    ______ ____
ROOT
ATOM      1  F   UNL     1      33.500 -14.402 -24.343  0.00  0.00    -0.204 F 
ATOM      2  C   UNL     1      34.481 -16.634 -21.640  0.00  0.00    +0.059 C 
ATOM      3  C   UNL     1      34.234 -16.142 -22.926  0.00  0.00    +0.045 C 
ATOM      4  C   UNL     1      34.218 -15.823 -20.531  0.00  0.00    +0.015 C 
ATOM      5  C   UNL     1      33.470 -14.049 -21.992  0.00  0.00    +0.029 C 
ATOM      6  C   UNL     1      33.730 -14.854 -23.102  0.00  0.00    +0.141 C 
ATOM      7  C   UNL     1      33.714 -14.534 -20.707  0.00  0.00    +0.004 C 
ENDROOT
BRANCH   2  10
ATOM      8  O   UNL     1      36.402 -19.700 -21.237  0.00  0.00    -0.434 OA
ATOM      9  O   UNL     1      37.342 -17.660 -21.549  0.00  0.00    -0.226 OA
ATOM     10  N   UNL     1      34.995 -17.948 -21.461  0.00  0.00    -0.221 N 
ATOM     11  C   UNL     1      35.095 -20.196 -20.917  0.00  0.00    +0.221 C 
ATOM     12  C   UNL     1      34.154 -19.113 -21.401  0.00  0.00    +0.148 C 
ATOM     13  C   UNL     1      36.332 -18.337 -21.422  0.00  0.00    +0.409 C 
BRANCH  11  14
ATOM     14  C   UNL     1      35.013 -20.434 -19.415  0.00  0.00    +0.199 C 
BRANCH  14  15
ATOM     15  O   UNL     1      34.904 -21.826 -19.182  0.00  0.00    -0.269 OA
BRANCH  15  16
ATOM     16  P   UNL     1      33.471 -22.423 -18.722  0.00  0.00    +0.473 P 
ATOM     17  O   UNL     1      32.294 -21.537 -19.009  0.00  0.00    -0.227 OA
BRANCH  16  18
ATOM     18  O   UNL     1      33.692 -22.795 -17.164  0.00  0.00    -0.303 OA
ATOM     19  H   UNL     1      33.258 -23.641 -16.969  0.00  0.00    +0.222 HD
ENDBRANCH  16  18
BRANCH  16  20
ATOM     20  O   UNL     1      33.431 -23.869 -19.447  0.00  0.00    -0.303 OA
ATOM     21  H   UNL     1      32.871 -24.471 -18.934  0.00  0.00    +0.222 HD
ENDBRANCH  16  20
ENDBRANCH  15  16
ENDBRANCH  14  15
ENDBRANCH  11  14
ENDBRANCH   2  10
BRANCH   5  23
ATOM     22  N   UNL     1      33.052 -10.592 -23.320  0.00  0.00    -0.234 NA
ATOM     23  C   UNL     1      32.946 -12.712 -22.169  0.00  0.00    +0.021 C 
ATOM     24  C   UNL     1      31.883 -12.254 -21.401  0.00  0.00    +0.004 C 
ATOM     25  C   UNL     1      33.491 -11.852 -23.106  0.00  0.00    +0.100 C 
ATOM     26  C   UNL     1      31.402 -10.964 -21.592  0.00  0.00    +0.029 C 
ATOM     27  C   UNL     1      32.016 -10.179 -22.556  0.00  0.00    +0.146 C 
BRANCH  27  32
ATOM     28  N   UNL     1      31.221  -7.995 -21.820  0.00  0.00    -0.105 NA
ATOM     29  N   UNL     1      30.887  -6.931 -22.564  0.00  0.00    -0.113 N 
ATOM     30  N   UNL     1      31.441  -8.322 -24.049  0.00  0.00    -0.085 NA
ATOM     31  N   UNL     1      31.002  -7.080 -23.891  0.00  0.00    -0.018 NA
ATOM     32  C   UNL     1      31.562  -8.839 -22.795  0.00  0.00    +0.092 C 
ATOM     33  C   UNL     1      30.430  -5.700 -21.974  0.00  0.00    +0.163 C 
ENDBRANCH  27  32
ENDBRANCH   5  23
TORSDOF 8
ENDMDL
MODEL 6
REMARK VINA RESULT:     -11.6     10.778     14.421
REMARK  Name = 11476460
REMARK  8 active torsions:
REMARK  status: ('A' for Active; 'I' for Inactive)
REMARK    1  A    between atoms: C_2  and  N_10
REMARK    2  A    between atoms: C_5  and  C_23
REMARK    3  A    between atoms: C_11  and  C_14
REMARK    4  A    between atoms: C_14  and  O_15
REMARK    5  A    between atoms: O_15  and  P_16
REMARK    6  A    between atoms: P_16  and  O_18
REMARK    7  A    between atoms: P_16  and  O_20
REMARK    8  A    between atoms: C_27  and  C_32
REMARK                            x       y       z     vdW  Elec       q    Type
REMARK                         _______ _______ _______ _____ _____    ______ ____
ROOT
ATOM      1  F   UNL     1      31.796 -12.697 -20.380  0.00  0.00    -0.204 F 
ATOM      2  C   UNL     1      32.329 -10.131 -22.905  0.00  0.00    +0.059 C 
ATOM      3  C   UNL     1      31.835 -10.795 -21.778  0.00  0.00    +0.045 C 
ATOM      4  C   UNL     1      33.277 -10.763 -23.716  0.00  0.00    +0.015 C 
ATOM      5  C   UNL     1      33.230 -12.703 -22.277  0.00  0.00    +0.029 C 
ATOM      6  C   UNL     1      32.284 -12.078 -21.464  0.00  0.00    +0.141 C 
ATOM      7  C   UNL     1      33.726 -12.046 -23.403  0.00  0.00    +0.004 C 
ENDROOT
BRANCH   2  10
ATOM      8  O   UNL     1      30.561  -7.002 -23.489  0.00  0.00    -0.434 OA
ATOM      9  O   UNL     1      29.588  -8.849 -22.602  0.00  0.00    -0.226 OA
ATOM     10  N   UNL     1      31.871  -8.822 -23.225  0.00  0.00    -0.221 N 
ATOM     11  C   UNL     1      31.902  -6.569 -23.757  0.00  0.00    +0.221 C 
ATOM     12  C   UNL     1      32.688  -7.855 -23.906  0.00  0.00    +0.148 C 
ATOM     13  C   UNL     1      30.590  -8.305 -23.045  0.00  0.00    +0.409 C 
BRANCH  11  14
ATOM     14  C   UNL     1      32.380  -5.706 -22.597  0.00  0.00    +0.199 C 
BRANCH  14  15
ATOM     15  O   UNL     1      32.706  -6.551 -21.507  0.00  0.00    -0.269 OA
BRANCH  15  16
ATOM     16  P   UNL     1      31.867  -6.396 -20.131  0.00  0.00    +0.473 P 
ATOM     17  O   UNL     1      30.675  -5.488 -20.214  0.00  0.00    -0.227 OA
BRANCH  16  18
ATOM     18  O   UNL     1      32.987  -5.970 -19.045  0.00  0.00    -0.303 OA
ATOM     19  H   UNL     1      33.113  -6.693 -18.410  0.00  0.00    +0.222 HD
ENDBRANCH  16  18
BRANCH  16  20
ATOM     20  O   UNL     1      31.533  -7.929 -19.737  0.00  0.00    -0.303 OA
ATOM     21  H   UNL     1      31.220  -7.965 -18.820  0.00  0.00    +0.222 HD
ENDBRANCH  16  20
ENDBRANCH  15  16
ENDBRANCH  14  15
ENDBRANCH  11  14
ENDBRANCH   2  10
BRANCH   5  23
ATOM     22  N   UNL     1      34.233 -15.683 -20.275  0.00  0.00    -0.234 NA
ATOM     23  C   UNL     1      33.697 -14.035 -21.957  0.00  0.00    +0.021 C 
ATOM     24  C   UNL     1      34.056 -14.926 -22.960  0.00  0.00    +0.004 C 
ATOM     25  C   UNL     1      33.803 -14.456 -20.643  0.00  0.00    +0.100 C 
ATOM     26  C   UNL     1      34.504 -16.198 -22.621  0.00  0.00    +0.029 C 
ATOM     27  C   UNL     1      34.574 -16.525 -21.276  0.00  0.00    +0.146 C 
BRANCH  27  32
ATOM     28  N   UNL     1      34.210 -18.848 -20.631  0.00  0.00    -0.105 NA
ATOM     29  N   UNL     1      35.118 -19.776 -20.298  0.00  0.00    -0.113 N 
ATOM     30  N   UNL     1      36.349 -18.110 -20.693  0.00  0.00    -0.085 NA
ATOM     31  N   UNL     1      36.399 -19.383 -20.321  0.00  0.00    -0.018 NA
ATOM     32  C   UNL     1      35.030 -17.823 -20.869  0.00  0.00    +0.092 C 
ATOM     33  C   UNL     1      34.740 -21.118 -19.937  0.00  0.00    +0.163 C 
ENDBRANCH  27  32
ENDBRANCH   5  23
TORSDOF 8
ENDMDL
MODEL 7
REMARK VINA RESULT:     -11.5      7.305     11.251
REMARK  Name = 11476460
REMARK  8 active torsions:
REMARK  status: ('A' for Active; 'I' for Inactive)
REMARK    1  A    between atoms: C_2  and  N_10
REMARK    2  A    between atoms: C_5  and  C_23
REMARK    3  A    between atoms: C_11  and  C_14
REMARK    4  A    between atoms: C_14  and  O_15
REMARK    5  A    between atoms: O_15  and  P_16
REMARK    6  A    between atoms: P_16  and  O_18
REMARK    7  A    between atoms: P_16  and  O_20
REMARK    8  A    between atoms: C_27  and  C_32
REMARK                            x       y       z     vdW  Elec       q    Type
REMARK                         _______ _______ _______ _____ _____    ______ ____
ROOT
ATOM      1  F   UNL     1      37.082 -19.085 -19.520  0.00  0.00    -0.204 F 
ATOM      2  C   UNL     1      34.491 -18.406 -21.984  0.00  0.00    +0.059 C 
ATOM      3  C   UNL     1      35.699 -18.341 -21.283  0.00  0.00    +0.045 C 
ATOM      4  C   UNL     1      33.501 -19.303 -21.568  0.00  0.00    +0.015 C 
ATOM      5  C   UNL     1      34.926 -20.057 -19.768  0.00  0.00    +0.029 C 
ATOM      6  C   UNL     1      35.917 -19.164 -20.178  0.00  0.00    +0.141 C 
ATOM      7  C   UNL     1      33.718 -20.126 -20.463  0.00  0.00    +0.004 C 
ENDROOT
BRANCH   2  10
ATOM      8  O   UNL     1      33.616 -16.800 -25.132  0.00  0.00    -0.434 OA
ATOM      9  O   UNL     1      33.100 -18.951 -24.633  0.00  0.00    -0.226 OA
ATOM     10  N   UNL     1      34.269 -17.566 -23.111  0.00  0.00    -0.221 N 
ATOM     11  C   UNL     1      34.088 -15.656 -24.406  0.00  0.00    +0.221 C 
ATOM     12  C   UNL     1      34.820 -16.242 -23.218  0.00  0.00    +0.148 C 
ATOM     13  C   UNL     1      33.608 -17.892 -24.293  0.00  0.00    +0.409 C 
BRANCH  11  14
ATOM     14  C   UNL     1      32.893 -14.799 -24.011  0.00  0.00    +0.199 C 
BRANCH  14  15
ATOM     15  O   UNL     1      33.206 -13.441 -24.265  0.00  0.00    -0.269 OA
BRANCH  15  16
ATOM     16  P   UNL     1      33.110 -12.384 -23.042  0.00  0.00    +0.473 P 
ATOM     17  O   UNL     1      31.735 -12.197 -22.471  0.00  0.00    -0.227 OA
BRANCH  16  18
ATOM     18  O   UNL     1      33.800 -11.047 -23.635  0.00  0.00    -0.303 OA
ATOM     19  H   UNL     1      33.809 -11.090 -24.604  0.00  0.00    +0.222 HD
ENDBRANCH  16  18
BRANCH  16  20
ATOM     20  O   UNL     1      34.214 -12.940 -21.998  0.00  0.00    -0.303 OA
ATOM     21  H   UNL     1      33.928 -13.800 -21.653  0.00  0.00    +0.222 HD
ENDBRANCH  16  20
ENDBRANCH  15  16
ENDBRANCH  14  15
ENDBRANCH  11  14
ENDBRANCH   2  10
BRANCH   5  23
ATOM     22  N   UNL     1      34.318 -22.635 -17.146  0.00  0.00    -0.234 NA
ATOM     23  C   UNL     1      35.146 -20.912 -18.622  0.00  0.00    +0.021 C 
ATOM     24  C   UNL     1      36.333 -20.853 -17.904  0.00  0.00    +0.004 C 
ATOM     25  C   UNL     1      34.179 -21.810 -18.208  0.00  0.00    +0.100 C 
ATOM     26  C   UNL     1      36.515 -21.686 -16.806  0.00  0.00    +0.029 C 
ATOM     27  C   UNL     1      35.486 -22.552 -16.471  0.00  0.00    +0.146 C 
BRANCH  27  32
ATOM     28  N   UNL     1      36.143 -23.058 -14.178  0.00  0.00    -0.105 NA
ATOM     29  N   UNL     1      36.032 -24.216 -13.512  0.00  0.00    -0.113 N 
ATOM     30  N   UNL     1      35.216 -24.733 -15.386  0.00  0.00    -0.085 NA
ATOM     31  N   UNL     1      35.488 -25.237 -14.189  0.00  0.00    -0.018 NA
ATOM     32  C   UNL     1      35.619 -23.433 -15.346  0.00  0.00    +0.092 C 
ATOM     33  C   UNL     1      36.472 -24.357 -12.148  0.00  0.00    +0.163 C 
ENDBRANCH  27  32
ENDBRANCH   5  23
TORSDOF 8
ENDMDL
MODEL 8
REMARK VINA RESULT:     -11.3      6.098      9.160
REMARK  Name = 11476460
REMARK  8 active torsions:
REMARK  status: ('A' for Active; 'I' for Inactive)
REMARK    1  A    between atoms: C_2  and  N_10
REMARK    2  A    between atoms: C_5  and  C_23
REMARK    3  A    between atoms: C_11  and  C_14
REMARK    4  A    between atoms: C_14  and  O_15
REMARK    5  A    between atoms: O_15  and  P_16
REMARK    6  A    between atoms: P_16  and  O_18
REMARK    7  A    between atoms: P_16  and  O_20
REMARK    8  A    between atoms: C_27  and  C_32
REMARK                            x       y       z     vdW  Elec       q    Type
REMARK                         _______ _______ _______ _____ _____    ______ ____
ROOT
ATOM      1  F   UNL     1      33.430 -13.796 -19.775  0.00  0.00    -0.204 F 
ATOM      2  C   UNL     1      34.517 -16.676 -21.716  0.00  0.00    +0.059 C 
ATOM      3  C   UNL     1      34.208 -15.856 -20.627  0.00  0.00    +0.045 C 
ATOM      4  C   UNL     1      34.329 -16.194 -23.016  0.00  0.00    +0.015 C 
ATOM      5  C   UNL     1      33.534 -14.091 -22.132  0.00  0.00    +0.029 C 
ATOM      6  C   UNL     1      33.718 -14.567 -20.834  0.00  0.00    +0.141 C 
ATOM      7  C   UNL     1      33.840 -14.905 -23.223  0.00  0.00    +0.004 C 
ENDROOT
BRANCH   2  10
ATOM      8  O   UNL     1      36.406 -19.750 -21.228  0.00  0.00    -0.434 OA
ATOM      9  O   UNL     1      37.368 -17.724 -21.564  0.00  0.00    -0.226 OA
ATOM     10  N   UNL     1      35.017 -17.992 -21.505  0.00  0.00    -0.221 N 
ATOM     11  C   UNL     1      35.090 -20.230 -20.918  0.00  0.00    +0.221 C 
ATOM     12  C   UNL     1      34.166 -19.148 -21.436  0.00  0.00    +0.148 C 
ATOM     13  C   UNL     1      36.350 -18.391 -21.439  0.00  0.00    +0.409 C 
BRANCH  11  14
ATOM     14  C   UNL     1      34.985 -20.438 -19.413  0.00  0.00    +0.199 C 
BRANCH  14  15
ATOM     15  O   UNL     1      34.891 -21.828 -19.154  0.00  0.00    -0.269 OA
BRANCH  15  16
ATOM     16  P   UNL     1      33.455 -22.438 -18.721  0.00  0.00    +0.473 P 
ATOM     17  O   UNL     1      32.280 -21.541 -18.982  0.00  0.00    -0.227 OA
BRANCH  16  18
ATOM     18  O   UNL     1      33.669 -22.866 -17.177  0.00  0.00    -0.303 OA
ATOM     19  H   UNL     1      32.849 -23.256 -16.833  0.00  0.00    +0.222 HD
ENDBRANCH  16  18
BRANCH  16  20
ATOM     20  O   UNL     1      33.416 -23.857 -19.498  0.00  0.00    -0.303 OA
ATOM     21  H   UNL     1      34.040 -23.835 -20.240  0.00  0.00    +0.222 HD
ENDBRANCH  16  20
ENDBRANCH  15  16
ENDBRANCH  14  15
ENDBRANCH  11  14
ENDBRANCH   2  10
BRANCH   5  23
ATOM     22  N   UNL     1      33.219 -10.639 -23.503  0.00  0.00    -0.234 NA
ATOM     23  C   UNL     1      33.026 -12.754 -22.352  0.00  0.00    +0.021 C 
ATOM     24  C   UNL     1      31.913 -12.290 -21.665  0.00  0.00    +0.004 C 
ATOM     25  C   UNL     1      33.639 -11.899 -23.252  0.00  0.00    +0.100 C 
ATOM     26  C   UNL     1      31.450 -11.000 -21.896  0.00  0.00    +0.029 C 
ATOM     27  C   UNL     1      32.132 -10.221 -22.817  0.00  0.00    +0.146 C 
BRANCH  27  32
ATOM     28  N   UNL     1      32.501  -7.940 -23.596  0.00  0.00    -0.105 NA
ATOM     29  N   UNL     1      31.629  -6.924 -23.654  0.00  0.00    -0.113 N 
ATOM     30  N   UNL     1      30.424  -8.464 -22.862  0.00  0.00    -0.085 NA
ATOM     31  N   UNL     1      30.385  -7.189 -23.229  0.00  0.00    -0.018 NA
ATOM     32  C   UNL     1      31.700  -8.881 -23.094  0.00  0.00    +0.092 C 
ATOM     33  C   UNL     1      32.004  -5.623 -24.144  0.00  0.00    +0.163 C 
ENDBRANCH  27  32
ENDBRANCH   5  23
TORSDOF 8
ENDMDL
