MODEL 1
REMARK VINA RESULT:     -11.7      0.000      0.000
REMARK  Name = 9863791
REMARK  5 active torsions:
REMARK  status: ('A' for Active; 'I' for Inactive)
REMARK    1  A    between atoms: N_1  and  C_19
REMARK    2  A    between atoms: C_11  and  C_16
REMARK    3  A    between atoms: C_16  and  O_17
REMARK    4  A    between atoms: C_19  and  C_20
REMARK    5  A    between atoms: C_23  and  C_28
REMARK                            x       y       z     vdW  Elec       q    Type
REMARK                         _______ _______ _______ _____ _____    ______ ____
ROOT
ATOM      1  N   UNL     1      34.221 -22.683 -15.381  0.00  0.00    -0.327 N 
ATOM      2  C   UNL     1      34.596 -22.406 -16.670  0.00  0.00    +0.033 A 
ATOM      3  C   UNL     1      33.453 -22.356 -17.446  0.00  0.00    -0.009 A 
ATOM      4  C   UNL     1      36.020 -22.210 -17.054  0.00  0.00    +0.043 C 
ATOM      5  C   UNL     1      33.419 -22.083 -18.913  0.00  0.00    +0.028 C 
ATOM      6  C   UNL     1      36.243 -20.894 -17.801  0.00  0.00    +0.006 C 
ATOM      7  C   UNL     1      34.140 -20.791 -19.305  0.00  0.00    +0.005 C 
ATOM      8  C   UNL     1      32.343 -22.615 -16.580  0.00  0.00    +0.013 A 
ATOM      9  C   UNL     1      35.668 -20.868 -19.221  0.00  0.00    +0.001 C 
ATOM     10  C   UNL     1      32.856 -22.814 -15.296  0.00  0.00    +0.066 A 
ATOM     11  C   UNL     1      32.046 -23.093 -14.190  0.00  0.00    +0.091 C 
ATOM     12  C   UNL     1      30.946 -22.700 -16.763  0.00  0.00    +0.001 C 
ATOM     13  C   UNL     1      30.666 -23.172 -14.399  0.00  0.00    +0.008 C 
ATOM     14  C   UNL     1      30.123 -22.978 -15.666  0.00  0.00    +0.000 C 
ENDROOT
BRANCH  11  16
ATOM     15  O   UNL     1      33.191 -24.303 -12.474  0.00  0.00    -0.245 OA
ATOM     16  C   UNL     1      32.571 -23.302 -12.853  0.00  0.00    +0.339 C 
BRANCH  16  17
ATOM     17  O   UNL     1      32.311 -22.257 -12.019  0.00  0.00    -0.477 OA
ATOM     18  H   UNL     1      32.697 -22.231 -11.166  0.00  0.00    +0.295 HD
ENDBRANCH  16  17
ENDBRANCH  11  16
BRANCH   1  19
ATOM     19  C   UNL     1      35.137 -22.823 -14.264  0.00  0.00    +0.132 C 
BRANCH  19  20
ATOM     20  C   UNL     1      35.987 -24.057 -14.404  0.00  0.00    +0.001 C 
ATOM     21  C   UNL     1      37.352 -23.977 -14.170  0.00  0.00    +0.002 C 
ATOM     22  C   UNL     1      35.394 -25.259 -14.767  0.00  0.00    -0.002 C 
ATOM     23  C   UNL     1      38.141 -25.121 -14.300  0.00  0.00    +0.053 C 
ATOM     24  C   UNL     1      36.182 -26.403 -14.898  0.00  0.00    -0.000 C 
ATOM     25  C   UNL     1      37.556 -26.334 -14.665  0.00  0.00    +0.004 C 
BRANCH  23  28
ATOM     26  O   UNL     1      40.183 -23.966 -14.091  0.00  0.00    -0.270 OA
ATOM     27  N   UNL     1      40.241 -26.235 -13.766  0.00  0.00    -0.325 N 
ATOM     28  C   UNL     1      39.573 -25.049 -14.057  0.00  0.00    +0.243 C 
ATOM     29  H   UNL     1      41.210 -26.226 -13.596  0.00  0.00    +0.145 HD
ATOM     30  H   UNL     1      39.743 -27.084 -13.730  0.00  0.00    +0.145 HD
ENDBRANCH  23  28
ENDBRANCH  19  20
ENDBRANCH   1  19
TORSDOF 5
ENDMDL
MODEL 2
REMARK VINA RESULT:     -11.0      1.895      4.043
REMARK  Name = 9863791
REMARK  5 active torsions:
REMARK  status: ('A' for Active; 'I' for Inactive)
REMARK    1  A    between atoms: N_1  and  C_19
REMARK    2  A    between atoms: C_11  and  C_16
REMARK    3  A    between atoms: C_16  and  O_17
REMARK    4  A    between atoms: C_19  and  C_20
REMARK    5  A    between atoms: C_23  and  C_28
REMARK                            x       y       z     vdW  Elec       q    Type
REMARK                         _______ _______ _______ _____ _____    ______ ____
ROOT
ATOM      1  N   UNL     1      34.190 -22.531 -15.194  0.00  0.00    -0.327 N 
ATOM      2  C   UNL     1      32.942 -22.913 -14.775  0.00  0.00    +0.033 A 
ATOM      3  C   UNL     1      32.078 -22.804 -15.849  0.00  0.00    -0.009 A 
ATOM      4  C   UNL     1      32.678 -23.355 -13.378  0.00  0.00    +0.043 C 
ATOM      5  C   UNL     1      30.621 -23.122 -15.817  0.00  0.00    +0.028 C 
ATOM      6  C   UNL     1      31.984 -24.717 -13.323  0.00  0.00    +0.006 C 
ATOM      7  C   UNL     1      30.318 -24.528 -15.295  0.00  0.00    +0.005 C 
ATOM      8  C   UNL     1      32.846 -22.333 -16.962  0.00  0.00    +0.013 A 
ATOM      9  C   UNL     1      30.523 -24.701 -13.786  0.00  0.00    +0.001 C 
ATOM     10  C   UNL     1      34.161 -22.173 -16.521  0.00  0.00    +0.066 A 
ATOM     11  C   UNL     1      35.192 -21.724 -17.354  0.00  0.00    +0.091 C 
ATOM     12  C   UNL     1      32.549 -22.026 -18.307  0.00  0.00    +0.001 C 
ATOM     13  C   UNL     1      34.871 -21.428 -18.681  0.00  0.00    +0.008 C 
ATOM     14  C   UNL     1      33.570 -21.576 -19.152  0.00  0.00    +0.000 C 
ENDROOT
BRANCH  11  16
ATOM     15  O   UNL     1      37.420 -22.445 -16.865  0.00  0.00    -0.245 OA
ATOM     16  C   UNL     1      36.562 -21.555 -16.903  0.00  0.00    +0.339 C 
BRANCH  16  17
ATOM     17  O   UNL     1      36.831 -20.279 -16.513  0.00  0.00    -0.477 OA
ATOM     18  H   UNL     1      36.301 -19.572 -16.825  0.00  0.00    +0.295 HD
ENDBRANCH  16  17
ENDBRANCH  11  16
BRANCH   1  19
ATOM     19  C   UNL     1      35.372 -22.501 -14.354  0.00  0.00    +0.132 C 
BRANCH  19  20
ATOM     20  C   UNL     1      36.124 -23.804 -14.418  0.00  0.00    +0.001 C 
ATOM     21  C   UNL     1      37.487 -23.820 -14.162  0.00  0.00    +0.002 C 
ATOM     22  C   UNL     1      35.442 -24.971 -14.733  0.00  0.00    -0.002 C 
ATOM     23  C   UNL     1      38.185 -25.027 -14.222  0.00  0.00    +0.053 C 
ATOM     24  C   UNL     1      36.139 -26.179 -14.793  0.00  0.00    -0.000 C 
ATOM     25  C   UNL     1      37.510 -26.207 -14.538  0.00  0.00    +0.004 C 
BRANCH  23  28
ATOM     26  O   UNL     1      40.266 -24.009 -13.803  0.00  0.00    -0.270 OA
ATOM     27  N   UNL     1      40.229 -26.301 -13.859  0.00  0.00    -0.325 N 
ATOM     28  C   UNL     1      39.613 -25.057 -13.956  0.00  0.00    +0.243 C 
ATOM     29  H   UNL     1      41.195 -26.360 -13.680  0.00  0.00    +0.145 HD
ATOM     30  H   UNL     1      39.698 -27.122 -13.969  0.00  0.00    +0.145 HD
ENDBRANCH  23  28
ENDBRANCH  19  20
ENDBRANCH   1  19
TORSDOF 5
ENDMDL
MODEL 3
REMARK VINA RESULT:     -10.2      3.259      7.192
REMARK  Name = 9863791
REMARK  5 active torsions:
REMARK  status: ('A' for Active; 'I' for Inactive)
REMARK    1  A    between atoms: N_1  and  C_19
REMARK    2  A    between atoms: C_11  and  C_16
REMARK    3  A    between atoms: C_16  and  O_17
REMARK    4  A    between atoms: C_19  and  C_20
REMARK    5  A    between atoms: C_23  and  C_28
REMARK                            x       y       z     vdW  Elec       q    Type
REMARK                         _______ _______ _______ _____ _____    ______ ____
ROOT
ATOM      1  N   UNL     1      34.003 -23.345 -15.987  0.00  0.00    -0.327 N 
ATOM      2  C   UNL     1      34.672 -23.612 -14.821  0.00  0.00    +0.033 A 
ATOM      3  C   UNL     1      35.844 -22.879 -14.823  0.00  0.00    -0.009 A 
ATOM      4  C   UNL     1      34.133 -24.548 -13.797  0.00  0.00    +0.043 C 
ATOM      5  C   UNL     1      36.864 -22.883 -13.734  0.00  0.00    +0.028 C 
ATOM      6  C   UNL     1      34.072 -23.912 -12.407  0.00  0.00    +0.006 C 
ATOM      7  C   UNL     1      36.281 -22.567 -12.356  0.00  0.00    +0.005 C 
ATOM      8  C   UNL     1      35.877 -22.139 -16.049  0.00  0.00    +0.013 A 
ATOM      9  C   UNL     1      35.439 -23.695 -11.750  0.00  0.00    +0.001 C 
ATOM     10  C   UNL     1      34.712 -22.452 -16.753  0.00  0.00    +0.066 A 
ATOM     11  C   UNL     1      34.413 -21.903 -18.006  0.00  0.00    +0.091 C 
ATOM     12  C   UNL     1      36.787 -21.230 -16.629  0.00  0.00    +0.001 C 
ATOM     13  C   UNL     1      35.331 -21.006 -18.557  0.00  0.00    +0.008 C 
ATOM     14  C   UNL     1      36.501 -20.674 -17.881  0.00  0.00    +0.000 C 
ENDROOT
BRANCH  11  16
ATOM     15  O   UNL     1      32.170 -21.547 -18.756  0.00  0.00    -0.245 OA
ATOM     16  C   UNL     1      33.205 -22.224 -18.745  0.00  0.00    +0.339 C 
BRANCH  16  17
ATOM     17  O   UNL     1      33.317 -23.380 -19.455  0.00  0.00    -0.477 OA
ATOM     18  H   UNL     1      34.110 -23.572 -19.915  0.00  0.00    +0.295 HD
ENDBRANCH  16  17
ENDBRANCH  11  16
BRANCH   1  19
ATOM     19  C   UNL     1      32.729 -23.930 -16.363  0.00  0.00    +0.132 C 
BRANCH  19  20
ATOM     20  C   UNL     1      31.582 -23.218 -15.699  0.00  0.00    +0.001 C 
ATOM     21  C   UNL     1      30.326 -23.247 -16.289  0.00  0.00    +0.002 C 
ATOM     22  C   UNL     1      31.795 -22.540 -14.507  0.00  0.00    -0.002 C 
ATOM     23  C   UNL     1      29.262 -22.586 -15.674  0.00  0.00    +0.053 C 
ATOM     24  C   UNL     1      30.732 -21.879 -13.891  0.00  0.00    -0.000 C 
ATOM     25  C   UNL     1      29.465 -21.902 -14.475  0.00  0.00    +0.004 C 
BRANCH  23  28
ATOM     26  O   UNL     1      27.743 -23.157 -17.380  0.00  0.00    -0.270 OA
ATOM     27  N   UNL     1      26.896 -22.011 -15.584  0.00  0.00    -0.325 N 
ATOM     28  C   UNL     1      27.941 -22.609 -16.282  0.00  0.00    +0.243 C 
ATOM     29  H   UNL     1      25.989 -22.008 -15.964  0.00  0.00    +0.145 HD
ATOM     30  H   UNL     1      27.065 -21.592 -14.709  0.00  0.00    +0.145 HD
ENDBRANCH  23  28
ENDBRANCH  19  20
ENDBRANCH   1  19
TORSDOF 5
ENDMDL
MODEL 4
REMARK VINA RESULT:      -9.3      1.492      1.898
REMARK  Name = 9863791
REMARK  5 active torsions:
REMARK  status: ('A' for Active; 'I' for Inactive)
REMARK    1  A    between atoms: N_1  and  C_19
REMARK    2  A    between atoms: C_11  and  C_16
REMARK    3  A    between atoms: C_16  and  O_17
REMARK    4  A    between atoms: C_19  and  C_20
REMARK    5  A    between atoms: C_23  and  C_28
REMARK                            x       y       z     vdW  Elec       q    Type
REMARK                         _______ _______ _______ _____ _____    ______ ____
ROOT
ATOM      1  N   UNL     1      34.111 -22.428 -15.311  0.00  0.00    -0.327 N 
ATOM      2  C   UNL     1      34.543 -22.250 -16.600  0.00  0.00    +0.033 A 
ATOM      3  C   UNL     1      33.455 -22.400 -17.440  0.00  0.00    -0.009 A 
ATOM      4  C   UNL     1      35.964 -21.949 -16.923  0.00  0.00    +0.043 C 
ATOM      5  C   UNL     1      33.494 -22.288 -18.927  0.00  0.00    +0.028 C 
ATOM      6  C   UNL     1      36.108 -20.703 -17.798  0.00  0.00    +0.006 C 
ATOM      7  C   UNL     1      34.111 -20.977 -19.420  0.00  0.00    +0.005 C 
ATOM      8  C   UNL     1      32.319 -22.681 -16.614  0.00  0.00    +0.013 A 
ATOM      9  C   UNL     1      35.630 -20.886 -19.242  0.00  0.00    +0.001 C 
ATOM     10  C   UNL     1      32.762 -22.690 -15.289  0.00  0.00    +0.066 A 
ATOM     11  C   UNL     1      31.910 -22.934 -14.206  0.00  0.00    +0.091 C 
ATOM     12  C   UNL     1      30.953 -22.929 -16.865  0.00  0.00    +0.001 C 
ATOM     13  C   UNL     1      30.562 -23.176 -14.483  0.00  0.00    +0.008 C 
ATOM     14  C   UNL     1      30.089 -23.173 -15.792  0.00  0.00    +0.000 C 
ENDROOT
BRANCH  11  16
ATOM     15  O   UNL     1      33.171 -23.747 -12.343  0.00  0.00    -0.245 OA
ATOM     16  C   UNL     1      32.362 -22.946 -12.827  0.00  0.00    +0.339 C 
BRANCH  16  17
ATOM     17  O   UNL     1      31.796 -21.956 -12.082  0.00  0.00    -0.477 OA
ATOM     18  H   UNL     1      31.880 -21.062 -12.349  0.00  0.00    +0.295 HD
ENDBRANCH  16  17
ENDBRANCH  11  16
BRANCH   1  19
ATOM     19  C   UNL     1      34.959 -22.355 -14.136  0.00  0.00    +0.132 C 
BRANCH  19  20
ATOM     20  C   UNL     1      36.009 -23.434 -14.150  0.00  0.00    +0.001 C 
ATOM     21  C   UNL     1      35.687 -24.695 -14.631  0.00  0.00    +0.002 C 
ATOM     22  C   UNL     1      37.284 -23.153 -13.679  0.00  0.00    -0.002 C 
ATOM     23  C   UNL     1      36.660 -25.695 -14.642  0.00  0.00    +0.053 C 
ATOM     24  C   UNL     1      38.257 -24.152 -13.690  0.00  0.00    -0.000 C 
ATOM     25  C   UNL     1      37.945 -25.424 -14.171  0.00  0.00    +0.004 C 
BRANCH  23  28
ATOM     26  O   UNL     1      36.429 -27.296 -16.354  0.00  0.00    -0.270 OA
ATOM     27  N   UNL     1      35.930 -27.982 -14.224  0.00  0.00    -0.325 N 
ATOM     28  C   UNL     1      36.335 -27.020 -15.145  0.00  0.00    +0.243 C 
ATOM     29  H   UNL     1      35.703 -28.889 -14.527  0.00  0.00    +0.145 HD
ATOM     30  H   UNL     1      35.872 -27.753 -13.267  0.00  0.00    +0.145 HD
ENDBRANCH  23  28
ENDBRANCH  19  20
ENDBRANCH   1  19
TORSDOF 5
ENDMDL
MODEL 5
REMARK VINA RESULT:      -9.3      2.413      4.767
REMARK  Name = 9863791
REMARK  5 active torsions:
REMARK  status: ('A' for Active; 'I' for Inactive)
REMARK    1  A    between atoms: N_1  and  C_19
REMARK    2  A    between atoms: C_11  and  C_16
REMARK    3  A    between atoms: C_16  and  O_17
REMARK    4  A    between atoms: C_19  and  C_20
REMARK    5  A    between atoms: C_23  and  C_28
REMARK                            x       y       z     vdW  Elec       q    Type
REMARK                         _______ _______ _______ _____ _____    ______ ____
ROOT
ATOM      1  N   UNL     1      34.220 -22.159 -15.449  0.00  0.00    -0.327 N 
ATOM      2  C   UNL     1      32.970 -22.587 -15.084  0.00  0.00    +0.033 A 
ATOM      3  C   UNL     1      32.215 -22.732 -16.233  0.00  0.00    -0.009 A 
ATOM      4  C   UNL     1      32.600 -22.823 -13.662  0.00  0.00    +0.043 C 
ATOM      5  C   UNL     1      30.792 -23.177 -16.277  0.00  0.00    +0.028 C 
ATOM      6  C   UNL     1      32.013 -24.217 -13.440  0.00  0.00    +0.006 C 
ATOM      7  C   UNL     1      30.549 -24.504 -15.555  0.00  0.00    +0.005 C 
ATOM      8  C   UNL     1      33.054 -22.374 -17.337  0.00  0.00    +0.013 A 
ATOM      9  C   UNL     1      30.610 -24.414 -14.026  0.00  0.00    +0.001 C 
ATOM     10  C   UNL     1      34.300 -22.022 -16.814  0.00  0.00    +0.066 A 
ATOM     11  C   UNL     1      35.373 -21.616 -17.616  0.00  0.00    +0.091 C 
ATOM     12  C   UNL     1      32.874 -22.316 -18.735  0.00  0.00    +0.001 C 
ATOM     13  C   UNL     1      35.167 -21.568 -18.998  0.00  0.00    +0.008 C 
ATOM     14  C   UNL     1      33.937 -21.912 -19.551  0.00  0.00    +0.000 C 
ENDROOT
BRANCH  11  16
ATOM     15  O   UNL     1      37.511 -22.037 -16.629  0.00  0.00    -0.245 OA
ATOM     16  C   UNL     1      36.671 -21.249 -17.081  0.00  0.00    +0.339 C 
BRANCH  16  17
ATOM     17  O   UNL     1      36.894 -19.906 -17.124  0.00  0.00    -0.477 OA
ATOM     18  H   UNL     1      36.860 -19.451 -17.942  0.00  0.00    +0.295 HD
ENDBRANCH  16  17
ENDBRANCH  11  16
BRANCH   1  19
ATOM     19  C   UNL     1      35.304 -21.884 -14.525  0.00  0.00    +0.132 C 
BRANCH  19  20
ATOM     20  C   UNL     1      35.642 -23.096 -13.698  0.00  0.00    +0.001 C 
ATOM     21  C   UNL     1      35.440 -23.065 -12.326  0.00  0.00    +0.002 C 
ATOM     22  C   UNL     1      36.151 -24.228 -14.320  0.00  0.00    -0.002 C 
ATOM     23  C   UNL     1      35.754 -24.188 -11.559  0.00  0.00    +0.053 C 
ATOM     24  C   UNL     1      36.465 -25.351 -13.554  0.00  0.00    -0.000 C 
ATOM     25  C   UNL     1      36.267 -25.331 -12.174  0.00  0.00    +0.004 C 
BRANCH  23  28
ATOM     26  O   UNL     1      34.884 -25.050  -9.548  0.00  0.00    -0.270 OA
ATOM     27  N   UNL     1      36.133 -23.134  -9.395  0.00  0.00    -0.325 N 
ATOM     28  C   UNL     1      35.548 -24.168 -10.120  0.00  0.00    +0.243 C 
ATOM     29  H   UNL     1      36.015 -23.088  -8.419  0.00  0.00    +0.145 HD
ATOM     30  H   UNL     1      36.666 -22.449  -9.859  0.00  0.00    +0.145 HD
ENDBRANCH  23  28
ENDBRANCH  19  20
ENDBRANCH   1  19
TORSDOF 5
ENDMDL
MODEL 6
REMARK VINA RESULT:      -9.0      2.172      6.166
REMARK  Name = 9863791
REMARK  5 active torsions:
REMARK  status: ('A' for Active; 'I' for Inactive)
REMARK    1  A    between atoms: N_1  and  C_19
REMARK    2  A    between atoms: C_11  and  C_16
REMARK    3  A    between atoms: C_16  and  O_17
REMARK    4  A    between atoms: C_19  and  C_20
REMARK    5  A    between atoms: C_23  and  C_28
REMARK                            x       y       z     vdW  Elec       q    Type
REMARK                         _______ _______ _______ _____ _____    ______ ____
ROOT
ATOM      1  N   UNL     1      34.426 -23.235 -16.324  0.00  0.00    -0.327 N 
ATOM      2  C   UNL     1      34.350 -22.215 -17.236  0.00  0.00    +0.033 A 
ATOM      3  C   UNL     1      35.582 -21.590 -17.283  0.00  0.00    -0.009 A 
ATOM      4  C   UNL     1      33.101 -21.921 -17.992  0.00  0.00    +0.043 C 
ATOM      5  C   UNL     1      35.925 -20.424 -18.149  0.00  0.00    +0.028 C 
ATOM      6  C   UNL     1      33.337 -21.871 -19.502  0.00  0.00    +0.006 C 
ATOM      7  C   UNL     1      35.619 -20.660 -19.630  0.00  0.00    +0.005 C 
ATOM      8  C   UNL     1      36.435 -22.269 -16.354  0.00  0.00    +0.013 A 
ATOM      9  C   UNL     1      34.127 -20.648 -19.979  0.00  0.00    +0.001 C 
ATOM     10  C   UNL     1      35.683 -23.292 -15.772  0.00  0.00    +0.066 A 
ATOM     11  C   UNL     1      36.205 -24.165 -14.811  0.00  0.00    +0.091 C 
ATOM     12  C   UNL     1      37.778 -22.112 -15.951  0.00  0.00    +0.001 C 
ATOM     13  C   UNL     1      37.537 -23.987 -14.429  0.00  0.00    +0.008 C 
ATOM     14  C   UNL     1      38.314 -22.977 -14.990  0.00  0.00    +0.000 C 
ENDROOT
BRANCH  11  16
ATOM     15  O   UNL     1      35.331 -26.384 -14.635  0.00  0.00    -0.245 OA
ATOM     16  C   UNL     1      35.430 -25.230 -14.201  0.00  0.00    +0.339 C 
BRANCH  16  17
ATOM     17  O   UNL     1      34.799 -24.832 -13.062  0.00  0.00    -0.477 OA
ATOM     18  H   UNL     1      35.298 -24.630 -12.295  0.00  0.00    +0.295 HD
ENDBRANCH  16  17
ENDBRANCH  11  16
BRANCH   1  19
ATOM     19  C   UNL     1      33.332 -24.125 -15.984  0.00  0.00    +0.132 C 
BRANCH  19  20
ATOM     20  C   UNL     1      32.173 -23.369 -15.391  0.00  0.00    +0.001 C 
ATOM     21  C   UNL     1      30.951 -23.364 -16.049  0.00  0.00    +0.002 C 
ATOM     22  C   UNL     1      32.343 -22.686 -14.195  0.00  0.00    -0.002 C 
ATOM     23  C   UNL     1      29.878 -22.662 -15.500  0.00  0.00    +0.053 C 
ATOM     24  C   UNL     1      31.270 -21.984 -13.645  0.00  0.00    -0.000 C 
ATOM     25  C   UNL     1      30.038 -21.972 -14.297  0.00  0.00    +0.004 C 
BRANCH  23  28
ATOM     26  O   UNL     1      28.151 -21.616 -16.711  0.00  0.00    -0.270 OA
ATOM     27  N   UNL     1      27.875 -23.840 -16.231  0.00  0.00    -0.325 N 
ATOM     28  C   UNL     1      28.592 -22.649 -16.179  0.00  0.00    +0.243 C 
ATOM     29  H   UNL     1      27.001 -23.870 -16.682  0.00  0.00    +0.145 HD
ATOM     30  H   UNL     1      28.242 -24.655 -15.817  0.00  0.00    +0.145 HD
ENDBRANCH  23  28
ENDBRANCH  19  20
ENDBRANCH   1  19
TORSDOF 5
ENDMDL
