MODEL 1
REMARK VINA RESULT:     -11.4      0.000      0.000
REMARK  Name = 46189893
REMARK  4 active torsions:
REMARK  status: ('A' for Active; 'I' for Inactive)
REMARK    1  A    between atoms: C_1  and  C_8
REMARK    2  A    between atoms: C_2  and  C_15
REMARK    3  A    between atoms: C_15  and  O_16
REMARK    4  A    between atoms: O_16  and  C_20
REMARK                            x       y       z     vdW  Elec       q    Type
REMARK                         _______ _______ _______ _____ _____    ______ ____
ROOT
ATOM      1  C   UNL     1      33.057 -23.082 -15.310  0.00  0.00    -0.023 C 
ATOM      2  C   UNL     1      32.320 -22.829 -16.467  0.00  0.00    +0.017 C 
ATOM      3  C   UNL     1      32.432 -23.049 -14.064  0.00  0.00    -0.004 C 
ATOM      4  C   UNL     1      30.957 -22.543 -16.378  0.00  0.00    -0.001 C 
ATOM      5  C   UNL     1      31.070 -22.762 -13.974  0.00  0.00    -0.000 C 
ATOM      6  C   UNL     1      30.332 -22.509 -15.131  0.00  0.00    -0.000 C 
ENDROOT
BRANCH   1   8
ATOM      7  N   UNL     1      37.171 -23.795 -14.164  0.00  0.00    +0.384 N 
ATOM      8  C   UNL     1      34.538 -23.396 -15.382  0.00  0.00    +0.018 C 
ATOM      9  C   UNL     1      35.408 -22.224 -14.898  0.00  0.00    -0.019 C 
ATOM     10  C   UNL     1      34.902 -24.674 -14.607  0.00  0.00    -0.019 C 
ATOM     11  C   UNL     1      36.893 -22.586 -14.941  0.00  0.00    -0.081 C 
ATOM     12  C   UNL     1      36.407 -24.939 -14.662  0.00  0.00    -0.081 C 
ATOM     13  H   UNL     1      36.923 -23.629 -13.190  0.00  0.00    -0.085 HD
ATOM     14  H   UNL     1      38.164 -24.010 -14.254  0.00  0.00    -0.085 HD
ENDBRANCH   1   8
BRANCH   2  15
ATOM     15  C   UNL     1      32.967 -22.860 -17.813  0.00  0.00    +0.232 C 
BRANCH  15  16
ATOM     16  O   UNL     1      32.437 -21.811 -18.613  0.00  0.00    -0.466 OA
BRANCH  16  20
ATOM     17  F   UNL     1      31.582 -20.080 -20.579  0.00  0.00    -0.201 F 
ATOM     18  F   UNL     1      35.137 -21.998 -18.092  0.00  0.00    -0.201 F 
ATOM     19  F   UNL     1      36.052 -18.783 -21.444  0.00  0.00    -0.204 F 
ATOM     20  C   UNL     1      33.338 -21.057 -19.319  0.00  0.00    +0.194 C 
ATOM     21  C   UNL     1      32.891 -20.185 -20.312  0.00  0.00    +0.178 C 
ATOM     22  C   UNL     1      34.702 -21.162 -19.044  0.00  0.00    +0.178 C 
ATOM     23  C   UNL     1      33.808 -19.417 -21.029  0.00  0.00    +0.063 C 
ATOM     24  C   UNL     1      35.618 -20.394 -19.762  0.00  0.00    +0.063 C 
ATOM     25  C   UNL     1      35.171 -19.521 -20.755  0.00  0.00    +0.145 C 
ENDBRANCH  16  20
ENDBRANCH  15  16
ENDBRANCH   2  15
TORSDOF 4
ENDMDL
MODEL 2
REMARK VINA RESULT:     -11.3      0.061      1.725
REMARK  Name = 46189893
REMARK  4 active torsions:
REMARK  status: ('A' for Active; 'I' for Inactive)
REMARK    1  A    between atoms: C_1  and  C_8
REMARK    2  A    between atoms: C_2  and  C_15
REMARK    3  A    between atoms: C_15  and  O_16
REMARK    4  A    between atoms: O_16  and  C_20
REMARK                            x       y       z     vdW  Elec       q    Type
REMARK                         _______ _______ _______ _____ _____    ______ ____
ROOT
ATOM      1  C   UNL     1      33.097 -23.100 -15.340  0.00  0.00    -0.023 C 
ATOM      2  C   UNL     1      32.371 -22.846 -16.504  0.00  0.00    +0.017 C 
ATOM      3  C   UNL     1      32.463 -23.058 -14.099  0.00  0.00    -0.004 C 
ATOM      4  C   UNL     1      31.009 -22.551 -16.426  0.00  0.00    -0.001 C 
ATOM      5  C   UNL     1      31.102 -22.761 -14.021  0.00  0.00    -0.000 C 
ATOM      6  C   UNL     1      30.375 -22.508 -15.185  0.00  0.00    -0.000 C 
ENDROOT
BRANCH   1   8
ATOM      7  N   UNL     1      37.209 -23.782 -14.168  0.00  0.00    +0.384 N 
ATOM      8  C   UNL     1      34.577 -23.424 -15.400  0.00  0.00    +0.018 C 
ATOM      9  C   UNL     1      35.453 -22.236 -14.968  0.00  0.00    -0.019 C 
ATOM     10  C   UNL     1      34.935 -24.668 -14.569  0.00  0.00    -0.019 C 
ATOM     11  C   UNL     1      36.936 -22.607 -14.996  0.00  0.00    -0.081 C 
ATOM     12  C   UNL     1      36.439 -24.943 -14.614  0.00  0.00    -0.081 C 
ATOM     13  H   UNL     1      36.962 -23.572 -13.201  0.00  0.00    -0.085 HD
ATOM     14  H   UNL     1      38.201 -24.006 -14.249  0.00  0.00    -0.085 HD
ENDBRANCH   1   8
BRANCH   2  15
ATOM     15  C   UNL     1      33.028 -22.887 -17.844  0.00  0.00    +0.232 C 
BRANCH  15  16
ATOM     16  O   UNL     1      32.487 -21.859 -18.664  0.00  0.00    -0.466 OA
BRANCH  16  20
ATOM     17  F   UNL     1      35.183 -22.014 -18.120  0.00  0.00    -0.201 F 
ATOM     18  F   UNL     1      31.624 -20.102 -20.605  0.00  0.00    -0.201 F 
ATOM     19  F   UNL     1      36.082 -18.720 -21.399  0.00  0.00    -0.204 F 
ATOM     20  C   UNL     1      33.383 -21.077 -19.346  0.00  0.00    +0.194 C 
ATOM     21  C   UNL     1      34.745 -21.165 -19.059  0.00  0.00    +0.178 C 
ATOM     22  C   UNL     1      32.932 -20.191 -20.325  0.00  0.00    +0.178 C 
ATOM     23  C   UNL     1      35.656 -20.370 -19.753  0.00  0.00    +0.063 C 
ATOM     24  C   UNL     1      33.843 -19.396 -21.018  0.00  0.00    +0.063 C 
ATOM     25  C   UNL     1      35.206 -19.485 -20.732  0.00  0.00    +0.145 C 
ENDBRANCH  16  20
ENDBRANCH  15  16
ENDBRANCH   2  15
TORSDOF 4
ENDMDL
MODEL 3
REMARK VINA RESULT:     -11.3      1.588      2.476
REMARK  Name = 46189893
REMARK  4 active torsions:
REMARK  status: ('A' for Active; 'I' for Inactive)
REMARK    1  A    between atoms: C_1  and  C_8
REMARK    2  A    between atoms: C_2  and  C_15
REMARK    3  A    between atoms: C_15  and  O_16
REMARK    4  A    between atoms: O_16  and  C_20
REMARK                            x       y       z     vdW  Elec       q    Type
REMARK                         _______ _______ _______ _____ _____    ______ ____
ROOT
ATOM      1  C   UNL     1      33.892 -23.789 -14.083  0.00  0.00    -0.023 C 
ATOM      2  C   UNL     1      33.520 -22.856 -15.051  0.00  0.00    +0.017 C 
ATOM      3  C   UNL     1      32.934 -24.313 -13.216  0.00  0.00    -0.004 C 
ATOM      4  C   UNL     1      32.189 -22.447 -15.152  0.00  0.00    -0.001 C 
ATOM      5  C   UNL     1      31.605 -23.904 -13.315  0.00  0.00    -0.000 C 
ATOM      6  C   UNL     1      31.232 -22.971 -14.283  0.00  0.00    -0.000 C 
ENDROOT
BRANCH   1   8
ATOM      7  N   UNL     1      37.374 -26.213 -13.217  0.00  0.00    +0.384 N 
ATOM      8  C   UNL     1      35.331 -24.250 -13.956  0.00  0.00    +0.018 C 
ATOM      9  C   UNL     1      35.733 -24.509 -12.494  0.00  0.00    -0.019 C 
ATOM     10  C   UNL     1      35.622 -25.496 -14.809  0.00  0.00    -0.019 C 
ATOM     11  C   UNL     1      37.174 -25.013 -12.402  0.00  0.00    -0.081 C 
ATOM     12  C   UNL     1      37.067 -25.961 -14.625  0.00  0.00    -0.081 C 
ATOM     13  H   UNL     1      36.765 -26.954 -12.872  0.00  0.00    -0.085 HD
ATOM     14  H   UNL     1      38.354 -26.486 -13.147  0.00  0.00    -0.085 HD
ENDBRANCH   1   8
BRANCH   2  15
ATOM     15  C   UNL     1      34.527 -22.282 -15.992  0.00  0.00    +0.232 C 
BRANCH  15  16
ATOM     16  O   UNL     1      34.287 -22.784 -17.301  0.00  0.00    -0.466 OA
BRANCH  16  20
ATOM     17  F   UNL     1      36.505 -21.653 -18.480  0.00  0.00    -0.201 F 
ATOM     18  F   UNL     1      31.786 -22.016 -18.171  0.00  0.00    -0.201 F 
ATOM     19  F   UNL     1      33.736 -19.065 -21.316  0.00  0.00    -0.204 F 
ATOM     20  C   UNL     1      34.149 -21.857 -18.302  0.00  0.00    +0.194 C 
ATOM     21  C   UNL     1      35.281 -21.292 -18.889  0.00  0.00    +0.178 C 
ATOM     22  C   UNL     1      32.877 -21.477 -18.732  0.00  0.00    +0.178 C 
ATOM     23  C   UNL     1      35.141 -20.349 -19.907  0.00  0.00    +0.063 C 
ATOM     24  C   UNL     1      32.738 -20.535 -19.749  0.00  0.00    +0.063 C 
ATOM     25  C   UNL     1      33.870 -19.971 -20.338  0.00  0.00    +0.145 C 
ENDBRANCH  16  20
ENDBRANCH  15  16
ENDBRANCH   2  15
TORSDOF 4
ENDMDL
MODEL 4
REMARK VINA RESULT:     -10.9     10.306     13.776
REMARK  Name = 46189893
REMARK  4 active torsions:
REMARK  status: ('A' for Active; 'I' for Inactive)
REMARK    1  A    between atoms: C_1  and  C_8
REMARK    2  A    between atoms: C_2  and  C_15
REMARK    3  A    between atoms: C_15  and  O_16
REMARK    4  A    between atoms: O_16  and  C_20
REMARK                            x       y       z     vdW  Elec       q    Type
REMARK                         _______ _______ _______ _____ _____    ______ ____
ROOT
ATOM      1  C   UNL     1      31.621  -8.855 -21.634  0.00  0.00    -0.023 C 
ATOM      2  C   UNL     1      31.563 -10.244 -21.524  0.00  0.00    +0.017 C 
ATOM      3  C   UNL     1      31.535  -8.061 -20.490  0.00  0.00    -0.004 C 
ATOM      4  C   UNL     1      31.419 -10.840 -20.270  0.00  0.00    -0.001 C 
ATOM      5  C   UNL     1      31.390  -8.656 -19.237  0.00  0.00    -0.000 C 
ATOM      6  C   UNL     1      31.332 -10.046 -19.127  0.00  0.00    -0.000 C 
ENDROOT
BRANCH   1   8
ATOM      7  N   UNL     1      31.944  -5.825 -24.710  0.00  0.00    +0.384 N 
ATOM      8  C   UNL     1      31.778  -8.185 -22.985  0.00  0.00    +0.018 C 
ATOM      9  C   UNL     1      30.539  -7.362 -23.376  0.00  0.00    -0.019 C 
ATOM     10  C   UNL     1      33.037  -7.303 -23.055  0.00  0.00    -0.019 C 
ATOM     11  C   UNL     1      30.745  -6.664 -24.720  0.00  0.00    -0.081 C 
ATOM     12  C   UNL     1      33.143  -6.608 -24.413  0.00  0.00    -0.081 C 
ATOM     13  H   UNL     1      31.836  -5.101 -24.000  0.00  0.00    -0.085 HD
ATOM     14  H   UNL     1      32.053  -5.412 -25.636  0.00  0.00    -0.085 HD
ENDBRANCH   1   8
BRANCH   2  15
ATOM     15  C   UNL     1      31.654 -11.115 -22.734  0.00  0.00    +0.232 C 
BRANCH  15  16
ATOM     16  O   UNL     1      33.014 -11.461 -22.962  0.00  0.00    -0.466 OA
BRANCH  16  20
ATOM     17  F   UNL     1      34.060 -12.981 -20.915  0.00  0.00    -0.201 F 
ATOM     18  F   UNL     1      32.532 -12.664 -25.395  0.00  0.00    -0.201 F 
ATOM     19  F   UNL     1      34.120 -16.796 -23.717  0.00  0.00    -0.204 F 
ATOM     20  C   UNL     1      33.290 -12.791 -23.150  0.00  0.00    +0.194 C 
ATOM     21  C   UNL     1      33.820 -13.548 -22.105  0.00  0.00    +0.178 C 
ATOM     22  C   UNL     1      33.041 -13.387 -24.387  0.00  0.00    +0.178 C 
ATOM     23  C   UNL     1      34.100 -14.900 -22.297  0.00  0.00    +0.063 C 
ATOM     24  C   UNL     1      33.322 -14.739 -24.578  0.00  0.00    +0.063 C 
ATOM     25  C   UNL     1      33.851 -15.496 -23.533  0.00  0.00    +0.145 C 
ENDBRANCH  16  20
ENDBRANCH  15  16
ENDBRANCH   2  15
TORSDOF 4
ENDMDL
MODEL 5
REMARK VINA RESULT:     -10.9     10.324     13.712
REMARK  Name = 46189893
REMARK  4 active torsions:
REMARK  status: ('A' for Active; 'I' for Inactive)
REMARK    1  A    between atoms: C_1  and  C_8
REMARK    2  A    between atoms: C_2  and  C_15
REMARK    3  A    between atoms: C_15  and  O_16
REMARK    4  A    between atoms: O_16  and  C_20
REMARK                            x       y       z     vdW  Elec       q    Type
REMARK                         _______ _______ _______ _____ _____    ______ ____
ROOT
ATOM      1  C   UNL     1      31.604  -8.856 -21.640  0.00  0.00    -0.023 C 
ATOM      2  C   UNL     1      31.561 -10.247 -21.544  0.00  0.00    +0.017 C 
ATOM      3  C   UNL     1      31.520  -8.075 -20.487  0.00  0.00    -0.004 C 
ATOM      4  C   UNL     1      31.434 -10.857 -20.296  0.00  0.00    -0.001 C 
ATOM      5  C   UNL     1      31.392  -8.684 -19.240  0.00  0.00    -0.000 C 
ATOM      6  C   UNL     1      31.349 -10.075 -19.143  0.00  0.00    -0.000 C 
ENDROOT
BRANCH   1   8
ATOM      7  N   UNL     1      31.873  -5.790 -24.686  0.00  0.00    +0.384 N 
ATOM      8  C   UNL     1      31.743  -8.170 -22.985  0.00  0.00    +0.018 C 
ATOM      9  C   UNL     1      30.493  -7.353 -23.355  0.00  0.00    -0.019 C 
ATOM     10  C   UNL     1      32.993  -7.277 -23.058  0.00  0.00    -0.019 C 
ATOM     11  C   UNL     1      30.681  -6.640 -24.694  0.00  0.00    -0.081 C 
ATOM     12  C   UNL     1      33.081  -6.567 -24.410  0.00  0.00    -0.081 C 
ATOM     13  H   UNL     1      31.766  -5.075 -23.968  0.00  0.00    -0.085 HD
ATOM     14  H   UNL     1      31.969  -5.367 -25.609  0.00  0.00    -0.085 HD
ENDBRANCH   1   8
BRANCH   2  15
ATOM     15  C   UNL     1      31.650 -11.104 -22.764  0.00  0.00    +0.232 C 
BRANCH  15  16
ATOM     16  O   UNL     1      33.010 -11.446 -22.999  0.00  0.00    -0.466 OA
BRANCH  16  20
ATOM     17  F   UNL     1      32.530 -12.629 -25.441  0.00  0.00    -0.201 F 
ATOM     18  F   UNL     1      34.059 -12.982 -20.964  0.00  0.00    -0.201 F 
ATOM     19  F   UNL     1      34.122 -16.773 -23.798  0.00  0.00    -0.204 F 
ATOM     20  C   UNL     1      33.287 -12.774 -23.198  0.00  0.00    +0.194 C 
ATOM     21  C   UNL     1      33.038 -13.360 -24.439  0.00  0.00    +0.178 C 
ATOM     22  C   UNL     1      33.818 -13.539 -22.159  0.00  0.00    +0.178 C 
ATOM     23  C   UNL     1      33.320 -14.710 -24.641  0.00  0.00    +0.063 C 
ATOM     24  C   UNL     1      34.099 -14.889 -22.362  0.00  0.00    +0.063 C 
ATOM     25  C   UNL     1      33.851 -15.475 -23.603  0.00  0.00    +0.145 C 
ENDBRANCH  16  20
ENDBRANCH  15  16
ENDBRANCH   2  15
TORSDOF 4
ENDMDL
MODEL 6
REMARK VINA RESULT:     -10.8     10.561     13.991
REMARK  Name = 46189893
REMARK  4 active torsions:
REMARK  status: ('A' for Active; 'I' for Inactive)
REMARK    1  A    between atoms: C_1  and  C_8
REMARK    2  A    between atoms: C_2  and  C_15
REMARK    3  A    between atoms: C_15  and  O_16
REMARK    4  A    between atoms: O_16  and  C_20
REMARK                            x       y       z     vdW  Elec       q    Type
REMARK                         _______ _______ _______ _____ _____    ______ ____
ROOT
ATOM      1  C   UNL     1      31.778  -8.282 -21.783  0.00  0.00    -0.023 C 
ATOM      2  C   UNL     1      31.623  -9.650 -21.557  0.00  0.00    +0.017 C 
ATOM      3  C   UNL     1      31.580  -7.376 -20.742  0.00  0.00    -0.004 C 
ATOM      4  C   UNL     1      31.269 -10.112 -20.289  0.00  0.00    -0.001 C 
ATOM      5  C   UNL     1      31.225  -7.837 -19.474  0.00  0.00    -0.000 C 
ATOM      6  C   UNL     1      31.070  -9.205 -19.247  0.00  0.00    -0.000 C 
ENDROOT
BRANCH   1   8
ATOM      7  N   UNL     1      32.648  -5.589 -25.061  0.00  0.00    +0.384 N 
ATOM      8  C   UNL     1      32.164  -7.757 -23.152  0.00  0.00    +0.018 C 
ATOM      9  C   UNL     1      31.019  -6.978 -23.822  0.00  0.00    -0.019 C 
ATOM     10  C   UNL     1      33.432  -6.888 -23.108  0.00  0.00    -0.019 C 
ATOM     11  C   UNL     1      31.451  -6.424 -25.180  0.00  0.00    -0.081 C 
ATOM     12  C   UNL     1      33.769  -6.338 -24.495  0.00  0.00    -0.081 C 
ATOM     13  H   UNL     1      32.439  -4.795 -24.456  0.00  0.00    -0.085 HD
ATOM     14  H   UNL     1      32.911  -5.275 -25.995  0.00  0.00    -0.085 HD
ENDBRANCH   1   8
BRANCH   2  15
ATOM     15  C   UNL     1      31.832 -10.639 -22.656  0.00  0.00    +0.232 C 
BRANCH  15  16
ATOM     16  O   UNL     1      31.380 -11.917 -22.229  0.00  0.00    -0.466 OA
BRANCH  16  20
ATOM     17  F   UNL     1      32.189 -13.051 -19.852  0.00  0.00    -0.201 F 
ATOM     18  F   UNL     1      32.469 -12.852 -24.583  0.00  0.00    -0.201 F 
ATOM     19  F   UNL     1      35.099 -15.970 -22.181  0.00  0.00    -0.204 F 
ATOM     20  C   UNL     1      32.307 -12.928 -22.218  0.00  0.00    +0.194 C 
ATOM     21  C   UNL     1      32.708 -13.492 -21.007  0.00  0.00    +0.178 C 
ATOM     22  C   UNL     1      32.850 -13.391 -23.417  0.00  0.00    +0.178 C 
ATOM     23  C   UNL     1      33.651 -14.519 -20.995  0.00  0.00    +0.063 C 
ATOM     24  C   UNL     1      33.793 -14.418 -23.404  0.00  0.00    +0.063 C 
ATOM     25  C   UNL     1      34.193 -14.983 -22.193  0.00  0.00    +0.145 C 
ENDBRANCH  16  20
ENDBRANCH  15  16
ENDBRANCH   2  15
TORSDOF 4
ENDMDL
MODEL 7
REMARK VINA RESULT:     -10.7      2.313      4.387
REMARK  Name = 46189893
REMARK  4 active torsions:
REMARK  status: ('A' for Active; 'I' for Inactive)
REMARK    1  A    between atoms: C_1  and  C_8
REMARK    2  A    between atoms: C_2  and  C_15
REMARK    3  A    between atoms: C_15  and  O_16
REMARK    4  A    between atoms: O_16  and  C_20
REMARK                            x       y       z     vdW  Elec       q    Type
REMARK                         _______ _______ _______ _____ _____    ______ ____
ROOT
ATOM      1  C   UNL     1      32.037 -23.157 -15.235  0.00  0.00    -0.023 C 
ATOM      2  C   UNL     1      33.049 -22.777 -16.116  0.00  0.00    +0.017 C 
ATOM      3  C   UNL     1      32.358 -23.603 -13.953  0.00  0.00    -0.004 C 
ATOM      4  C   UNL     1      34.384 -22.845 -15.716  0.00  0.00    -0.001 C 
ATOM      5  C   UNL     1      33.693 -23.671 -13.553  0.00  0.00    -0.000 C 
ATOM      6  C   UNL     1      34.706 -23.292 -14.434  0.00  0.00    -0.000 C 
ENDROOT
BRANCH   1   8
ATOM      7  N   UNL     1      27.711 -23.291 -15.091  0.00  0.00    +0.384 N 
ATOM      8  C   UNL     1      30.579 -23.091 -15.647  0.00  0.00    +0.018 C 
ATOM      9  C   UNL     1      29.864 -24.443 -15.482  0.00  0.00    -0.019 C 
ATOM     10  C   UNL     1      29.808 -21.995 -14.891  0.00  0.00    -0.019 C 
ATOM     11  C   UNL     1      28.388 -24.334 -15.863  0.00  0.00    -0.081 C 
ATOM     12  C   UNL     1      28.333 -21.983 -15.296  0.00  0.00    -0.081 C 
ATOM     13  H   UNL     1      27.757 -23.529 -14.100  0.00  0.00    -0.085 HD
ATOM     14  H   UNL     1      26.743 -23.238 -15.406  0.00  0.00    -0.085 HD
ENDBRANCH   1   8
BRANCH   2  15
ATOM     15  C   UNL     1      32.729 -22.295 -17.493  0.00  0.00    +0.232 C 
BRANCH  15  16
ATOM     16  O   UNL     1      33.850 -22.512 -18.339  0.00  0.00    -0.466 OA
BRANCH  16  20
ATOM     17  F   UNL     1      36.469 -21.664 -18.231  0.00  0.00    -0.201 F 
ATOM     18  F   UNL     1      32.091 -21.180 -19.992  0.00  0.00    -0.201 F 
ATOM     19  F   UNL     1      35.538 -18.239 -21.363  0.00  0.00    -0.204 F 
ATOM     20  C   UNL     1      34.271 -21.447 -19.093  0.00  0.00    +0.194 C 
ATOM     21  C   UNL     1      35.600 -21.028 -19.028  0.00  0.00    +0.178 C 
ATOM     22  C   UNL     1      33.369 -20.782 -19.925  0.00  0.00    +0.178 C 
ATOM     23  C   UNL     1      36.027 -19.945 -19.794  0.00  0.00    +0.063 C 
ATOM     24  C   UNL     1      33.798 -19.699 -20.691  0.00  0.00    +0.063 C 
ATOM     25  C   UNL     1      35.127 -19.280 -20.626  0.00  0.00    +0.145 C 
ENDBRANCH  16  20
ENDBRANCH  15  16
ENDBRANCH   2  15
TORSDOF 4
ENDMDL
MODEL 8
REMARK VINA RESULT:     -10.7      3.079      5.932
REMARK  Name = 46189893
REMARK  4 active torsions:
REMARK  status: ('A' for Active; 'I' for Inactive)
REMARK    1  A    between atoms: C_1  and  C_8
REMARK    2  A    between atoms: C_2  and  C_15
REMARK    3  A    between atoms: C_15  and  O_16
REMARK    4  A    between atoms: O_16  and  C_20
REMARK                            x       y       z     vdW  Elec       q    Type
REMARK                         _______ _______ _______ _____ _____    ______ ____
ROOT
ATOM      1  C   UNL     1      35.981 -22.951 -15.332  0.00  0.00    -0.023 C 
ATOM      2  C   UNL     1      34.933 -22.682 -16.211  0.00  0.00    +0.017 C 
ATOM      3  C   UNL     1      37.185 -22.256 -15.447  0.00  0.00    -0.004 C 
ATOM      4  C   UNL     1      35.088 -21.716 -17.207  0.00  0.00    -0.001 C 
ATOM      5  C   UNL     1      37.340 -21.291 -16.442  0.00  0.00    -0.000 C 
ATOM      6  C   UNL     1      36.292 -21.021 -17.322  0.00  0.00    -0.000 C 
ENDROOT
BRANCH   1   8
ATOM      7  N   UNL     1      36.815 -25.464 -11.905  0.00  0.00    +0.384 N 
ATOM      8  C   UNL     1      35.836 -23.995 -14.242  0.00  0.00    +0.018 C 
ATOM      9  C   UNL     1      36.897 -25.104 -14.351  0.00  0.00    -0.019 C 
ATOM     10  C   UNL     1      35.868 -23.377 -12.834  0.00  0.00    -0.019 C 
ATOM     11  C   UNL     1      36.752 -26.116 -13.214  0.00  0.00    -0.081 C 
ATOM     12  C   UNL     1      35.763 -24.458 -11.757  0.00  0.00    -0.081 C 
ATOM     13  H   UNL     1      37.723 -25.013 -11.803  0.00  0.00    -0.085 HD
ATOM     14  H   UNL     1      36.680 -26.176 -11.187  0.00  0.00    -0.085 HD
ENDBRANCH   1   8
BRANCH   2  15
ATOM     15  C   UNL     1      33.635 -23.413 -16.107  0.00  0.00    +0.232 C 
BRANCH  15  16
ATOM     16  O   UNL     1      32.761 -22.697 -15.243  0.00  0.00    -0.466 OA
BRANCH  16  20
ATOM     17  F   UNL     1      30.493 -22.270 -16.748  0.00  0.00    -0.201 F 
ATOM     18  F   UNL     1      32.611 -24.380 -13.065  0.00  0.00    -0.201 F 
ATOM     19  F   UNL     1      28.021 -25.156 -13.924  0.00  0.00    -0.204 F 
ATOM     20  C   UNL     1      31.580 -23.310 -14.914  0.00  0.00    +0.194 C 
ATOM     21  C   UNL     1      30.439 -23.084 -15.685  0.00  0.00    +0.178 C 
ATOM     22  C   UNL     1      31.518 -24.160 -13.809  0.00  0.00    +0.178 C 
ATOM     23  C   UNL     1      29.237 -23.708 -15.350  0.00  0.00    +0.063 C 
ATOM     24  C   UNL     1      30.316 -24.782 -13.475  0.00  0.00    +0.063 C 
ATOM     25  C   UNL     1      29.176 -24.557 -14.246  0.00  0.00    +0.145 C 
ENDBRANCH  16  20
ENDBRANCH  15  16
ENDBRANCH   2  15
TORSDOF 4
ENDMDL
MODEL 9
REMARK VINA RESULT:     -10.5      1.989      3.938
REMARK  Name = 46189893
REMARK  4 active torsions:
REMARK  status: ('A' for Active; 'I' for Inactive)
REMARK    1  A    between atoms: C_1  and  C_8
REMARK    2  A    between atoms: C_2  and  C_15
REMARK    3  A    between atoms: C_15  and  O_16
REMARK    4  A    between atoms: O_16  and  C_20
REMARK                            x       y       z     vdW  Elec       q    Type
REMARK                         _______ _______ _______ _____ _____    ______ ____
ROOT
ATOM      1  C   UNL     1      33.855 -23.063 -14.735  0.00  0.00    -0.023 C 
ATOM      2  C   UNL     1      34.335 -22.570 -15.949  0.00  0.00    +0.017 C 
ATOM      3  C   UNL     1      34.721 -23.215 -13.653  0.00  0.00    -0.004 C 
ATOM      4  C   UNL     1      35.682 -22.229 -16.080  0.00  0.00    -0.001 C 
ATOM      5  C   UNL     1      36.067 -22.875 -13.784  0.00  0.00    -0.000 C 
ATOM      6  C   UNL     1      36.548 -22.382 -14.998  0.00  0.00    -0.000 C 
ENDROOT
BRANCH   1   8
ATOM      7  N   UNL     1      29.915 -23.599 -13.020  0.00  0.00    +0.384 N 
ATOM      8  C   UNL     1      32.395 -23.438 -14.568  0.00  0.00    +0.018 C 
ATOM      9  C   UNL     1      32.185 -24.480 -13.457  0.00  0.00    -0.019 C 
ATOM     10  C   UNL     1      31.503 -22.212 -14.313  0.00  0.00    -0.019 C 
ATOM     11  C   UNL     1      30.701 -24.806 -13.283  0.00  0.00    -0.081 C 
ATOM     12  C   UNL     1      30.046 -22.627 -14.106  0.00  0.00    -0.081 C 
ATOM     13  H   UNL     1      30.241 -23.173 -12.153  0.00  0.00    -0.085 HD
ATOM     14  H   UNL     1      28.934 -23.867 -12.946  0.00  0.00    -0.085 HD
ENDBRANCH   1   8
BRANCH   2  15
ATOM     15  C   UNL     1      33.426 -22.398 -17.121  0.00  0.00    +0.232 C 
BRANCH  15  16
ATOM     16  O   UNL     1      34.176 -22.540 -18.321  0.00  0.00    -0.466 OA
BRANCH  16  20
ATOM     17  F   UNL     1      36.586 -21.458 -19.106  0.00  0.00    -0.201 F 
ATOM     18  F   UNL     1      31.845 -21.397 -19.248  0.00  0.00    -0.201 F 
ATOM     19  F   UNL     1      34.333 -18.182 -21.674  0.00  0.00    -0.204 F 
ATOM     20  C   UNL     1      34.215 -21.453 -19.157  0.00  0.00    +0.194 C 
ATOM     21  C   UNL     1      35.442 -20.916 -19.545  0.00  0.00    +0.178 C 
ATOM     22  C   UNL     1      33.027 -20.885 -19.618  0.00  0.00    +0.178 C 
ATOM     23  C   UNL     1      35.481 -19.811 -20.395  0.00  0.00    +0.063 C 
ATOM     24  C   UNL     1      33.067 -19.780 -20.468  0.00  0.00    +0.063 C 
ATOM     25  C   UNL     1      34.295 -19.244 -20.857  0.00  0.00    +0.145 C 
ENDBRANCH  16  20
ENDBRANCH  15  16
ENDBRANCH   2  15
TORSDOF 4
ENDMDL
