MODEL 1
REMARK VINA RESULT:     -12.0      0.000      0.000
REMARK  Name = 8395
REMARK  6 active torsions:
REMARK  status: ('A' for Active; 'I' for Inactive)
REMARK    1  A    between atoms: C_5  and  C_12
REMARK    2  A    between atoms: C_9  and  O_18
REMARK    3  A    between atoms: O_18  and  C_19
REMARK    4  A    between atoms: C_19  and  C_21
REMARK    5  A    between atoms: C_21  and  O_22
REMARK    6  A    between atoms: O_22  and  C_23
REMARK                            x       y       z     vdW  Elec       q    Type
REMARK                         _______ _______ _______ _____ _____    ______ ____
ROOT
ATOM      1  O   UNL     1      33.174 -13.344 -21.962  0.00  0.00    -0.453 OA
ATOM      2  O   UNL     1      33.090 -14.579 -25.844  0.00  0.00    -0.286 OA
ATOM      3  C   UNL     1      33.703 -15.047 -23.610  0.00  0.00    +0.074 C 
ATOM      4  C   UNL     1      33.700 -14.564 -22.303  0.00  0.00    +0.151 C 
ATOM      5  C   UNL     1      32.613 -12.564 -22.962  0.00  0.00    +0.148 C 
ATOM      6  C   UNL     1      33.118 -14.220 -24.675  0.00  0.00    +0.202 C 
ATOM      7  C   UNL     1      34.251 -15.330 -21.275  0.00  0.00    +0.074 C 
ATOM      8  C   UNL     1      34.254 -16.299 -23.900  0.00  0.00    +0.009 C 
ATOM      9  C   UNL     1      34.803 -16.579 -21.561  0.00  0.00    +0.142 C 
ATOM     10  C   UNL     1      32.561 -12.917 -24.256  0.00  0.00    +0.080 C 
ATOM     11  C   UNL     1      34.804 -17.063 -22.870  0.00  0.00    +0.037 C 
ENDROOT
BRANCH   5  12
ATOM     12  C   UNL     1      32.082 -11.271 -22.487  0.00  0.00    +0.035 C 
ATOM     13  C   UNL     1      31.333 -11.209 -21.308  0.00  0.00    +0.003 C 
ATOM     14  C   UNL     1      32.324 -10.103 -23.213  0.00  0.00    +0.003 C 
ATOM     15  C   UNL     1      30.832  -9.988 -20.860  0.00  0.00    +0.000 C 
ATOM     16  C   UNL     1      31.822  -8.881 -22.765  0.00  0.00    +0.000 C 
ATOM     17  C   UNL     1      31.076  -8.824 -21.588  0.00  0.00    +0.000 C 
ENDBRANCH   5  12
BRANCH   9  18
ATOM     18  O   UNL     1      35.341 -17.329 -20.559  0.00  0.00    -0.464 OA
BRANCH  18  19
ATOM     19  C   UNL     1      35.960 -18.559 -20.930  0.00  0.00    +0.314 C 
BRANCH  19  21
ATOM     20  O   UNL     1      34.105 -20.054 -20.482  0.00  0.00    -0.246 OA
ATOM     21  C   UNL     1      35.248 -19.691 -20.237  0.00  0.00    +0.362 C 
BRANCH  21  22
ATOM     22  O   UNL     1      36.082 -20.236 -19.304  0.00  0.00    -0.446 OA
BRANCH  22  23
ATOM     23  C   UNL     1      35.567 -21.375 -18.607  0.00  0.00    +0.209 C 
ATOM     24  C   UNL     1      36.239 -21.468 -17.253  0.00  0.00    +0.051 C 
ENDBRANCH  22  23
ENDBRANCH  21  22
ENDBRANCH  19  21
ENDBRANCH  18  19
ENDBRANCH   9  18
TORSDOF 6
ENDMDL
MODEL 2
REMARK VINA RESULT:     -11.7      5.911      9.248
REMARK  Name = 8395
REMARK  6 active torsions:
REMARK  status: ('A' for Active; 'I' for Inactive)
REMARK    1  A    between atoms: C_5  and  C_12
REMARK    2  A    between atoms: C_9  and  O_18
REMARK    3  A    between atoms: O_18  and  C_19
REMARK    4  A    between atoms: C_19  and  C_21
REMARK    5  A    between atoms: C_21  and  O_22
REMARK    6  A    between atoms: O_22  and  C_23
REMARK                            x       y       z     vdW  Elec       q    Type
REMARK                         _______ _______ _______ _____ _____    ______ ____
ROOT
ATOM      1  O   UNL     1      35.831 -20.781 -18.472  0.00  0.00    -0.453 OA
ATOM      2  O   UNL     1      32.277 -22.661 -17.807  0.00  0.00    -0.286 OA
ATOM      3  C   UNL     1      34.498 -22.275 -17.097  0.00  0.00    +0.074 C 
ATOM      4  C   UNL     1      35.685 -21.604 -17.384  0.00  0.00    +0.151 C 
ATOM      5  C   UNL     1      34.745 -20.604 -19.316  0.00  0.00    +0.148 C 
ATOM      6  C   UNL     1      33.347 -22.099 -17.995  0.00  0.00    +0.202 C 
ATOM      7  C   UNL     1      36.792 -21.757 -16.548  0.00  0.00    +0.074 C 
ATOM      8  C   UNL     1      34.408 -23.103 -15.974  0.00  0.00    +0.009 C 
ATOM      9  C   UNL     1      36.706 -22.582 -15.427  0.00  0.00    +0.142 C 
ATOM     10  C   UNL     1      33.553 -21.200 -19.149  0.00  0.00    +0.080 C 
ATOM     11  C   UNL     1      35.516 -23.253 -15.140  0.00  0.00    +0.037 C 
ENDROOT
BRANCH   5  12
ATOM     12  C   UNL     1      35.011 -19.704 -20.456  0.00  0.00    +0.035 C 
ATOM     13  C   UNL     1      34.033 -19.500 -21.433  0.00  0.00    +0.003 C 
ATOM     14  C   UNL     1      36.242 -19.052 -20.563  0.00  0.00    +0.003 C 
ATOM     15  C   UNL     1      34.285 -18.651 -22.509  0.00  0.00    +0.000 C 
ATOM     16  C   UNL     1      36.494 -18.203 -21.640  0.00  0.00    +0.000 C 
ATOM     17  C   UNL     1      35.515 -18.001 -22.613  0.00  0.00    +0.000 C 
ENDBRANCH   5  12
BRANCH   9  18
ATOM     18  O   UNL     1      37.785 -22.732 -14.610  0.00  0.00    -0.464 OA
BRANCH  18  19
ATOM     19  C   UNL     1      37.814 -23.893 -13.781  0.00  0.00    +0.314 C 
BRANCH  19  21
ATOM     20  O   UNL     1      40.142 -24.327 -14.296  0.00  0.00    -0.246 OA
ATOM     21  C   UNL     1      38.997 -24.739 -14.169  0.00  0.00    +0.362 C 
BRANCH  21  22
ATOM     22  O   UNL     1      38.582 -26.027 -14.351  0.00  0.00    -0.446 OA
BRANCH  22  23
ATOM     23  C   UNL     1      37.240 -26.307 -13.938  0.00  0.00    +0.209 C 
ATOM     24  C   UNL     1      36.416 -26.670 -15.155  0.00  0.00    +0.051 C 
ENDBRANCH  22  23
ENDBRANCH  21  22
ENDBRANCH  19  21
ENDBRANCH  18  19
ENDBRANCH   9  18
TORSDOF 6
ENDMDL
MODEL 3
REMARK VINA RESULT:     -11.7      5.886      9.283
REMARK  Name = 8395
REMARK  6 active torsions:
REMARK  status: ('A' for Active; 'I' for Inactive)
REMARK    1  A    between atoms: C_5  and  C_12
REMARK    2  A    between atoms: C_9  and  O_18
REMARK    3  A    between atoms: O_18  and  C_19
REMARK    4  A    between atoms: C_19  and  C_21
REMARK    5  A    between atoms: C_21  and  O_22
REMARK    6  A    between atoms: O_22  and  C_23
REMARK                            x       y       z     vdW  Elec       q    Type
REMARK                         _______ _______ _______ _____ _____    ______ ____
ROOT
ATOM      1  O   UNL     1      35.794 -20.779 -18.511  0.00  0.00    -0.453 OA
ATOM      2  O   UNL     1      32.221 -22.621 -17.844  0.00  0.00    -0.286 OA
ATOM      3  C   UNL     1      34.448 -22.265 -17.140  0.00  0.00    +0.074 C 
ATOM      4  C   UNL     1      35.642 -21.606 -17.427  0.00  0.00    +0.151 C 
ATOM      5  C   UNL     1      34.707 -20.586 -19.351  0.00  0.00    +0.148 C 
ATOM      6  C   UNL     1      33.296 -22.071 -18.033  0.00  0.00    +0.202 C 
ATOM      7  C   UNL     1      36.749 -21.775 -16.595  0.00  0.00    +0.074 C 
ATOM      8  C   UNL     1      34.352 -23.096 -16.020  0.00  0.00    +0.009 C 
ATOM      9  C   UNL     1      36.657 -22.604 -15.478  0.00  0.00    +0.142 C 
ATOM     10  C   UNL     1      33.509 -21.169 -19.183  0.00  0.00    +0.080 C 
ATOM     11  C   UNL     1      35.461 -23.263 -15.190  0.00  0.00    +0.037 C 
ENDROOT
BRANCH   5  12
ATOM     12  C   UNL     1      34.980 -19.684 -20.488  0.00  0.00    +0.035 C 
ATOM     13  C   UNL     1      34.006 -19.473 -21.467  0.00  0.00    +0.003 C 
ATOM     14  C   UNL     1      36.214 -19.037 -20.590  0.00  0.00    +0.003 C 
ATOM     15  C   UNL     1      34.263 -18.621 -22.540  0.00  0.00    +0.000 C 
ATOM     16  C   UNL     1      36.472 -18.185 -21.663  0.00  0.00    +0.000 C 
ATOM     17  C   UNL     1      35.497 -17.977 -22.638  0.00  0.00    +0.000 C 
ENDBRANCH   5  12
BRANCH   9  18
ATOM     18  O   UNL     1      37.737 -22.771 -14.664  0.00  0.00    -0.464 OA
BRANCH  18  19
ATOM     19  C   UNL     1      38.402 -24.032 -14.718  0.00  0.00    +0.314 C 
BRANCH  19  21
ATOM     20  O   UNL     1      38.714 -25.769 -13.057  0.00  0.00    -0.246 OA
ATOM     21  C   UNL     1      38.489 -24.596 -13.325  0.00  0.00    +0.362 C 
BRANCH  21  22
ATOM     22  O   UNL     1      38.279 -23.592 -12.425  0.00  0.00    -0.446 OA
BRANCH  22  23
ATOM     23  C   UNL     1      37.270 -23.847 -11.442  0.00  0.00    +0.209 C 
ATOM     24  C   UNL     1      36.262 -22.717 -11.467  0.00  0.00    +0.051 C 
ENDBRANCH  22  23
ENDBRANCH  21  22
ENDBRANCH  19  21
ENDBRANCH  18  19
ENDBRANCH   9  18
TORSDOF 6
ENDMDL
MODEL 4
REMARK VINA RESULT:     -11.5      4.211     10.210
REMARK  Name = 8395
REMARK  6 active torsions:
REMARK  status: ('A' for Active; 'I' for Inactive)
REMARK    1  A    between atoms: C_5  and  C_12
REMARK    2  A    between atoms: C_9  and  O_18
REMARK    3  A    between atoms: O_18  and  C_19
REMARK    4  A    between atoms: C_19  and  C_21
REMARK    5  A    between atoms: C_21  and  O_22
REMARK    6  A    between atoms: O_22  and  C_23
REMARK                            x       y       z     vdW  Elec       q    Type
REMARK                         _______ _______ _______ _____ _____    ______ ____
ROOT
ATOM      1  O   UNL     1      31.692 -21.804 -17.917  0.00  0.00    -0.453 OA
ATOM      2  O   UNL     1      35.338 -22.823 -16.408  0.00  0.00    -0.286 OA
ATOM      3  C   UNL     1      34.112 -21.701 -18.089  0.00  0.00    +0.074 C 
ATOM      4  C   UNL     1      32.836 -21.389 -18.552  0.00  0.00    +0.151 C 
ATOM      5  C   UNL     1      31.816 -22.557 -16.760  0.00  0.00    +0.148 C 
ATOM      6  C   UNL     1      34.249 -22.508 -16.868  0.00  0.00    +0.202 C 
ATOM      7  C   UNL     1      32.680 -20.626 -19.709  0.00  0.00    +0.074 C 
ATOM      8  C   UNL     1      35.243 -21.252 -18.778  0.00  0.00    +0.009 C 
ATOM      9  C   UNL     1      33.805 -20.177 -20.400  0.00  0.00    +0.142 C 
ATOM     10  C   UNL     1      32.989 -22.926 -16.220  0.00  0.00    +0.080 C 
ATOM     11  C   UNL     1      35.084 -20.488 -19.935  0.00  0.00    +0.037 C 
ENDROOT
BRANCH   5  12
ATOM     12  C   UNL     1      30.526 -22.954 -16.161  0.00  0.00    +0.035 C 
ATOM     13  C   UNL     1      30.464 -24.036 -15.278  0.00  0.00    +0.003 C 
ATOM     14  C   UNL     1      29.360 -22.251 -16.475  0.00  0.00    +0.003 C 
ATOM     15  C   UNL     1      29.246 -24.410 -14.713  0.00  0.00    +0.000 C 
ATOM     16  C   UNL     1      28.142 -22.626 -15.910  0.00  0.00    +0.000 C 
ATOM     17  C   UNL     1      28.085 -23.705 -15.028  0.00  0.00    +0.000 C 
ENDBRANCH   5  12
BRANCH   9  18
ATOM     18  O   UNL     1      33.656 -19.431 -21.530  0.00  0.00    -0.464 OA
BRANCH  18  19
ATOM     19  C   UNL     1      34.829 -18.818 -22.062  0.00  0.00    +0.314 C 
BRANCH  19  21
ATOM     20  O   UNL     1      35.088 -16.982 -20.500  0.00  0.00    -0.246 OA
ATOM     21  C   UNL     1      34.859 -17.374 -21.637  0.00  0.00    +0.362 C 
BRANCH  21  22
ATOM     22  O   UNL     1      34.593 -16.586 -22.719  0.00  0.00    -0.446 OA
BRANCH  22  23
ATOM     23  C   UNL     1      34.351 -15.204 -22.432  0.00  0.00    +0.209 C 
ATOM     24  C   UNL     1      33.587 -14.588 -23.585  0.00  0.00    +0.051 C 
ENDBRANCH  22  23
ENDBRANCH  21  22
ENDBRANCH  19  21
ENDBRANCH  18  19
ENDBRANCH   9  18
TORSDOF 6
ENDMDL
MODEL 5
REMARK VINA RESULT:     -11.1      3.453     11.447
REMARK  Name = 8395
REMARK  6 active torsions:
REMARK  status: ('A' for Active; 'I' for Inactive)
REMARK    1  A    between atoms: C_5  and  C_12
REMARK    2  A    between atoms: C_9  and  O_18
REMARK    3  A    between atoms: O_18  and  C_19
REMARK    4  A    between atoms: C_19  and  C_21
REMARK    5  A    between atoms: C_21  and  O_22
REMARK    6  A    between atoms: O_22  and  C_23
REMARK                            x       y       z     vdW  Elec       q    Type
REMARK                         _______ _______ _______ _____ _____    ______ ____
ROOT
ATOM      1  O   UNL     1      35.601 -22.577 -16.397  0.00  0.00    -0.453 OA
ATOM      2  O   UNL     1      31.571 -23.159 -16.234  0.00  0.00    -0.286 OA
ATOM      3  C   UNL     1      33.413 -22.239 -17.395  0.00  0.00    +0.074 C 
ATOM      4  C   UNL     1      34.796 -22.075 -17.389  0.00  0.00    +0.151 C 
ATOM      5  C   UNL     1      35.009 -23.285 -15.362  0.00  0.00    +0.148 C 
ATOM      6  C   UNL     1      32.780 -22.981 -16.295  0.00  0.00    +0.202 C 
ATOM      7  C   UNL     1      35.421 -21.374 -18.421  0.00  0.00    +0.074 C 
ATOM      8  C   UNL     1      32.643 -21.705 -18.432  0.00  0.00    +0.009 C 
ATOM      9  C   UNL     1      34.656 -20.839 -19.457  0.00  0.00    +0.142 C 
ATOM     10  C   UNL     1      33.689 -23.504 -15.254  0.00  0.00    +0.080 C 
ATOM     11  C   UNL     1      33.270 -21.005 -19.463  0.00  0.00    +0.037 C 
ENDROOT
BRANCH   5  12
ATOM     12  C   UNL     1      35.964 -23.776 -14.347  0.00  0.00    +0.035 C 
ATOM     13  C   UNL     1      36.385 -25.108 -14.365  0.00  0.00    +0.003 C 
ATOM     14  C   UNL     1      36.450 -22.910 -13.364  0.00  0.00    +0.003 C 
ATOM     15  C   UNL     1      37.286 -25.571 -13.408  0.00  0.00    +0.000 C 
ATOM     16  C   UNL     1      37.351 -23.373 -12.406  0.00  0.00    +0.000 C 
ATOM     17  C   UNL     1      37.770 -24.703 -12.428  0.00  0.00    +0.000 C 
ENDBRANCH   5  12
BRANCH   9  18
ATOM     18  O   UNL     1      35.263 -20.154 -20.465  0.00  0.00    -0.464 OA
BRANCH  18  19
ATOM     19  C   UNL     1      34.542 -19.061 -21.033  0.00  0.00    +0.314 C 
BRANCH  19  21
ATOM     20  O   UNL     1      36.598 -17.968 -21.705  0.00  0.00    -0.246 OA
ATOM     21  C   UNL     1      35.481 -17.898 -21.211  0.00  0.00    +0.362 C 
BRANCH  21  22
ATOM     22  O   UNL     1      34.883 -16.767 -20.734  0.00  0.00    -0.446 OA
BRANCH  22  23
ATOM     23  C   UNL     1      34.472 -15.822 -21.727  0.00  0.00    +0.209 C 
ATOM     24  C   UNL     1      33.889 -14.606 -21.038  0.00  0.00    +0.051 C 
ENDBRANCH  22  23
ENDBRANCH  21  22
ENDBRANCH  19  21
ENDBRANCH  18  19
ENDBRANCH   9  18
TORSDOF 6
ENDMDL
MODEL 6
REMARK VINA RESULT:     -11.0      1.723      8.323
REMARK  Name = 8395
REMARK  6 active torsions:
REMARK  status: ('A' for Active; 'I' for Inactive)
REMARK    1  A    between atoms: C_5  and  C_12
REMARK    2  A    between atoms: C_9  and  O_18
REMARK    3  A    between atoms: O_18  and  C_19
REMARK    4  A    between atoms: C_19  and  C_21
REMARK    5  A    between atoms: C_21  and  O_22
REMARK    6  A    between atoms: O_22  and  C_23
REMARK                            x       y       z     vdW  Elec       q    Type
REMARK                         _______ _______ _______ _____ _____    ______ ____
ROOT
ATOM      1  O   UNL     1      34.352 -17.555 -21.134  0.00  0.00    -0.453 OA
ATOM      2  O   UNL     1      33.749 -18.616 -25.021  0.00  0.00    -0.286 OA
ATOM      3  C   UNL     1      33.963 -16.879 -23.434  0.00  0.00    +0.074 C 
ATOM      4  C   UNL     1      34.172 -16.585 -22.088  0.00  0.00    +0.151 C 
ATOM      5  C   UNL     1      34.333 -18.883 -21.531  0.00  0.00    +0.148 C 
ATOM      6  C   UNL     1      33.933 -18.286 -23.858  0.00  0.00    +0.202 C 
ATOM      7  C   UNL     1      34.203 -15.257 -21.660  0.00  0.00    +0.074 C 
ATOM      8  C   UNL     1      33.785 -15.849 -24.362  0.00  0.00    +0.009 C 
ATOM      9  C   UNL     1      34.025 -14.227 -22.583  0.00  0.00    +0.142 C 
ATOM     10  C   UNL     1      34.135 -19.291 -22.795  0.00  0.00    +0.080 C 
ATOM     11  C   UNL     1      33.817 -14.522 -23.931  0.00  0.00    +0.037 C 
ENDROOT
BRANCH   5  12
ATOM     12  C   UNL     1      34.531 -19.843 -20.426  0.00  0.00    +0.035 C 
ATOM     13  C   UNL     1      35.815 -20.091 -19.933  0.00  0.00    +0.003 C 
ATOM     14  C   UNL     1      33.436 -20.507 -19.869  0.00  0.00    +0.003 C 
ATOM     15  C   UNL     1      36.002 -20.997 -18.891  0.00  0.00    +0.000 C 
ATOM     16  C   UNL     1      33.623 -21.413 -18.825  0.00  0.00    +0.000 C 
ATOM     17  C   UNL     1      34.906 -21.658 -18.336  0.00  0.00    +0.000 C 
ENDBRANCH   5  12
BRANCH   9  18
ATOM     18  O   UNL     1      34.055 -12.930 -22.168  0.00  0.00    -0.464 OA
BRANCH  18  19
ATOM     19  C   UNL     1      33.116 -12.036 -22.764  0.00  0.00    +0.314 C 
BRANCH  19  21
ATOM     20  O   UNL     1      31.555 -12.704 -21.034  0.00  0.00    -0.246 OA
ATOM     21  C   UNL     1      31.951 -11.860 -21.827  0.00  0.00    +0.362 C 
BRANCH  21  22
ATOM     22  O   UNL     1      31.419 -10.616 -22.009  0.00  0.00    -0.446 OA
BRANCH  22  23
ATOM     23  C   UNL     1      30.395 -10.241 -21.081  0.00  0.00    +0.209 C 
ATOM     24  C   UNL     1      31.024  -9.473 -19.938  0.00  0.00    +0.051 C 
ENDBRANCH  22  23
ENDBRANCH  21  22
ENDBRANCH  19  21
ENDBRANCH  18  19
ENDBRANCH   9  18
TORSDOF 6
ENDMDL
MODEL 7
REMARK VINA RESULT:     -10.8      4.148     10.710
REMARK  Name = 8395
REMARK  6 active torsions:
REMARK  status: ('A' for Active; 'I' for Inactive)
REMARK    1  A    between atoms: C_5  and  C_12
REMARK    2  A    between atoms: C_9  and  O_18
REMARK    3  A    between atoms: O_18  and  C_19
REMARK    4  A    between atoms: C_19  and  C_21
REMARK    5  A    between atoms: C_21  and  O_22
REMARK    6  A    between atoms: O_22  and  C_23
REMARK                            x       y       z     vdW  Elec       q    Type
REMARK                         _______ _______ _______ _____ _____    ______ ____
ROOT
ATOM      1  O   UNL     1      32.478 -22.370 -17.209  0.00  0.00    -0.453 OA
ATOM      2  O   UNL     1      35.861 -22.745 -14.968  0.00  0.00    -0.286 OA
ATOM      3  C   UNL     1      34.873 -22.027 -16.991  0.00  0.00    +0.074 C 
ATOM      4  C   UNL     1      33.680 -21.930 -17.704  0.00  0.00    +0.151 C 
ATOM      5  C   UNL     1      32.452 -22.926 -15.938  0.00  0.00    +0.148 C 
ATOM      6  C   UNL     1      34.851 -22.624 -15.647  0.00  0.00    +0.202 C 
ATOM      7  C   UNL     1      33.675 -21.369 -18.981  0.00  0.00    +0.074 C 
ATOM      8  C   UNL     1      36.068 -21.562 -17.547  0.00  0.00    +0.009 C 
ATOM      9  C   UNL     1      34.865 -20.905 -19.540  0.00  0.00    +0.142 C 
ATOM     10  C   UNL     1      33.534 -23.078 -15.158  0.00  0.00    +0.080 C 
ATOM     11  C   UNL     1      36.059 -21.001 -18.824  0.00  0.00    +0.037 C 
ENDROOT
BRANCH   5  12
ATOM     12  C   UNL     1      31.112 -23.370 -15.505  0.00  0.00    +0.035 C 
ATOM     13  C   UNL     1      29.970 -22.881 -16.144  0.00  0.00    +0.003 C 
ATOM     14  C   UNL     1      30.980 -24.280 -14.454  0.00  0.00    +0.003 C 
ATOM     15  C   UNL     1      28.705 -23.300 -15.736  0.00  0.00    +0.000 C 
ATOM     16  C   UNL     1      29.714 -24.699 -14.044  0.00  0.00    +0.000 C 
ATOM     17  C   UNL     1      28.576 -24.209 -14.686  0.00  0.00    +0.000 C 
ENDBRANCH   5  12
BRANCH   9  18
ATOM     18  O   UNL     1      34.863 -20.356 -20.787  0.00  0.00    -0.464 OA
BRANCH  18  19
ATOM     19  C   UNL     1      34.293 -19.056 -20.922  0.00  0.00    +0.314 C 
BRANCH  19  21
ATOM     20  O   UNL     1      36.586 -18.282 -21.047  0.00  0.00    -0.246 OA
ATOM     21  C   UNL     1      35.398 -18.034 -20.891  0.00  0.00    +0.362 C 
BRANCH  21  22
ATOM     22  O   UNL     1      34.858 -16.801 -20.663  0.00  0.00    -0.446 OA
BRANCH  22  23
ATOM     23  C   UNL     1      34.452 -16.080 -21.830  0.00  0.00    +0.209 C 
ATOM     24  C   UNL     1      33.948 -14.714 -21.416  0.00  0.00    +0.051 C 
ENDBRANCH  22  23
ENDBRANCH  21  22
ENDBRANCH  19  21
ENDBRANCH  18  19
ENDBRANCH   9  18
TORSDOF 6
ENDMDL
MODEL 8
REMARK VINA RESULT:     -10.6      1.847      8.436
REMARK  Name = 8395
REMARK  6 active torsions:
REMARK  status: ('A' for Active; 'I' for Inactive)
REMARK    1  A    between atoms: C_5  and  C_12
REMARK    2  A    between atoms: C_9  and  O_18
REMARK    3  A    between atoms: O_18  and  C_19
REMARK    4  A    between atoms: C_19  and  C_21
REMARK    5  A    between atoms: C_21  and  O_22
REMARK    6  A    between atoms: O_22  and  C_23
REMARK                            x       y       z     vdW  Elec       q    Type
REMARK                         _______ _______ _______ _____ _____    ______ ____
ROOT
ATOM      1  O   UNL     1      34.125 -16.162 -21.055  0.00  0.00    -0.453 OA
ATOM      2  O   UNL     1      34.325 -15.879 -25.115  0.00  0.00    -0.286 OA
ATOM      3  C   UNL     1      33.840 -14.820 -23.059  0.00  0.00    +0.074 C 
ATOM      4  C   UNL     1      33.793 -14.985 -21.677  0.00  0.00    +0.151 C 
ATOM      5  C   UNL     1      34.534 -17.230 -21.840  0.00  0.00    +0.148 C 
ATOM      6  C   UNL     1      34.265 -15.952 -23.896  0.00  0.00    +0.202 C 
ATOM      7  C   UNL     1      33.393 -13.926 -20.861  0.00  0.00    +0.074 C 
ATOM      8  C   UNL     1      33.489 -13.596 -23.637  0.00  0.00    +0.009 C 
ATOM      9  C   UNL     1      33.041 -12.704 -21.434  0.00  0.00    +0.142 C 
ATOM     10  C   UNL     1      34.615 -17.195 -23.180  0.00  0.00    +0.080 C 
ATOM     11  C   UNL     1      33.090 -12.539 -22.819  0.00  0.00    +0.037 C 
ENDROOT
BRANCH   5  12
ATOM     12  C   UNL     1      34.863 -18.448 -21.073  0.00  0.00    +0.035 C 
ATOM     13  C   UNL     1      33.856 -19.352 -20.725  0.00  0.00    +0.003 C 
ATOM     14  C   UNL     1      36.182 -18.702 -20.690  0.00  0.00    +0.003 C 
ATOM     15  C   UNL     1      34.166 -20.501 -20.000  0.00  0.00    +0.000 C 
ATOM     16  C   UNL     1      36.493 -19.852 -19.965  0.00  0.00    +0.000 C 
ATOM     17  C   UNL     1      35.484 -20.752 -19.620  0.00  0.00    +0.000 C 
ENDBRANCH   5  12
BRANCH   9  18
ATOM     18  O   UNL     1      32.650 -11.669 -20.640  0.00  0.00    -0.464 OA
BRANCH  18  19
ATOM     19  C   UNL     1      31.263 -11.334 -20.647  0.00  0.00    +0.314 C 
BRANCH  19  21
ATOM     20  O   UNL     1      31.286  -9.453 -19.118  0.00  0.00    -0.246 OA
ATOM     21  C   UNL     1      31.109  -9.890 -20.248  0.00  0.00    +0.362 C 
BRANCH  21  22
ATOM     22  O   UNL     1      30.744  -9.162 -21.343  0.00  0.00    -0.446 OA
BRANCH  22  23
ATOM     23  C   UNL     1      31.633  -8.098 -21.700  0.00  0.00    +0.209 C 
ATOM     24  C   UNL     1      32.490  -8.542 -22.867  0.00  0.00    +0.051 C 
ENDBRANCH  22  23
ENDBRANCH  21  22
ENDBRANCH  19  21
ENDBRANCH  18  19
ENDBRANCH   9  18
TORSDOF 6
ENDMDL
MODEL 9
REMARK VINA RESULT:     -10.5      9.413     11.528
REMARK  Name = 8395
REMARK  6 active torsions:
REMARK  status: ('A' for Active; 'I' for Inactive)
REMARK    1  A    between atoms: C_5  and  C_12
REMARK    2  A    between atoms: C_9  and  O_18
REMARK    3  A    between atoms: O_18  and  C_19
REMARK    4  A    between atoms: C_19  and  C_21
REMARK    5  A    between atoms: C_21  and  O_22
REMARK    6  A    between atoms: O_22  and  C_23
REMARK                            x       y       z     vdW  Elec       q    Type
REMARK                         _______ _______ _______ _____ _____    ______ ____
ROOT
ATOM      1  O   UNL     1      33.148 -22.951 -14.949  0.00  0.00    -0.453 OA
ATOM      2  O   UNL     1      34.468 -21.913 -18.661  0.00  0.00    -0.286 OA
ATOM      3  C   UNL     1      34.995 -22.322 -16.394  0.00  0.00    +0.074 C 
ATOM      4  C   UNL     1      34.478 -22.681 -15.152  0.00  0.00    +0.151 C 
ATOM      5  C   UNL     1      32.286 -22.872 -16.032  0.00  0.00    +0.148 C 
ATOM      6  C   UNL     1      34.083 -22.227 -17.544  0.00  0.00    +0.202 C 
ATOM      7  C   UNL     1      35.323 -22.776 -14.045  0.00  0.00    +0.074 C 
ATOM      8  C   UNL     1      36.360 -22.057 -16.542  0.00  0.00    +0.009 C 
ATOM      9  C   UNL     1      36.685 -22.511 -14.188  0.00  0.00    +0.142 C 
ATOM     10  C   UNL     1      32.663 -22.531 -17.275  0.00  0.00    +0.080 C 
ATOM     11  C   UNL     1      37.202 -22.153 -15.434  0.00  0.00    +0.037 C 
ENDROOT
BRANCH   5  12
ATOM     12  C   UNL     1      30.879 -23.177 -15.702  0.00  0.00    +0.035 C 
ATOM     13  C   UNL     1      29.845 -22.444 -16.291  0.00  0.00    +0.003 C 
ATOM     14  C   UNL     1      30.575 -24.200 -14.801  0.00  0.00    +0.003 C 
ATOM     15  C   UNL     1      28.517 -22.732 -15.980  0.00  0.00    +0.000 C 
ATOM     16  C   UNL     1      29.247 -24.488 -14.489  0.00  0.00    +0.000 C 
ATOM     17  C   UNL     1      28.217 -23.754 -15.079  0.00  0.00    +0.000 C 
ENDBRANCH   5  12
BRANCH   9  18
ATOM     18  O   UNL     1      37.512 -22.604 -13.110  0.00  0.00    -0.464 OA
BRANCH  18  19
ATOM     19  C   UNL     1      37.640 -23.886 -12.499  0.00  0.00    +0.314 C 
BRANCH  19  21
ATOM     20  O   UNL     1      39.745 -24.208 -13.655  0.00  0.00    -0.246 OA
ATOM     21  C   UNL     1      38.695 -24.672 -13.231  0.00  0.00    +0.362 C 
BRANCH  21  22
ATOM     22  O   UNL     1      38.288 -25.970 -13.339  0.00  0.00    -0.446 OA
BRANCH  22  23
ATOM     23  C   UNL     1      36.875 -26.166 -13.450  0.00  0.00    +0.209 C 
ATOM     24  C   UNL     1      36.505 -26.270 -14.915  0.00  0.00    +0.051 C 
ENDBRANCH  22  23
ENDBRANCH  21  22
ENDBRANCH  19  21
ENDBRANCH  18  19
ENDBRANCH   9  18
TORSDOF 6
ENDMDL
