MODEL 1
REMARK VINA RESULT:     -12.4      0.000      0.000
REMARK  Name = 11516136
REMARK  2 active torsions:
REMARK  status: ('A' for Active; 'I' for Inactive)
REMARK    1  A    between atoms: C_2  and  N_8
REMARK    2  A    between atoms: C_4  and  C_25
REMARK                            x       y       z     vdW  Elec       q    Type
REMARK                         _______ _______ _______ _____ _____    ______ ____
ROOT
ATOM      1  N   UNL     1      36.257 -17.523 -21.969  0.00  0.00    +0.389 N 
ATOM      2  C   UNL     1      34.934 -19.416 -21.807  0.00  0.00    -0.081 C 
ATOM      3  C   UNL     1      34.007 -18.288 -22.254  0.00  0.00    -0.035 C 
ATOM      4  C   UNL     1      34.926 -17.074 -22.387  0.00  0.00    +0.015 C 
ATOM      5  C   UNL     1      36.058 -18.680 -21.098  0.00  0.00    -0.102 C 
ATOM      6  H   UNL     1      36.735 -16.779 -21.461  0.00  0.00    -0.084 HD
ATOM      7  H   UNL     1      36.831 -17.767 -22.776  0.00  0.00    -0.084 HD
ENDROOT
BRANCH   2   8
ATOM      8  N   UNL     1      34.282 -20.406 -20.965  0.00  0.00    +0.389 N 
ATOM      9  N   UNL     1      33.202 -21.462 -18.541  0.00  0.00    -0.257 N 
ATOM     10  N   UNL     1      33.531 -22.574 -16.484  0.00  0.00    -0.203 NA
ATOM     11  N   UNL     1      31.307 -22.176 -17.325  0.00  0.00    -0.181 NA
ATOM     12  C   UNL     1      35.172 -20.822 -19.875  0.00  0.00    -0.055 C 
ATOM     13  C   UNL     1      33.033 -19.868 -20.411  0.00  0.00    -0.055 C 
ATOM     14  C   UNL     1      34.519 -21.906 -19.015  0.00  0.00    +0.079 C 
ATOM     15  C   UNL     1      32.307 -20.920 -19.568  0.00  0.00    +0.079 C 
ATOM     16  C   UNL     1      32.662 -22.091 -17.414  0.00  0.00    +0.090 C 
ATOM     17  C   UNL     1      32.977 -23.174 -15.409  0.00  0.00    +0.165 C 
ATOM     18  C   UNL     1      30.823 -22.788 -16.224  0.00  0.00    +0.108 C 
ATOM     19  C   UNL     1      31.617 -23.311 -15.225  0.00  0.00    +0.022 C 
ATOM     20  H   UNL     1      34.063 -21.219 -21.542  0.00  0.00    -0.080 HD
ENDBRANCH   2   8
BRANCH   4  25
ATOM     21  F   UNL     1      31.900 -13.471 -23.744  0.00  0.00    -0.202 F 
ATOM     22  F   UNL     1      33.610 -12.584 -24.771  0.00  0.00    -0.202 F 
ATOM     23  O   UNL     1      34.555 -16.099 -20.255  0.00  0.00    -0.277 OA
ATOM     24  N   UNL     1      34.064 -14.811 -22.110  0.00  0.00    -0.276 N 
ATOM     25  C   UNL     1      34.504 -15.960 -21.479  0.00  0.00    +0.206 C 
ATOM     26  C   UNL     1      33.960 -14.594 -23.553  0.00  0.00    +0.160 C 
ATOM     27  C   UNL     1      33.614 -13.640 -21.368  0.00  0.00    +0.099 C 
ATOM     28  C   UNL     1      33.236 -13.269 -23.674  0.00  0.00    +0.284 C 
ATOM     29  C   UNL     1      33.589 -12.525 -22.401  0.00  0.00    +0.090 C 
ENDBRANCH   4  25
TORSDOF 2
ENDMDL
MODEL 2
REMARK VINA RESULT:     -11.1      3.735      8.648
REMARK  Name = 11516136
REMARK  2 active torsions:
REMARK  status: ('A' for Active; 'I' for Inactive)
REMARK    1  A    between atoms: C_2  and  N_8
REMARK    2  A    between atoms: C_4  and  C_25
REMARK                            x       y       z     vdW  Elec       q    Type
REMARK                         _______ _______ _______ _____ _____    ______ ____
ROOT
ATOM      1  N   UNL     1      34.525 -19.245 -23.029  0.00  0.00    +0.389 N 
ATOM      2  C   UNL     1      35.187 -17.079 -22.546  0.00  0.00    -0.081 C 
ATOM      3  C   UNL     1      35.539 -17.915 -21.317  0.00  0.00    -0.035 C 
ATOM      4  C   UNL     1      35.125 -19.336 -21.695  0.00  0.00    +0.015 C 
ATOM      5  C   UNL     1      34.060 -17.869 -23.190  0.00  0.00    -0.102 C 
ATOM      6  H   UNL     1      33.741 -19.892 -23.107  0.00  0.00    -0.084 HD
ATOM      7  H   UNL     1      35.203 -19.489 -23.752  0.00  0.00    -0.084 HD
ENDROOT
BRANCH   2   8
ATOM      8  N   UNL     1      34.816 -15.710 -22.232  0.00  0.00    +0.389 N 
ATOM      9  N   UNL     1      33.023 -13.554 -21.686  0.00  0.00    -0.257 N 
ATOM     10  N   UNL     1      31.593 -11.849 -22.477  0.00  0.00    -0.203 NA
ATOM     11  N   UNL     1      32.193 -11.968 -20.146  0.00  0.00    -0.181 NA
ATOM     12  C   UNL     1      33.990 -15.141 -23.304  0.00  0.00    -0.055 C 
ATOM     13  C   UNL     1      34.087 -15.653 -20.959  0.00  0.00    -0.055 C 
ATOM     14  C   UNL     1      33.641 -13.680 -23.012  0.00  0.00    +0.079 C 
ATOM     15  C   UNL     1      33.739 -14.209 -20.587  0.00  0.00    +0.079 C 
ATOM     16  C   UNL     1      32.245 -12.420 -21.427  0.00  0.00    +0.090 C 
ATOM     17  C   UNL     1      30.851 -10.758 -22.193  0.00  0.00    +0.165 C 
ATOM     18  C   UNL     1      31.432 -10.874 -19.933  0.00  0.00    +0.108 C 
ATOM     19  C   UNL     1      30.734 -10.220 -20.928  0.00  0.00    +0.022 C 
ATOM     20  H   UNL     1      35.671 -15.160 -22.146  0.00  0.00    -0.080 HD
ENDBRANCH   2   8
BRANCH   4  25
ATOM     21  F   UNL     1      36.007 -20.351 -16.987  0.00  0.00    -0.202 F 
ATOM     22  F   UNL     1      36.974 -22.178 -17.686  0.00  0.00    -0.202 F 
ATOM     23  O   UNL     1      32.891 -19.718 -20.989  0.00  0.00    -0.277 OA
ATOM     24  N   UNL     1      34.583 -20.542 -19.648  0.00  0.00    -0.276 N 
ATOM     25  C   UNL     1      34.091 -19.878 -20.756  0.00  0.00    +0.206 C 
ATOM     26  C   UNL     1      35.990 -20.747 -19.307  0.00  0.00    +0.160 C 
ATOM     27  C   UNL     1      33.707 -21.123 -18.637  0.00  0.00    +0.099 C 
ATOM     28  C   UNL     1      35.949 -21.336 -17.912  0.00  0.00    +0.284 C 
ATOM     29  C   UNL     1      34.612 -22.048 -17.840  0.00  0.00    +0.090 C 
ENDBRANCH   4  25
TORSDOF 2
ENDMDL
MODEL 3
REMARK VINA RESULT:     -10.6      1.988      2.786
REMARK  Name = 11516136
REMARK  2 active torsions:
REMARK  status: ('A' for Active; 'I' for Inactive)
REMARK    1  A    between atoms: C_2  and  N_8
REMARK    2  A    between atoms: C_4  and  C_25
REMARK                            x       y       z     vdW  Elec       q    Type
REMARK                         _______ _______ _______ _____ _____    ______ ____
ROOT
ATOM      1  N   UNL     1      36.171 -18.345 -21.934  0.00  0.00    +0.389 N 
ATOM      2  C   UNL     1      35.295 -19.886 -20.444  0.00  0.00    -0.081 C 
ATOM      3  C   UNL     1      34.116 -19.046 -20.929  0.00  0.00    -0.035 C 
ATOM      4  C   UNL     1      34.731 -18.075 -21.935  0.00  0.00    +0.015 C 
ATOM      5  C   UNL     1      36.484 -18.963 -20.646  0.00  0.00    -0.102 C 
ATOM      6  H   UNL     1      36.693 -17.476 -22.043  0.00  0.00    -0.084 HD
ATOM      7  H   UNL     1      36.428 -18.960 -22.706  0.00  0.00    -0.084 HD
ENDROOT
BRANCH   2   8
ATOM      8  N   UNL     1      35.158 -20.346 -19.072  0.00  0.00    +0.389 N 
ATOM      9  N   UNL     1      35.509 -22.136 -16.874  0.00  0.00    -0.257 N 
ATOM     10  N   UNL     1      34.807 -24.047 -15.677  0.00  0.00    -0.203 NA
ATOM     11  N   UNL     1      36.469 -22.562 -14.759  0.00  0.00    -0.181 NA
ATOM     12  C   UNL     1      34.425 -21.617 -19.026  0.00  0.00    -0.055 C 
ATOM     13  C   UNL     1      36.476 -20.507 -18.448  0.00  0.00    -0.055 C 
ATOM     14  C   UNL     1      34.223 -22.082 -17.582  0.00  0.00    +0.079 C 
ATOM     15  C   UNL     1      36.344 -20.936 -16.985  0.00  0.00    +0.079 C 
ATOM     16  C   UNL     1      35.598 -22.940 -15.733  0.00  0.00    +0.090 C 
ATOM     17  C   UNL     1      34.919 -24.800 -14.563  0.00  0.00    +0.165 C 
ATOM     18  C   UNL     1      36.530 -23.361 -13.674  0.00  0.00    +0.108 C 
ATOM     19  C   UNL     1      35.771 -24.502 -13.519  0.00  0.00    +0.022 C 
ATOM     20  H   UNL     1      34.632 -19.642 -18.553  0.00  0.00    -0.080 HD
ENDBRANCH   2   8
BRANCH   4  25
ATOM     21  F   UNL     1      32.138 -14.848 -24.552  0.00  0.00    -0.202 F 
ATOM     22  F   UNL     1      33.881 -14.688 -25.856  0.00  0.00    -0.202 F 
ATOM     23  O   UNL     1      34.638 -16.318 -20.343  0.00  0.00    -0.277 OA
ATOM     24  N   UNL     1      34.204 -15.775 -22.546  0.00  0.00    -0.276 N 
ATOM     25  C   UNL     1      34.525 -16.649 -21.525  0.00  0.00    +0.206 C 
ATOM     26  C   UNL     1      34.035 -16.110 -23.960  0.00  0.00    +0.160 C 
ATOM     27  C   UNL     1      33.967 -14.356 -22.311  0.00  0.00    +0.099 C 
ATOM     28  C   UNL     1      33.491 -14.838 -24.577  0.00  0.00    +0.284 C 
ATOM     29  C   UNL     1      34.025 -13.728 -23.693  0.00  0.00    +0.090 C 
ENDBRANCH   4  25
TORSDOF 2
ENDMDL
MODEL 4
REMARK VINA RESULT:     -10.4      4.993      8.308
REMARK  Name = 11516136
REMARK  2 active torsions:
REMARK  status: ('A' for Active; 'I' for Inactive)
REMARK    1  A    between atoms: C_2  and  N_8
REMARK    2  A    between atoms: C_4  and  C_25
REMARK                            x       y       z     vdW  Elec       q    Type
REMARK                         _______ _______ _______ _____ _____    ______ ____
ROOT
ATOM      1  N   UNL     1      31.219  -9.169 -22.798  0.00  0.00    +0.389 N 
ATOM      2  C   UNL     1      31.810 -11.400 -22.614  0.00  0.00    -0.081 C 
ATOM      3  C   UNL     1      31.153 -11.024 -21.288  0.00  0.00    -0.035 C 
ATOM      4  C   UNL     1      30.744  -9.563 -21.469  0.00  0.00    +0.015 C 
ATOM      5  C   UNL     1      32.321 -10.068 -23.137  0.00  0.00    -0.102 C 
ATOM      6  H   UNL     1      31.546  -8.203 -22.783  0.00  0.00    -0.084 HD
ATOM      7  H   UNL     1      30.470  -9.233 -23.488  0.00  0.00    -0.084 HD
ENDROOT
BRANCH   2   8
ATOM      8  N   UNL     1      32.858 -12.399 -22.482  0.00  0.00    +0.389 N 
ATOM      9  N   UNL     1      33.930 -15.016 -22.081  0.00  0.00    -0.257 N 
ATOM     10  N   UNL     1      34.606 -16.732 -20.605  0.00  0.00    -0.203 NA
ATOM     11  N   UNL     1      35.111 -16.863 -22.959  0.00  0.00    -0.181 NA
ATOM     12  C   UNL     1      32.805 -13.027 -21.156  0.00  0.00    -0.055 C 
ATOM     13  C   UNL     1      32.729 -13.423 -23.525  0.00  0.00    -0.055 C 
ATOM     14  C   UNL     1      33.939 -14.040 -20.983  0.00  0.00    +0.079 C 
ATOM     15  C   UNL     1      33.859 -14.450 -23.431  0.00  0.00    +0.079 C 
ATOM     16  C   UNL     1      34.570 -16.243 -21.875  0.00  0.00    +0.090 C 
ATOM     17  C   UNL     1      35.230 -17.917 -20.443  0.00  0.00    +0.165 C 
ATOM     18  C   UNL     1      35.718 -18.045 -22.724  0.00  0.00    +0.108 C 
ATOM     19  C   UNL     1      35.810 -18.625 -21.476  0.00  0.00    +0.022 C 
ATOM     20  H   UNL     1      33.759 -11.931 -22.590  0.00  0.00    -0.080 HD
ENDBRANCH   2   8
BRANCH   4  25
ATOM     21  F   UNL     1      29.745  -4.793 -20.990  0.00  0.00    -0.202 F 
ATOM     22  F   UNL     1      31.004  -4.476 -22.745  0.00  0.00    -0.202 F 
ATOM     23  O   UNL     1      31.912  -9.157 -19.444  0.00  0.00    -0.277 OA
ATOM     24  N   UNL     1      31.383  -7.324 -20.748  0.00  0.00    -0.276 N 
ATOM     25  C   UNL     1      31.402  -8.676 -20.458  0.00  0.00    +0.206 C 
ATOM     26  C   UNL     1      30.778  -6.693 -21.920  0.00  0.00    +0.160 C 
ATOM     27  C   UNL     1      31.976  -6.330 -19.863  0.00  0.00    +0.099 C 
ATOM     28  C   UNL     1      30.865  -5.209 -21.625  0.00  0.00    +0.284 C 
ATOM     29  C   UNL     1      32.069  -5.074 -20.713  0.00  0.00    +0.090 C 
ENDBRANCH   4  25
TORSDOF 2
ENDMDL
MODEL 5
REMARK VINA RESULT:     -10.1      5.739     10.232
REMARK  Name = 11516136
REMARK  2 active torsions:
REMARK  status: ('A' for Active; 'I' for Inactive)
REMARK    1  A    between atoms: C_2  and  N_8
REMARK    2  A    between atoms: C_4  and  C_25
REMARK                            x       y       z     vdW  Elec       q    Type
REMARK                         _______ _______ _______ _____ _____    ______ ____
ROOT
ATOM      1  N   UNL     1      33.165 -23.197 -13.502  0.00  0.00    +0.389 N 
ATOM      2  C   UNL     1      33.620 -23.491 -15.754  0.00  0.00    -0.081 C 
ATOM      3  C   UNL     1      34.612 -24.376 -15.001  0.00  0.00    -0.035 C 
ATOM      4  C   UNL     1      34.249 -24.183 -13.529  0.00  0.00    +0.015 C 
ATOM      5  C   UNL     1      33.270 -22.419 -14.735  0.00  0.00    -0.102 C 
ATOM      6  H   UNL     1      33.265 -22.586 -12.692  0.00  0.00    -0.084 HD
ATOM      7  H   UNL     1      32.256 -23.656 -13.436  0.00  0.00    -0.084 HD
ENDROOT
BRANCH   2   8
ATOM      8  N   UNL     1      34.149 -22.948 -16.993  0.00  0.00    +0.389 N 
ATOM      9  N   UNL     1      34.644 -20.933 -18.956  0.00  0.00    -0.257 N 
ATOM     10  N   UNL     1      33.918 -19.709 -20.841  0.00  0.00    -0.203 NA
ATOM     11  N   UNL     1      36.200 -19.558 -20.081  0.00  0.00    -0.181 NA
ATOM     12  C   UNL     1      33.060 -22.462 -17.849  0.00  0.00    -0.055 C 
ATOM     13  C   UNL     1      35.091 -21.857 -16.717  0.00  0.00    -0.055 C 
ATOM     14  C   UNL     1      33.600 -21.941 -19.182  0.00  0.00    +0.079 C 
ATOM     15  C   UNL     1      35.699 -21.313 -18.012  0.00  0.00    +0.079 C 
ATOM     16  C   UNL     1      34.931 -20.038 -19.993  0.00  0.00    +0.090 C 
ATOM     17  C   UNL     1      34.229 -18.843 -21.828  0.00  0.00    +0.165 C 
ATOM     18  C   UNL     1      36.440 -18.697 -21.091  0.00  0.00    +0.108 C 
ATOM     19  C   UNL     1      35.485 -18.301 -22.004  0.00  0.00    +0.022 C 
ATOM     20  H   UNL     1      34.645 -23.695 -17.481  0.00  0.00    -0.080 HD
ENDBRANCH   2   8
BRANCH   4  25
ATOM     21  F   UNL     1      38.856 -24.079 -15.186  0.00  0.00    -0.202 F 
ATOM     22  F   UNL     1      38.956 -26.202 -14.687  0.00  0.00    -0.202 F 
ATOM     23  O   UNL     1      35.204 -22.819 -11.838  0.00  0.00    -0.277 OA
ATOM     24  N   UNL     1      36.649 -24.090 -13.117  0.00  0.00    -0.276 N 
ATOM     25  C   UNL     1      35.399 -23.630 -12.745  0.00  0.00    +0.206 C 
ATOM     26  C   UNL     1      36.946 -25.034 -14.194  0.00  0.00    +0.160 C 
ATOM     27  C   UNL     1      37.870 -23.645 -12.456  0.00  0.00    +0.099 C 
ATOM     28  C   UNL     1      38.458 -25.015 -14.293  0.00  0.00    +0.284 C 
ATOM     29  C   UNL     1      38.926 -24.645 -12.899  0.00  0.00    +0.090 C 
ENDBRANCH   4  25
TORSDOF 2
ENDMDL
MODEL 6
REMARK VINA RESULT:      -9.7      5.241     11.472
REMARK  Name = 11516136
REMARK  2 active torsions:
REMARK  status: ('A' for Active; 'I' for Inactive)
REMARK    1  A    between atoms: C_2  and  N_8
REMARK    2  A    between atoms: C_4  and  C_25
REMARK                            x       y       z     vdW  Elec       q    Type
REMARK                         _______ _______ _______ _____ _____    ______ ____
ROOT
ATOM      1  N   UNL     1      32.296 -13.888 -23.360  0.00  0.00    +0.389 N 
ATOM      2  C   UNL     1      32.787 -11.625 -23.396  0.00  0.00    -0.081 C 
ATOM      3  C   UNL     1      34.104 -12.341 -23.104  0.00  0.00    -0.035 C 
ATOM      4  C   UNL     1      33.742 -13.825 -23.131  0.00  0.00    +0.015 C 
ATOM      5  C   UNL     1      31.741 -12.613 -22.908  0.00  0.00    -0.102 C 
ATOM      6  H   UNL     1      31.889 -14.657 -22.829  0.00  0.00    -0.084 HD
ATOM      7  H   UNL     1      32.089 -14.048 -24.347  0.00  0.00    -0.084 HD
ENDROOT
BRANCH   2   8
ATOM      8  N   UNL     1      32.680 -10.323 -22.760  0.00  0.00    +0.389 N 
ATOM      9  N   UNL     1      31.859  -7.597 -22.523  0.00  0.00    -0.257 N 
ATOM     10  N   UNL     1      32.215  -5.316 -23.021  0.00  0.00    -0.203 NA
ATOM     11  N   UNL     1      30.560  -5.977 -21.397  0.00  0.00    -0.181 NA
ATOM     12  C   UNL     1      33.291  -9.287 -23.602  0.00  0.00    -0.055 C 
ATOM     13  C   UNL     1      31.273  -9.990 -22.502  0.00  0.00    -0.055 C 
ATOM     14  C   UNL     1      33.236  -7.920 -22.918  0.00  0.00    +0.079 C 
ATOM     15  C   UNL     1      31.149  -8.645 -21.782  0.00  0.00    +0.079 C 
ATOM     16  C   UNL     1      31.534  -6.253 -22.306  0.00  0.00    +0.090 C 
ATOM     17  C   UNL     1      31.876  -4.031 -22.787  0.00  0.00    +0.165 C 
ATOM     18  C   UNL     1      30.273  -4.672 -21.214  0.00  0.00    +0.108 C 
ATOM     19  C   UNL     1      30.905  -3.646 -21.886  0.00  0.00    +0.022 C 
ATOM     20  H   UNL     1      33.177 -10.361 -21.870  0.00  0.00    -0.080 HD
ENDBRANCH   2   8
BRANCH   4  25
ATOM     21  F   UNL     1      36.294 -17.983 -22.707  0.00  0.00    -0.202 F 
ATOM     22  F   UNL     1      34.479 -19.020 -23.335  0.00  0.00    -0.202 F 
ATOM     23  O   UNL     1      34.012 -13.839 -20.773  0.00  0.00    -0.277 OA
ATOM     24  N   UNL     1      34.325 -15.839 -21.887  0.00  0.00    -0.276 N 
ATOM     25  C   UNL     1      34.035 -14.489 -21.820  0.00  0.00    +0.206 C 
ATOM     26  C   UNL     1      34.388 -16.658 -23.096  0.00  0.00    +0.160 C 
ATOM     27  C   UNL     1      34.637 -16.627 -20.701  0.00  0.00    +0.099 C 
ATOM     28  C   UNL     1      34.944 -17.983 -22.615  0.00  0.00    +0.284 C 
ATOM     29  C   UNL     1      34.515 -18.070 -21.163  0.00  0.00    +0.090 C 
ENDBRANCH   4  25
TORSDOF 2
ENDMDL
MODEL 7
REMARK VINA RESULT:      -9.5      4.356      9.143
REMARK  Name = 11516136
REMARK  2 active torsions:
REMARK  status: ('A' for Active; 'I' for Inactive)
REMARK    1  A    between atoms: C_2  and  N_8
REMARK    2  A    between atoms: C_4  and  C_25
REMARK                            x       y       z     vdW  Elec       q    Type
REMARK                         _______ _______ _______ _____ _____    ______ ____
ROOT
ATOM      1  N   UNL     1      33.752 -21.322 -19.365  0.00  0.00    +0.389 N 
ATOM      2  C   UNL     1      34.478 -20.029 -21.144  0.00  0.00    -0.081 C 
ATOM      3  C   UNL     1      35.731 -20.650 -20.530  0.00  0.00    -0.035 C 
ATOM      4  C   UNL     1      35.203 -21.523 -19.393  0.00  0.00    +0.015 C 
ATOM      5  C   UNL     1      33.492 -20.025 -19.988  0.00  0.00    -0.102 C 
ATOM      6  H   UNL     1      33.415 -21.324 -18.403  0.00  0.00    -0.084 HD
ATOM      7  H   UNL     1      33.270 -22.070 -19.865  0.00  0.00    -0.084 HD
ENDROOT
BRANCH   2   8
ATOM      8  N   UNL     1      34.699 -18.708 -21.708  0.00  0.00    +0.389 N 
ATOM      9  N   UNL     1      33.954 -16.116 -22.648  0.00  0.00    -0.257 N 
ATOM     10  N   UNL     1      33.139 -14.741 -24.387  0.00  0.00    -0.203 NA
ATOM     11  N   UNL     1      34.053 -13.772 -22.377  0.00  0.00    -0.181 NA
ATOM     12  C   UNL     1      33.968 -18.559 -22.972  0.00  0.00    -0.055 C 
ATOM     13  C   UNL     1      34.280 -17.667 -20.763  0.00  0.00    -0.055 C 
ATOM     14  C   UNL     1      34.239 -17.193 -23.605  0.00  0.00    +0.079 C 
ATOM     15  C   UNL     1      34.560 -16.270 -21.322  0.00  0.00    +0.079 C 
ATOM     16  C   UNL     1      33.708 -14.834 -23.153  0.00  0.00    +0.090 C 
ATOM     17  C   UNL     1      32.915 -13.491 -24.842  0.00  0.00    +0.165 C 
ATOM     18  C   UNL     1      33.800 -12.552 -22.895  0.00  0.00    +0.108 C 
ATOM     19  C   UNL     1      33.229 -12.349 -24.134  0.00  0.00    +0.022 C 
ATOM     20  H   UNL     1      35.698 -18.604 -21.890  0.00  0.00    -0.080 HD
ENDBRANCH   2   8
BRANCH   4  25
ATOM     21  F   UNL     1      35.175 -24.363 -15.404  0.00  0.00    -0.202 F 
ATOM     22  F   UNL     1      33.066 -23.840 -15.194  0.00  0.00    -0.202 F 
ATOM     23  O   UNL     1      36.599 -20.199 -18.003  0.00  0.00    -0.277 OA
ATOM     24  N   UNL     1      35.264 -21.777 -16.970  0.00  0.00    -0.276 N 
ATOM     25  C   UNL     1      35.757 -21.097 -18.068  0.00  0.00    +0.206 C 
ATOM     26  C   UNL     1      34.284 -22.862 -16.984  0.00  0.00    +0.160 C 
ATOM     27  C   UNL     1      35.706 -21.485 -15.611  0.00  0.00    +0.099 C 
ATOM     28  C   UNL     1      34.273 -23.366 -15.555  0.00  0.00    +0.284 C 
ATOM     29  C   UNL     1      34.675 -22.163 -14.725  0.00  0.00    +0.090 C 
ENDBRANCH   4  25
TORSDOF 2
ENDMDL
