MODEL 1
REMARK VINA RESULT:     -10.2      0.000      0.000
REMARK  Name = 11488110
REMARK  9 active torsions:
REMARK  status: ('A' for Active; 'I' for Inactive)
REMARK    1  A    between atoms: C_6  and  N_27
REMARK    2  A    between atoms: C_7  and  C_13
REMARK    3  A    between atoms: C_16  and  O_19
REMARK    4  A    between atoms: O_19  and  C_20
REMARK    5  A    between atoms: C_20  and  C_21
REMARK    6  A    between atoms: C_21  and  C_22
REMARK    7  A    between atoms: C_22  and  N_23
REMARK    8  A    between atoms: N_27  and  C_29
REMARK    9  A    between atoms: C_29  and  C_34
REMARK                            x       y       z     vdW  Elec       q    Type
REMARK                         _______ _______ _______ _____ _____    ______ ____
ROOT
ATOM      1 CL   UNL     1      31.989 -22.044 -14.414  0.00  0.00    -0.047 Cl
ATOM      2  N   UNL     1      35.543 -24.157 -12.896  0.00  0.00    -0.107 N 
ATOM      3  N   UNL     1      33.328 -23.279 -12.616  0.00  0.00    -0.324 NA
ATOM      4  N   UNL     1      36.463 -24.831 -12.155  0.00  0.00    -0.139 NA
ATOM      5  N   UNL     1      34.593 -24.450 -10.916  0.00  0.00    -0.145 NA
ATOM      6  C   UNL     1      35.639 -23.722 -14.227  0.00  0.00    +0.136 C 
ATOM      7  C   UNL     1      34.586 -23.065 -14.763  0.00  0.00    +0.076 C 
ATOM      8  C   UNL     1      34.407 -23.936 -12.115  0.00  0.00    +0.175 C 
ATOM      9  C   UNL     1      33.407 -22.873 -13.847  0.00  0.00    +0.204 C 
ATOM     10  C   UNL     1      35.842 -24.975 -10.989  0.00  0.00    +0.230 C 
ENDROOT
BRANCH   7  13
ATOM     11  F   UNL     1      32.617 -23.816 -16.621  0.00  0.00    -0.204 F 
ATOM     12  F   UNL     1      36.556 -21.307 -15.723  0.00  0.00    -0.204 F 
ATOM     13  C   UNL     1      34.587 -22.575 -16.132  0.00  0.00    +0.061 C 
ATOM     14  C   UNL     1      33.585 -22.976 -17.017  0.00  0.00    +0.145 C 
ATOM     15  C   UNL     1      35.587 -21.702 -16.561  0.00  0.00    +0.145 C 
ATOM     16  C   UNL     1      34.586 -21.633 -18.758  0.00  0.00    +0.143 C 
ATOM     17  C   UNL     1      33.585 -22.506 -18.330  0.00  0.00    +0.067 C 
ATOM     18  C   UNL     1      35.586 -21.231 -17.874  0.00  0.00    +0.067 C 
BRANCH  16  19
ATOM     19  O   UNL     1      34.586 -21.176 -20.041  0.00  0.00    -0.475 OA
BRANCH  19  20
ATOM     20  C   UNL     1      33.714 -20.088 -20.341  0.00  0.00    +0.203 C 
BRANCH  20  21
ATOM     21  C   UNL     1      34.296 -19.296 -21.504  0.00  0.00    +0.024 C 
BRANCH  21  22
ATOM     22  C   UNL     1      35.437 -18.391 -21.049  0.00  0.00    -0.078 C 
BRANCH  22  23
ATOM     23  N   UNL     1      34.955 -17.029 -20.852  0.00  0.00    +0.382 N 
ATOM     24  C   UNL     1      34.675 -16.387 -22.128  0.00  0.00    -0.106 C 
ATOM     25  H   UNL     1      35.666 -16.492 -20.356  0.00  0.00    -0.085 HD
ATOM     26  H   UNL     1      34.092 -17.065 -20.309  0.00  0.00    -0.085 HD
ENDBRANCH  22  23
ENDBRANCH  21  22
ENDBRANCH  20  21
ENDBRANCH  19  20
ENDBRANCH  16  19
ENDBRANCH   7  13
BRANCH   6  27
ATOM     27  N   UNL     1      36.810 -24.008 -14.875  0.00  0.00    -0.314 N 
ATOM     28  H   UNL     1      37.020 -23.517 -15.702  0.00  0.00    +0.148 HD
BRANCH  27  29
ATOM     29  C   UNL     1      37.751 -24.989 -14.406  0.00  0.00    +0.166 C 
ATOM     30  C   UNL     1      37.419 -26.341 -15.024  0.00  0.00    +0.030 C 
BRANCH  29  34
ATOM     31  F   UNL     1      39.163 -23.378 -15.436  0.00  0.00    -0.168 F 
ATOM     32  F   UNL     1      39.782 -25.469 -15.518  0.00  0.00    -0.168 F 
ATOM     33  F   UNL     1      39.904 -24.374 -13.639  0.00  0.00    -0.168 F 
ATOM     34  C   UNL     1      39.159 -24.544 -14.754  0.00  0.00    +0.414 C 
ENDBRANCH  29  34
ENDBRANCH  27  29
ENDBRANCH   6  27
TORSDOF 9
ENDMDL
MODEL 2
REMARK VINA RESULT:     -10.1      2.228      4.312
REMARK  Name = 11488110
REMARK  9 active torsions:
REMARK  status: ('A' for Active; 'I' for Inactive)
REMARK    1  A    between atoms: C_6  and  N_27
REMARK    2  A    between atoms: C_7  and  C_13
REMARK    3  A    between atoms: C_16  and  O_19
REMARK    4  A    between atoms: O_19  and  C_20
REMARK    5  A    between atoms: C_20  and  C_21
REMARK    6  A    between atoms: C_21  and  C_22
REMARK    7  A    between atoms: C_22  and  N_23
REMARK    8  A    between atoms: N_27  and  C_29
REMARK    9  A    between atoms: C_29  and  C_34
REMARK                            x       y       z     vdW  Elec       q    Type
REMARK                         _______ _______ _______ _____ _____    ______ ____
ROOT
ATOM      1 CL   UNL     1      38.425 -23.517 -15.490  0.00  0.00    -0.047 Cl
ATOM      2  N   UNL     1      35.161 -23.513 -12.533  0.00  0.00    -0.107 N 
ATOM      3  N   UNL     1      37.421 -23.989 -13.184  0.00  0.00    -0.324 NA
ATOM      4  N   UNL     1      34.380 -23.646 -11.428  0.00  0.00    -0.139 NA
ATOM      5  N   UNL     1      36.472 -24.433 -11.001  0.00  0.00    -0.145 NA
ATOM      6  C   UNL     1      34.821 -22.984 -13.788  0.00  0.00    +0.136 C 
ATOM      7  C   UNL     1      35.773 -22.953 -14.748  0.00  0.00    +0.076 C 
ATOM      8  C   UNL     1      36.437 -24.003 -12.246  0.00  0.00    +0.175 C 
ATOM      9  C   UNL     1      37.116 -23.501 -14.348  0.00  0.00    +0.204 C 
ATOM     10  C   UNL     1      35.213 -24.198 -10.552  0.00  0.00    +0.230 C 
ENDROOT
BRANCH   7  13
ATOM     11  F   UNL     1      37.262 -20.825 -15.818  0.00  0.00    -0.204 F 
ATOM     12  F   UNL     1      33.765 -23.992 -16.416  0.00  0.00    -0.204 F 
ATOM     13  C   UNL     1      35.520 -22.424 -16.079  0.00  0.00    +0.061 C 
ATOM     14  C   UNL     1      36.289 -21.367 -16.567  0.00  0.00    +0.145 C 
ATOM     15  C   UNL     1      34.512 -22.976 -16.869  0.00  0.00    +0.145 C 
ATOM     16  C   UNL     1      35.040 -21.412 -18.634  0.00  0.00    +0.143 C 
ATOM     17  C   UNL     1      36.048 -20.860 -17.844  0.00  0.00    +0.067 C 
ATOM     18  C   UNL     1      34.272 -22.469 -18.147  0.00  0.00    +0.067 C 
BRANCH  16  19
ATOM     19  O   UNL     1      34.804 -20.916 -19.880  0.00  0.00    -0.475 OA
BRANCH  19  20
ATOM     20  C   UNL     1      33.619 -20.142 -20.056  0.00  0.00    +0.203 C 
BRANCH  20  21
ATOM     21  C   UNL     1      33.727 -19.365 -21.361  0.00  0.00    +0.024 C 
BRANCH  21  22
ATOM     22  C   UNL     1      34.526 -18.079 -21.183  0.00  0.00    -0.078 C 
BRANCH  22  23
ATOM     23  N   UNL     1      35.872 -18.380 -20.710  0.00  0.00    +0.382 N 
ATOM     24  C   UNL     1      36.848 -18.207 -21.776  0.00  0.00    -0.106 C 
ATOM     25  H   UNL     1      35.902 -19.345 -20.382  0.00  0.00    -0.085 HD
ATOM     26  H   UNL     1      36.101 -17.738 -19.950  0.00  0.00    -0.085 HD
ENDBRANCH  22  23
ENDBRANCH  21  22
ENDBRANCH  20  21
ENDBRANCH  19  20
ENDBRANCH  16  19
ENDBRANCH   7  13
BRANCH   6  27
ATOM     27  N   UNL     1      33.535 -22.540 -13.929  0.00  0.00    -0.314 N 
ATOM     28  H   UNL     1      33.336 -21.601 -13.711  0.00  0.00    +0.148 HD
BRANCH  27  29
ATOM     29  C   UNL     1      32.457 -23.377 -14.383  0.00  0.00    +0.166 C 
ATOM     30  C   UNL     1      32.087 -24.364 -13.283  0.00  0.00    +0.030 C 
BRANCH  29  34
ATOM     31  F   UNL     1      30.104 -23.165 -14.645  0.00  0.00    -0.168 F 
ATOM     32  F   UNL     1      31.382 -22.112 -16.067  0.00  0.00    -0.168 F 
ATOM     33  F   UNL     1      31.218 -21.394 -14.017  0.00  0.00    -0.168 F 
ATOM     34  C   UNL     1      31.277 -22.509 -14.779  0.00  0.00    +0.414 C 
ENDBRANCH  29  34
ENDBRANCH  27  29
ENDBRANCH   6  27
TORSDOF 9
ENDMDL
MODEL 3
REMARK VINA RESULT:     -10.1      2.184      4.015
REMARK  Name = 11488110
REMARK  9 active torsions:
REMARK  status: ('A' for Active; 'I' for Inactive)
REMARK    1  A    between atoms: C_6  and  N_27
REMARK    2  A    between atoms: C_7  and  C_13
REMARK    3  A    between atoms: C_16  and  O_19
REMARK    4  A    between atoms: O_19  and  C_20
REMARK    5  A    between atoms: C_20  and  C_21
REMARK    6  A    between atoms: C_21  and  C_22
REMARK    7  A    between atoms: C_22  and  N_23
REMARK    8  A    between atoms: N_27  and  C_29
REMARK    9  A    between atoms: C_29  and  C_34
REMARK                            x       y       z     vdW  Elec       q    Type
REMARK                         _______ _______ _______ _____ _____    ______ ____
ROOT
ATOM      1 CL   UNL     1      38.430 -23.507 -15.558  0.00  0.00    -0.047 Cl
ATOM      2  N   UNL     1      35.169 -23.546 -12.598  0.00  0.00    -0.107 N 
ATOM      3  N   UNL     1      37.426 -24.020 -13.261  0.00  0.00    -0.324 NA
ATOM      4  N   UNL     1      34.388 -23.696 -11.495  0.00  0.00    -0.139 NA
ATOM      5  N   UNL     1      36.477 -24.503 -11.087  0.00  0.00    -0.145 NA
ATOM      6  C   UNL     1      34.831 -22.990 -13.842  0.00  0.00    +0.136 C 
ATOM      7  C   UNL     1      35.781 -22.944 -14.802  0.00  0.00    +0.076 C 
ATOM      8  C   UNL     1      36.442 -24.048 -12.322  0.00  0.00    +0.175 C 
ATOM      9  C   UNL     1      37.122 -23.507 -14.415  0.00  0.00    +0.204 C 
ATOM     10  C   UNL     1      35.219 -24.270 -10.632  0.00  0.00    +0.230 C 
ENDROOT
BRANCH   7  13
ATOM     11  F   UNL     1      33.748 -23.922 -16.475  0.00  0.00    -0.204 F 
ATOM     12  F   UNL     1      37.299 -20.822 -15.846  0.00  0.00    -0.204 F 
ATOM     13  C   UNL     1      35.530 -22.388 -16.122  0.00  0.00    +0.061 C 
ATOM     14  C   UNL     1      34.507 -22.907 -16.915  0.00  0.00    +0.145 C 
ATOM     15  C   UNL     1      36.311 -21.333 -16.595  0.00  0.00    +0.145 C 
ATOM     16  C   UNL     1      35.047 -21.319 -18.654  0.00  0.00    +0.143 C 
ATOM     17  C   UNL     1      34.265 -22.374 -18.181  0.00  0.00    +0.067 C 
ATOM     18  C   UNL     1      36.069 -20.799 -17.861  0.00  0.00    +0.067 C 
BRANCH  16  19
ATOM     19  O   UNL     1      34.812 -20.800 -19.890  0.00  0.00    -0.475 OA
BRANCH  19  20
ATOM     20  C   UNL     1      33.549 -20.170 -20.100  0.00  0.00    +0.203 C 
BRANCH  20  21
ATOM     21  C   UNL     1      33.607 -19.369 -21.393  0.00  0.00    +0.024 C 
BRANCH  21  22
ATOM     22  C   UNL     1      35.015 -18.853 -21.670  0.00  0.00    -0.078 C 
BRANCH  22  23
ATOM     23  N   UNL     1      35.332 -17.742 -20.779  0.00  0.00    +0.382 N 
ATOM     24  C   UNL     1      34.650 -16.527 -21.202  0.00  0.00    -0.106 C 
ATOM     25  H   UNL     1      36.339 -17.581 -20.791  0.00  0.00    -0.085 HD
ATOM     26  H   UNL     1      35.019 -17.981 -19.838  0.00  0.00    -0.085 HD
ENDBRANCH  22  23
ENDBRANCH  21  22
ENDBRANCH  20  21
ENDBRANCH  19  20
ENDBRANCH  16  19
ENDBRANCH   7  13
BRANCH   6  27
ATOM     27  N   UNL     1      33.546 -22.536 -13.973  0.00  0.00    -0.314 N 
ATOM     28  H   UNL     1      33.358 -21.595 -13.757  0.00  0.00    +0.148 HD
BRANCH  27  29
ATOM     29  C   UNL     1      32.458 -23.367 -14.412  0.00  0.00    +0.166 C 
ATOM     30  C   UNL     1      32.095 -24.349 -13.305  0.00  0.00    +0.030 C 
BRANCH  29  34
ATOM     31  F   UNL     1      30.103 -23.141 -14.646  0.00  0.00    -0.168 F 
ATOM     32  F   UNL     1      31.370 -22.094 -16.082  0.00  0.00    -0.168 F 
ATOM     33  F   UNL     1      31.233 -21.377 -14.030  0.00  0.00    -0.168 F 
ATOM     34  C   UNL     1      31.278 -22.492 -14.793  0.00  0.00    +0.414 C 
ENDBRANCH  29  34
ENDBRANCH  27  29
ENDBRANCH   6  27
TORSDOF 9
ENDMDL
MODEL 4
REMARK VINA RESULT:      -9.9     12.472     18.843
REMARK  Name = 11488110
REMARK  9 active torsions:
REMARK  status: ('A' for Active; 'I' for Inactive)
REMARK    1  A    between atoms: C_6  and  N_27
REMARK    2  A    between atoms: C_7  and  C_13
REMARK    3  A    between atoms: C_16  and  O_19
REMARK    4  A    between atoms: O_19  and  C_20
REMARK    5  A    between atoms: C_20  and  C_21
REMARK    6  A    between atoms: C_21  and  C_22
REMARK    7  A    between atoms: C_22  and  N_23
REMARK    8  A    between atoms: N_27  and  C_29
REMARK    9  A    between atoms: C_29  and  C_34
REMARK                            x       y       z     vdW  Elec       q    Type
REMARK                         _______ _______ _______ _____ _____    ______ ____
ROOT
ATOM      1 CL   UNL     1      31.592  -6.513 -19.867  0.00  0.00    -0.047 Cl
ATOM      2  N   UNL     1      30.578  -3.865 -23.238  0.00  0.00    -0.107 N 
ATOM      3  N   UNL     1      30.670  -4.356 -20.891  0.00  0.00    -0.324 NA
ATOM      4  N   UNL     1      30.164  -2.849 -24.041  0.00  0.00    -0.139 NA
ATOM      5  N   UNL     1      29.800  -2.314 -21.859  0.00  0.00    -0.145 NA
ATOM      6  C   UNL     1      31.154  -5.092 -23.604  0.00  0.00    +0.136 C 
ATOM      7  C   UNL     1      31.492  -5.957 -22.622  0.00  0.00    +0.076 C 
ATOM      8  C   UNL     1      30.345  -3.513 -21.907  0.00  0.00    +0.175 C 
ATOM      9  C   UNL     1      31.204  -5.493 -21.220  0.00  0.00    +0.204 C 
ATOM     10  C   UNL     1      29.711  -1.958 -23.166  0.00  0.00    +0.230 C 
ENDROOT
BRANCH   7  13
ATOM     11  F   UNL     1      34.259  -6.269 -22.996  0.00  0.00    -0.204 F 
ATOM     12  F   UNL     1      29.967  -8.309 -22.814  0.00  0.00    -0.204 F 
ATOM     13  C   UNL     1      32.095  -7.252 -22.897  0.00  0.00    +0.061 C 
ATOM     14  C   UNL     1      33.475  -7.355 -23.073  0.00  0.00    +0.145 C 
ATOM     15  C   UNL     1      31.294  -8.391 -22.982  0.00  0.00    +0.145 C 
ATOM     16  C   UNL     1      33.253  -9.736 -23.421  0.00  0.00    +0.143 C 
ATOM     17  C   UNL     1      34.054  -8.597 -23.337  0.00  0.00    +0.067 C 
ATOM     18  C   UNL     1      31.873  -9.633 -23.244  0.00  0.00    +0.067 C 
BRANCH  16  19
ATOM     19  O   UNL     1      33.818 -10.947 -23.680  0.00  0.00    -0.475 OA
BRANCH  19  20
ATOM     20  C   UNL     1      32.950 -12.079 -23.691  0.00  0.00    +0.203 C 
BRANCH  20  21
ATOM     21  C   UNL     1      33.584 -13.195 -22.872  0.00  0.00    +0.024 C 
BRANCH  21  22
ATOM     22  C   UNL     1      33.481 -14.540 -23.583  0.00  0.00    -0.078 C 
BRANCH  22  23
ATOM     23  N   UNL     1      34.697 -15.318 -23.374  0.00  0.00    +0.382 N 
ATOM     24  C   UNL     1      34.664 -15.998 -22.087  0.00  0.00    -0.106 C 
ATOM     25  H   UNL     1      35.502 -14.692 -23.401  0.00  0.00    -0.085 HD
ATOM     26  H   UNL     1      34.765 -16.019 -24.112  0.00  0.00    -0.085 HD
ENDBRANCH  22  23
ENDBRANCH  21  22
ENDBRANCH  20  21
ENDBRANCH  19  20
ENDBRANCH  16  19
ENDBRANCH   7  13
BRANCH   6  27
ATOM     27  N   UNL     1      31.326  -5.305 -24.945  0.00  0.00    -0.314 N 
ATOM     28  H   UNL     1      30.719  -5.931 -25.401  0.00  0.00    +0.148 HD
BRANCH  27  29
ATOM     29  C   UNL     1      32.348  -4.657 -25.721  0.00  0.00    +0.166 C 
ATOM     30  C   UNL     1      33.410  -4.094 -24.786  0.00  0.00    +0.030 C 
BRANCH  29  34
ATOM     31  F   UNL     1      33.306  -5.053 -27.860  0.00  0.00    -0.168 F 
ATOM     32  F   UNL     1      32.040  -6.615 -27.011  0.00  0.00    -0.168 F 
ATOM     33  F   UNL     1      34.026  -6.260 -26.189  0.00  0.00    -0.168 F 
ATOM     34  C   UNL     1      32.937  -5.649 -26.706  0.00  0.00    +0.414 C 
ENDBRANCH  29  34
ENDBRANCH  27  29
ENDBRANCH   6  27
TORSDOF 9
ENDMDL
MODEL 5
REMARK VINA RESULT:      -9.8     14.047     17.508
REMARK  Name = 11488110
REMARK  9 active torsions:
REMARK  status: ('A' for Active; 'I' for Inactive)
REMARK    1  A    between atoms: C_6  and  N_27
REMARK    2  A    between atoms: C_7  and  C_13
REMARK    3  A    between atoms: C_16  and  O_19
REMARK    4  A    between atoms: O_19  and  C_20
REMARK    5  A    between atoms: C_20  and  C_21
REMARK    6  A    between atoms: C_21  and  C_22
REMARK    7  A    between atoms: C_22  and  N_23
REMARK    8  A    between atoms: N_27  and  C_29
REMARK    9  A    between atoms: C_29  and  C_34
REMARK                            x       y       z     vdW  Elec       q    Type
REMARK                         _______ _______ _______ _____ _____    ______ ____
ROOT
ATOM      1 CL   UNL     1      30.099  -9.442 -19.406  0.00  0.00    -0.047 Cl
ATOM      2  N   UNL     1      32.506 -10.813 -22.831  0.00  0.00    -0.107 N 
ATOM      3  N   UNL     1      31.254 -11.230 -20.827  0.00  0.00    -0.324 NA
ATOM      4  N   UNL     1      33.199 -11.529 -23.756  0.00  0.00    -0.139 NA
ATOM      5  N   UNL     1      32.344 -12.922 -22.172  0.00  0.00    -0.145 NA
ATOM      6  C   UNL     1      32.294  -9.426 -22.776  0.00  0.00    +0.136 C 
ATOM      7  C   UNL     1      31.563  -8.931 -21.752  0.00  0.00    +0.076 C 
ATOM      8  C   UNL     1      31.993 -11.688 -21.872  0.00  0.00    +0.175 C 
ATOM      9  C   UNL     1      31.052  -9.948 -20.768  0.00  0.00    +0.204 C 
ATOM     10  C   UNL     1      33.067 -12.774 -23.311  0.00  0.00    +0.230 C 
ENDROOT
BRANCH   7  13
ATOM     11  F   UNL     1      29.740  -7.585 -23.412  0.00  0.00    -0.204 F 
ATOM     12  F   UNL     1      32.817  -7.354 -19.793  0.00  0.00    -0.204 F 
ATOM     13  C   UNL     1      31.287  -7.510 -21.606  0.00  0.00    +0.061 C 
ATOM     14  C   UNL     1      30.371  -6.888 -22.455  0.00  0.00    +0.145 C 
ATOM     15  C   UNL     1      31.934  -6.771 -20.617  0.00  0.00    +0.145 C 
ATOM     16  C   UNL     1      30.753  -4.786 -21.325  0.00  0.00    +0.143 C 
ATOM     17  C   UNL     1      30.104  -5.525 -22.315  0.00  0.00    +0.067 C 
ATOM     18  C   UNL     1      31.667  -5.409 -20.476  0.00  0.00    +0.067 C 
BRANCH  16  19
ATOM     19  O   UNL     1      30.494  -3.457 -21.190  0.00  0.00    -0.475 OA
BRANCH  19  20
ATOM     20  C   UNL     1      30.124  -2.745 -22.370  0.00  0.00    +0.203 C 
BRANCH  20  21
ATOM     21  C   UNL     1      31.247  -1.786 -22.740  0.00  0.00    +0.024 C 
BRANCH  21  22
ATOM     22  C   UNL     1      31.573  -1.852 -24.228  0.00  0.00    -0.078 C 
BRANCH  22  23
ATOM     23  N   UNL     1      32.076  -3.174 -24.579  0.00  0.00    +0.382 N 
ATOM     24  C   UNL     1      33.066  -3.088 -25.643  0.00  0.00    -0.106 C 
ATOM     25  H   UNL     1      31.299  -3.756 -24.892  0.00  0.00    -0.085 HD
ATOM     26  H   UNL     1      32.518  -3.584 -23.755  0.00  0.00    -0.085 HD
ENDBRANCH  22  23
ENDBRANCH  21  22
ENDBRANCH  20  21
ENDBRANCH  19  20
ENDBRANCH  16  19
ENDBRANCH   7  13
BRANCH   6  27
ATOM     27  N   UNL     1      32.855  -8.687 -23.782  0.00  0.00    -0.314 N 
ATOM     28  H   UNL     1      32.438  -8.718 -24.674  0.00  0.00    +0.148 HD
BRANCH  27  29
ATOM     29  C   UNL     1      34.022  -7.867 -23.601  0.00  0.00    +0.166 C 
ATOM     30  C   UNL     1      35.220  -8.544 -24.255  0.00  0.00    +0.030 C 
BRANCH  29  34
ATOM     31  F   UNL     1      33.844  -5.523 -23.250  0.00  0.00    -0.168 F 
ATOM     32  F   UNL     1      32.536  -6.426 -24.746  0.00  0.00    -0.168 F 
ATOM     33  F   UNL     1      34.663  -6.202 -25.157  0.00  0.00    -0.168 F 
ATOM     34  C   UNL     1      33.766  -6.492 -24.188  0.00  0.00    +0.414 C 
ENDBRANCH  29  34
ENDBRANCH  27  29
ENDBRANCH   6  27
TORSDOF 9
ENDMDL
MODEL 6
REMARK VINA RESULT:      -9.4     13.826     19.774
REMARK  Name = 11488110
REMARK  9 active torsions:
REMARK  status: ('A' for Active; 'I' for Inactive)
REMARK    1  A    between atoms: C_6  and  N_27
REMARK    2  A    between atoms: C_7  and  C_13
REMARK    3  A    between atoms: C_16  and  O_19
REMARK    4  A    between atoms: O_19  and  C_20
REMARK    5  A    between atoms: C_20  and  C_21
REMARK    6  A    between atoms: C_21  and  C_22
REMARK    7  A    between atoms: C_22  and  N_23
REMARK    8  A    between atoms: N_27  and  C_29
REMARK    9  A    between atoms: C_29  and  C_34
REMARK                            x       y       z     vdW  Elec       q    Type
REMARK                         _______ _______ _______ _____ _____    ______ ____
ROOT
ATOM      1 CL   UNL     1      35.018  -7.479 -25.046  0.00  0.00    -0.047 Cl
ATOM      2  N   UNL     1      33.155  -3.506 -25.431  0.00  0.00    -0.107 N 
ATOM      3  N   UNL     1      34.853  -5.107 -25.992  0.00  0.00    -0.324 NA
ATOM      4  N   UNL     1      32.824  -2.229 -25.759  0.00  0.00    -0.139 NA
ATOM      5  N   UNL     1      34.694  -2.864 -26.890  0.00  0.00    -0.145 NA
ATOM      6  C   UNL     1      32.506  -4.380 -24.544  0.00  0.00    +0.136 C 
ATOM      7  C   UNL     1      33.021  -5.618 -24.374  0.00  0.00    +0.076 C 
ATOM      8  C   UNL     1      34.304  -3.871 -26.136  0.00  0.00    +0.175 C 
ATOM      9  C   UNL     1      34.258  -5.922 -25.174  0.00  0.00    +0.204 C 
ATOM     10  C   UNL     1      33.775  -1.901 -26.628  0.00  0.00    +0.230 C 
ENDROOT
BRANCH   7  13
ATOM     11  F   UNL     1      33.948  -6.009 -21.751  0.00  0.00    -0.204 F 
ATOM     12  F   UNL     1      30.862  -7.239 -25.154  0.00  0.00    -0.204 F 
ATOM     13  C   UNL     1      32.422  -6.595 -23.478  0.00  0.00    +0.061 C 
ATOM     14  C   UNL     1      32.918  -6.751 -22.183  0.00  0.00    +0.145 C 
ATOM     15  C   UNL     1      31.351  -7.376 -23.913  0.00  0.00    +0.145 C 
ATOM     16  C   UNL     1      31.272  -8.468 -21.759  0.00  0.00    +0.143 C 
ATOM     17  C   UNL     1      32.343  -7.688 -21.324  0.00  0.00    +0.067 C 
ATOM     18  C   UNL     1      30.776  -8.312 -23.053  0.00  0.00    +0.067 C 
BRANCH  16  19
ATOM     19  O   UNL     1      30.713  -9.384 -20.921  0.00  0.00    -0.475 OA
BRANCH  19  20
ATOM     20  C   UNL     1      30.427 -10.671 -21.464  0.00  0.00    +0.203 C 
BRANCH  20  21
ATOM     21  C   UNL     1      31.641 -11.569 -21.269  0.00  0.00    +0.024 C 
BRANCH  21  22
ATOM     22  C   UNL     1      32.196 -12.059 -22.603  0.00  0.00    -0.078 C 
BRANCH  22  23
ATOM     23  N   UNL     1      33.614 -12.373 -22.476  0.00  0.00    +0.382 N 
ATOM     24  C   UNL     1      33.857 -13.787 -22.730  0.00  0.00    -0.106 C 
ATOM     25  H   UNL     1      33.924 -12.145 -21.532  0.00  0.00    -0.085 HD
ATOM     26  H   UNL     1      34.132 -11.825 -23.164  0.00  0.00    -0.085 HD
ENDBRANCH  22  23
ENDBRANCH  21  22
ENDBRANCH  20  21
ENDBRANCH  19  20
ENDBRANCH  16  19
ENDBRANCH   7  13
BRANCH   6  27
ATOM     27  N   UNL     1      31.390  -3.890 -23.920  0.00  0.00    -0.314 N 
ATOM     28  H   UNL     1      30.529  -3.942 -24.394  0.00  0.00    +0.148 HD
BRANCH  27  29
ATOM     29  C   UNL     1      31.414  -3.304 -22.608  0.00  0.00    +0.166 C 
ATOM     30  C   UNL     1      31.131  -1.812 -22.716  0.00  0.00    +0.030 C 
BRANCH  29  34
ATOM     31  F   UNL     1      29.485  -3.142 -21.228  0.00  0.00    -0.168 F 
ATOM     32  F   UNL     1      31.004  -4.611 -20.680  0.00  0.00    -0.168 F 
ATOM     33  F   UNL     1      29.732  -4.959 -22.414  0.00  0.00    -0.168 F 
ATOM     34  C   UNL     1      30.397  -4.005 -21.725  0.00  0.00    +0.414 C 
ENDBRANCH  29  34
ENDBRANCH  27  29
ENDBRANCH   6  27
TORSDOF 9
ENDMDL
MODEL 7
REMARK VINA RESULT:      -9.2     12.535     18.177
REMARK  Name = 11488110
REMARK  9 active torsions:
REMARK  status: ('A' for Active; 'I' for Inactive)
REMARK    1  A    between atoms: C_6  and  N_27
REMARK    2  A    between atoms: C_7  and  C_13
REMARK    3  A    between atoms: C_16  and  O_19
REMARK    4  A    between atoms: O_19  and  C_20
REMARK    5  A    between atoms: C_20  and  C_21
REMARK    6  A    between atoms: C_21  and  C_22
REMARK    7  A    between atoms: C_22  and  N_23
REMARK    8  A    between atoms: N_27  and  C_29
REMARK    9  A    between atoms: C_29  and  C_34
REMARK                            x       y       z     vdW  Elec       q    Type
REMARK                         _______ _______ _______ _____ _____    ______ ____
ROOT
ATOM      1 CL   UNL     1      32.392  -5.967 -26.319  0.00  0.00    -0.047 Cl
ATOM      2  N   UNL     1      30.630  -3.992 -22.799  0.00  0.00    -0.107 N 
ATOM      3  N   UNL     1      31.307  -3.996 -25.101  0.00  0.00    -0.324 NA
ATOM      4  N   UNL     1      30.052  -3.133 -21.918  0.00  0.00    -0.139 NA
ATOM      5  N   UNL     1      30.277  -2.132 -23.950  0.00  0.00    -0.145 NA
ATOM      6  C   UNL     1      31.055  -5.312 -22.584  0.00  0.00    +0.136 C 
ATOM      7  C   UNL     1      31.607  -5.983 -23.619  0.00  0.00    +0.076 C 
ATOM      8  C   UNL     1      30.756  -3.355 -24.035  0.00  0.00    +0.175 C 
ATOM      9  C   UNL     1      31.703  -5.218 -24.912  0.00  0.00    +0.204 C 
ATOM     10  C   UNL     1      29.867  -2.045 -22.659  0.00  0.00    +0.230 C 
ENDROOT
BRANCH   7  13
ATOM     11  F   UNL     1      29.841  -8.160 -23.424  0.00  0.00    -0.204 F 
ATOM     12  F   UNL     1      34.341  -6.628 -23.565  0.00  0.00    -0.204 F 
ATOM     13  C   UNL     1      32.078  -7.354 -23.498  0.00  0.00    +0.061 C 
ATOM     14  C   UNL     1      31.161  -8.401 -23.406  0.00  0.00    +0.145 C 
ATOM     15  C   UNL     1      33.447  -7.623 -23.477  0.00  0.00    +0.145 C 
ATOM     16  C   UNL     1      32.981  -9.984 -23.269  0.00  0.00    +0.143 C 
ATOM     17  C   UNL     1      31.612  -9.717 -23.291  0.00  0.00    +0.067 C 
ATOM     18  C   UNL     1      33.898  -8.938 -23.363  0.00  0.00    +0.067 C 
BRANCH  16  19
ATOM     19  O   UNL     1      33.421 -11.268 -23.155  0.00  0.00    -0.475 OA
BRANCH  19  20
ATOM     20  C   UNL     1      32.436 -12.271 -22.915  0.00  0.00    +0.203 C 
BRANCH  20  21
ATOM     21  C   UNL     1      32.647 -12.845 -21.521  0.00  0.00    +0.024 C 
BRANCH  21  22
ATOM     22  C   UNL     1      33.716 -13.933 -21.519  0.00  0.00    -0.078 C 
BRANCH  22  23
ATOM     23  N   UNL     1      34.143 -14.226 -22.882  0.00  0.00    +0.382 N 
ATOM     24  C   UNL     1      34.385 -15.652 -23.056  0.00  0.00    -0.106 C 
ATOM     25  H   UNL     1      35.003 -13.715 -23.080  0.00  0.00    -0.085 HD
ATOM     26  H   UNL     1      33.403 -13.941 -23.524  0.00  0.00    -0.085 HD
ENDBRANCH  22  23
ENDBRANCH  21  22
ENDBRANCH  20  21
ENDBRANCH  19  20
ENDBRANCH  16  19
ENDBRANCH   7  13
BRANCH   6  27
ATOM     27  N   UNL     1      30.869  -5.810 -21.323  0.00  0.00    -0.314 N 
ATOM     28  H   UNL     1      29.953  -5.850 -20.965  0.00  0.00    +0.148 HD
BRANCH  27  29
ATOM     29  C   UNL     1      31.946  -6.280 -20.494  0.00  0.00    +0.166 C 
ATOM     30  C   UNL     1      32.346  -5.181 -19.517  0.00  0.00    +0.030 C 
BRANCH  29  34
ATOM     31  F   UNL     1      30.732  -8.322 -20.549  0.00  0.00    -0.168 F 
ATOM     32  F   UNL     1      30.812  -7.242 -18.655  0.00  0.00    -0.168 F 
ATOM     33  F   UNL     1      32.583  -8.275 -19.391  0.00  0.00    -0.168 F 
ATOM     34  C   UNL     1      31.513  -7.542 -19.772  0.00  0.00    +0.414 C 
ENDBRANCH  29  34
ENDBRANCH  27  29
ENDBRANCH   6  27
TORSDOF 9
ENDMDL
MODEL 8
REMARK VINA RESULT:      -9.0      3.540      7.591
REMARK  Name = 11488110
REMARK  9 active torsions:
REMARK  status: ('A' for Active; 'I' for Inactive)
REMARK    1  A    between atoms: C_6  and  N_27
REMARK    2  A    between atoms: C_7  and  C_13
REMARK    3  A    between atoms: C_16  and  O_19
REMARK    4  A    between atoms: O_19  and  C_20
REMARK    5  A    between atoms: C_20  and  C_21
REMARK    6  A    between atoms: C_21  and  C_22
REMARK    7  A    between atoms: C_22  and  N_23
REMARK    8  A    between atoms: N_27  and  C_29
REMARK    9  A    between atoms: C_29  and  C_34
REMARK                            x       y       z     vdW  Elec       q    Type
REMARK                         _______ _______ _______ _____ _____    ______ ____
ROOT
ATOM      1 CL   UNL     1      37.290 -21.594 -16.818  0.00  0.00    -0.047 Cl
ATOM      2  N   UNL     1      33.131 -21.760 -18.257  0.00  0.00    -0.107 N 
ATOM      3  N   UNL     1      35.408 -21.031 -18.458  0.00  0.00    -0.324 NA
ATOM      4  N   UNL     1      31.964 -21.627 -18.942  0.00  0.00    -0.139 NA
ATOM      5  N   UNL     1      33.628 -20.501 -20.011  0.00  0.00    -0.145 NA
ATOM      6  C   UNL     1      33.372 -22.464 -17.066  0.00  0.00    +0.136 C 
ATOM      7  C   UNL     1      34.626 -22.458 -16.563  0.00  0.00    +0.076 C 
ATOM      8  C   UNL     1      34.134 -21.062 -18.932  0.00  0.00    +0.175 C 
ATOM      9  C   UNL     1      35.641 -21.680 -17.357  0.00  0.00    +0.204 C 
ATOM     10  C   UNL     1      32.322 -20.869 -19.973  0.00  0.00    +0.230 C 
ENDROOT
BRANCH   7  13
ATOM     11  F   UNL     1      35.364 -21.090 -14.223  0.00  0.00    -0.204 F 
ATOM     12  F   UNL     1      34.614 -25.262 -16.379  0.00  0.00    -0.204 F 
ATOM     13  C   UNL     1      34.978 -23.156 -15.336  0.00  0.00    +0.061 C 
ATOM     14  C   UNL     1      35.336 -22.431 -14.199  0.00  0.00    +0.145 C 
ATOM     15  C   UNL     1      34.956 -24.550 -15.295  0.00  0.00    +0.145 C 
ATOM     16  C   UNL     1      35.650 -24.494 -12.982  0.00  0.00    +0.143 C 
ATOM     17  C   UNL     1      35.673 -23.100 -13.022  0.00  0.00    +0.067 C 
ATOM     18  C   UNL     1      35.292 -25.219 -14.118  0.00  0.00    +0.067 C 
BRANCH  16  19
ATOM     19  O   UNL     1      35.981 -25.146 -11.834  0.00  0.00    -0.475 OA
BRANCH  19  20
ATOM     20  C   UNL     1      37.223 -25.847 -11.821  0.00  0.00    +0.203 C 
BRANCH  20  21
ATOM     21  C   UNL     1      38.290 -24.970 -12.461  0.00  0.00    +0.024 C 
BRANCH  21  22
ATOM     22  C   UNL     1      39.127 -25.751 -13.468  0.00  0.00    -0.078 C 
BRANCH  22  23
ATOM     23  N   UNL     1      38.828 -25.310 -14.825  0.00  0.00    +0.382 N 
ATOM     24  C   UNL     1      38.806 -23.856 -14.907  0.00  0.00    -0.106 C 
ATOM     25  H   UNL     1      37.915 -25.674 -15.101  0.00  0.00    -0.085 HD
ATOM     26  H   UNL     1      39.555 -25.660 -15.450  0.00  0.00    -0.085 HD
ENDBRANCH  22  23
ENDBRANCH  21  22
ENDBRANCH  20  21
ENDBRANCH  19  20
ENDBRANCH  16  19
ENDBRANCH   7  13
BRANCH   6  27
ATOM     27  N   UNL     1      32.297 -23.104 -16.512  0.00  0.00    -0.314 N 
ATOM     28  H   UNL     1      32.141 -24.047 -16.748  0.00  0.00    +0.148 HD
BRANCH  27  29
ATOM     29  C   UNL     1      31.383 -22.467 -15.602  0.00  0.00    +0.166 C 
ATOM     30  C   UNL     1      29.983 -22.482 -16.201  0.00  0.00    +0.030 C 
BRANCH  29  34
ATOM     31  F   UNL     1      32.280 -22.581 -13.404  0.00  0.00    -0.168 F 
ATOM     32  F   UNL     1      31.829 -24.463 -14.414  0.00  0.00    -0.168 F 
ATOM     33  F   UNL     1      30.206 -23.206 -13.685  0.00  0.00    -0.168 F 
ATOM     34  C   UNL     1      31.428 -23.180 -14.263  0.00  0.00    +0.414 C 
ENDBRANCH  29  34
ENDBRANCH  27  29
ENDBRANCH   6  27
TORSDOF 9
ENDMDL
MODEL 9
REMARK VINA RESULT:      -8.8     13.497     18.956
REMARK  Name = 11488110
REMARK  9 active torsions:
REMARK  status: ('A' for Active; 'I' for Inactive)
REMARK    1  A    between atoms: C_6  and  N_27
REMARK    2  A    between atoms: C_7  and  C_13
REMARK    3  A    between atoms: C_16  and  O_19
REMARK    4  A    between atoms: O_19  and  C_20
REMARK    5  A    between atoms: C_20  and  C_21
REMARK    6  A    between atoms: C_21  and  C_22
REMARK    7  A    between atoms: C_22  and  N_23
REMARK    8  A    between atoms: N_27  and  C_29
REMARK    9  A    between atoms: C_29  and  C_34
REMARK                            x       y       z     vdW  Elec       q    Type
REMARK                         _______ _______ _______ _____ _____    ______ ____
ROOT
ATOM      1 CL   UNL     1      31.549  -6.237 -19.904  0.00  0.00    -0.047 Cl
ATOM      2  N   UNL     1      30.515  -3.694 -23.349  0.00  0.00    -0.107 N 
ATOM      3  N   UNL     1      30.622  -4.112 -20.988  0.00  0.00    -0.324 NA
ATOM      4  N   UNL     1      30.096  -2.704 -24.180  0.00  0.00    -0.139 NA
ATOM      5  N   UNL     1      29.747  -2.101 -22.014  0.00  0.00    -0.145 NA
ATOM      6  C   UNL     1      31.089  -4.932 -23.680  0.00  0.00    +0.136 C 
ATOM      7  C   UNL     1      31.433  -5.767 -22.674  0.00  0.00    +0.076 C 
ATOM      8  C   UNL     1      30.290  -3.301 -22.028  0.00  0.00    +0.175 C 
ATOM      9  C   UNL     1      31.153  -5.260 -21.285  0.00  0.00    +0.204 C 
ATOM     10  C   UNL     1      29.649  -1.785 -23.330  0.00  0.00    +0.230 C 
ENDROOT
BRANCH   7  13
ATOM     11  F   UNL     1      29.889  -8.101 -22.929  0.00  0.00    -0.204 F 
ATOM     12  F   UNL     1      34.211  -6.116 -22.908  0.00  0.00    -0.204 F 
ATOM     13  C   UNL     1      32.033  -7.070 -22.912  0.00  0.00    +0.061 C 
ATOM     14  C   UNL     1      31.223  -8.200 -23.034  0.00  0.00    +0.145 C 
ATOM     15  C   UNL     1      33.418  -7.191 -23.022  0.00  0.00    +0.145 C 
ATOM     16  C   UNL     1      33.184  -9.570 -23.373  0.00  0.00    +0.143 C 
ATOM     17  C   UNL     1      31.798  -9.450 -23.263  0.00  0.00    +0.067 C 
ATOM     18  C   UNL     1      33.994  -8.441 -23.252  0.00  0.00    +0.067 C 
BRANCH  16  19
ATOM     19  O   UNL     1      33.745 -10.790 -23.595  0.00  0.00    -0.475 OA
BRANCH  19  20
ATOM     20  C   UNL     1      32.877 -11.921 -23.548  0.00  0.00    +0.203 C 
BRANCH  20  21
ATOM     21  C   UNL     1      33.303 -12.822 -22.398  0.00  0.00    +0.024 C 
BRANCH  21  22
ATOM     22  C   UNL     1      33.847 -14.155 -22.902  0.00  0.00    -0.078 C 
BRANCH  22  23
ATOM     23  N   UNL     1      33.090 -14.604 -24.063  0.00  0.00    +0.382 N 
ATOM     24  C   UNL     1      33.761 -15.716 -24.723  0.00  0.00    -0.106 C 
ATOM     25  H   UNL     1      32.998 -13.831 -24.722  0.00  0.00    -0.085 HD
ATOM     26  H   UNL     1      32.170 -14.918 -23.752  0.00  0.00    -0.085 HD
ENDBRANCH  22  23
ENDBRANCH  21  22
ENDBRANCH  20  21
ENDBRANCH  19  20
ENDBRANCH  16  19
ENDBRANCH   7  13
BRANCH   6  27
ATOM     27  N   UNL     1      31.252  -5.187 -25.014  0.00  0.00    -0.314 N 
ATOM     28  H   UNL     1      30.621  -5.801 -25.455  0.00  0.00    +0.148 HD
BRANCH  27  29
ATOM     29  C   UNL     1      32.298  -4.600 -25.806  0.00  0.00    +0.166 C 
ATOM     30  C   UNL     1      33.350  -3.996 -24.885  0.00  0.00    +0.030 C 
BRANCH  29  34
ATOM     31  F   UNL     1      33.974  -6.247 -26.167  0.00  0.00    -0.168 F 
ATOM     32  F   UNL     1      33.276  -5.115 -27.897  0.00  0.00    -0.168 F 
ATOM     33  F   UNL     1      31.989  -6.623 -26.996  0.00  0.00    -0.168 F 
ATOM     34  C   UNL     1      32.892  -5.656 -26.719  0.00  0.00    +0.414 C 
ENDBRANCH  29  34
ENDBRANCH  27  29
ENDBRANCH   6  27
TORSDOF 9
ENDMDL
