MODEL 1
REMARK VINA RESULT:     -11.5      0.000      0.000
REMARK  Name = 25134257
REMARK  3 active torsions:
REMARK  status: ('A' for Active; 'I' for Inactive)
REMARK    1  A    between atoms: C_1  and  N_9
REMARK    2  A    between atoms: C_3  and  C_19
REMARK    3  A    between atoms: C_4  and  O_25
REMARK                            x       y       z     vdW  Elec       q    Type
REMARK                         _______ _______ _______ _____ _____    ______ ____
ROOT
ATOM      1  C   UNL     1      35.025 -18.279 -21.332  0.00  0.00    +0.095 C 
ATOM      2  C   UNL     1      34.138 -19.036 -20.565  0.00  0.00    +0.018 C 
ATOM      3  C   UNL     1      34.604 -20.134 -19.842  0.00  0.00    +0.001 C 
ATOM      4  C   UNL     1      36.376 -18.622 -21.377  0.00  0.00    +0.148 C 
ATOM      5  C   UNL     1      35.956 -20.476 -19.887  0.00  0.00    +0.003 C 
ATOM      6  C   UNL     1      36.842 -19.721 -20.655  0.00  0.00    +0.038 C 
ENDROOT
BRANCH   1   9
ATOM      7  O   UNL     1      34.420 -15.454 -20.398  0.00  0.00    -0.269 OA
ATOM      8  O   UNL     1      34.293 -18.048 -24.270  0.00  0.00    -0.269 OA
ATOM      9  N   UNL     1      34.532 -17.153 -22.070  0.00  0.00    -0.198 N 
ATOM     10  C   UNL     1      33.787 -15.065 -22.614  0.00  0.00    +0.055 C 
ATOM     11  C   UNL     1      33.780 -15.824 -23.767  0.00  0.00    +0.058 C 
ATOM     12  C   UNL     1      34.274 -15.902 -21.521  0.00  0.00    +0.259 C 
ATOM     13  C   UNL     1      34.248 -17.165 -23.431  0.00  0.00    +0.259 C 
ATOM     14  C   UNL     1      33.391 -13.742 -22.608  0.00  0.00    -0.017 C 
ATOM     15  C   UNL     1      33.370 -15.306 -24.979  0.00  0.00    +0.005 C 
ATOM     16  C   UNL     1      32.972 -13.194 -23.824  0.00  0.00    -0.004 C 
ATOM     17  C   UNL     1      32.962 -13.969 -24.999  0.00  0.00    -0.000 C 
ATOM     18  C   UNL     1      33.397 -12.908 -21.376  0.00  0.00    +0.031 C 
ENDBRANCH   1   9
BRANCH   3  19
ATOM     19  C   UNL     1      33.686 -20.918 -19.046  0.00  0.00    +0.000 C 
ATOM     20  C   UNL     1      34.173 -21.903 -18.186  0.00  0.00    +0.000 C 
ATOM     21  C   UNL     1      32.313 -20.690 -19.138  0.00  0.00    +0.000 C 
ATOM     22  C   UNL     1      33.287 -22.658 -17.417  0.00  0.00    +0.000 C 
ATOM     23  C   UNL     1      31.427 -21.445 -18.369  0.00  0.00    +0.000 C 
ATOM     24  C   UNL     1      31.915 -22.430 -17.508  0.00  0.00    +0.000 C 
ENDBRANCH   3  19
BRANCH   4  25
ATOM     25  O   UNL     1      37.259 -17.895 -22.118  0.00  0.00    -0.504 OA
ATOM     26  H   UNL     1      38.155 -18.165 -22.176  0.00  0.00    +0.292 HD
ENDBRANCH   4  25
TORSDOF 3
ENDMDL
MODEL 2
REMARK VINA RESULT:     -11.1      2.936      5.551
REMARK  Name = 25134257
REMARK  3 active torsions:
REMARK  status: ('A' for Active; 'I' for Inactive)
REMARK    1  A    between atoms: C_1  and  N_9
REMARK    2  A    between atoms: C_3  and  C_19
REMARK    3  A    between atoms: C_4  and  O_25
REMARK                            x       y       z     vdW  Elec       q    Type
REMARK                         _______ _______ _______ _____ _____    ______ ____
ROOT
ATOM      1  C   UNL     1      33.185 -14.281 -23.171  0.00  0.00    +0.095 C 
ATOM      2  C   UNL     1      33.776 -15.249 -22.359  0.00  0.00    +0.018 C 
ATOM      3  C   UNL     1      34.199 -16.459 -22.911  0.00  0.00    +0.001 C 
ATOM      4  C   UNL     1      33.016 -14.522 -24.533  0.00  0.00    +0.148 C 
ATOM      5  C   UNL     1      34.030 -16.699 -24.275  0.00  0.00    +0.003 C 
ATOM      6  C   UNL     1      33.438 -15.732 -25.086  0.00  0.00    +0.038 C 
ENDROOT
BRANCH   1   9
ATOM      7  O   UNL     1      33.540 -11.435 -24.168  0.00  0.00    -0.269 OA
ATOM      8  O   UNL     1      31.660 -13.767 -20.595  0.00  0.00    -0.269 OA
ATOM      9  N   UNL     1      32.755 -13.043 -22.589  0.00  0.00    -0.198 N 
ATOM     10  C   UNL     1      32.393 -10.818 -22.227  0.00  0.00    +0.055 C 
ATOM     11  C   UNL     1      31.809 -11.511 -21.185  0.00  0.00    +0.058 C 
ATOM     12  C   UNL     1      32.996 -11.788 -23.136  0.00  0.00    +0.259 C 
ATOM     13  C   UNL     1      32.039 -12.936 -21.402  0.00  0.00    +0.259 C 
ATOM     14  C   UNL     1      32.348  -9.440 -22.304  0.00  0.00    -0.017 C 
ATOM     15  C   UNL     1      31.151 -10.865 -20.158  0.00  0.00    +0.005 C 
ATOM     16  C   UNL     1      31.687  -8.763 -21.276  0.00  0.00    -0.004 C 
ATOM     17  C   UNL     1      31.093  -9.469 -20.212  0.00  0.00    -0.000 C 
ATOM     18  C   UNL     1      32.969  -8.678 -23.421  0.00  0.00    +0.031 C 
ENDBRANCH   1   9
BRANCH   3  19
ATOM     19  C   UNL     1      34.812 -17.462 -22.069  0.00  0.00    +0.000 C 
ATOM     20  C   UNL     1      34.023 -18.438 -21.459  0.00  0.00    +0.000 C 
ATOM     21  C   UNL     1      36.192 -17.456 -21.869  0.00  0.00    +0.000 C 
ATOM     22  C   UNL     1      34.615 -19.407 -20.649  0.00  0.00    +0.000 C 
ATOM     23  C   UNL     1      36.784 -18.425 -21.059  0.00  0.00    +0.000 C 
ATOM     24  C   UNL     1      35.995 -19.401 -20.448  0.00  0.00    +0.000 C 
ENDBRANCH   3  19
BRANCH   4  25
ATOM     25  O   UNL     1      32.443 -13.589 -25.345  0.00  0.00    -0.504 OA
ATOM     26  H   UNL     1      31.607 -13.227 -25.125  0.00  0.00    +0.292 HD
ENDBRANCH   4  25
TORSDOF 3
ENDMDL
MODEL 3
REMARK VINA RESULT:     -11.0      4.312     10.052
REMARK  Name = 25134257
REMARK  3 active torsions:
REMARK  status: ('A' for Active; 'I' for Inactive)
REMARK    1  A    between atoms: C_1  and  N_9
REMARK    2  A    between atoms: C_3  and  C_19
REMARK    3  A    between atoms: C_4  and  O_25
REMARK                            x       y       z     vdW  Elec       q    Type
REMARK                         _______ _______ _______ _____ _____    ______ ____
ROOT
ATOM      1  C   UNL     1      32.155 -11.164 -22.354  0.00  0.00    +0.095 C 
ATOM      2  C   UNL     1      32.596 -10.021 -23.022  0.00  0.00    +0.018 C 
ATOM      3  C   UNL     1      32.108  -8.767 -22.654  0.00  0.00    +0.001 C 
ATOM      4  C   UNL     1      31.226 -11.053 -21.321  0.00  0.00    +0.148 C 
ATOM      5  C   UNL     1      31.178  -8.657 -21.620  0.00  0.00    +0.003 C 
ATOM      6  C   UNL     1      30.736  -9.799 -20.953  0.00  0.00    +0.038 C 
ENDROOT
BRANCH   1   9
ATOM      7  O   UNL     1      33.330 -13.389 -20.654  0.00  0.00    -0.269 OA
ATOM      8  O   UNL     1      32.364 -12.420 -25.111  0.00  0.00    -0.269 OA
ATOM      9  N   UNL     1      32.665 -12.446 -22.743  0.00  0.00    -0.198 N 
ATOM     10  C   UNL     1      33.597 -14.530 -22.676  0.00  0.00    +0.055 C 
ATOM     11  C   UNL     1      33.282 -14.256 -23.993  0.00  0.00    +0.058 C 
ATOM     12  C   UNL     1      33.201 -13.382 -21.866  0.00  0.00    +0.259 C 
ATOM     13  C   UNL     1      32.691 -12.922 -24.049  0.00  0.00    +0.259 C 
ATOM     14  C   UNL     1      34.179 -15.724 -22.298  0.00  0.00    -0.017 C 
ATOM     15  C   UNL     1      33.535 -15.157 -25.007  0.00  0.00    +0.005 C 
ATOM     16  C   UNL     1      34.444 -16.654 -23.307  0.00  0.00    -0.004 C 
ATOM     17  C   UNL     1      34.125 -16.374 -24.650  0.00  0.00    -0.000 C 
ATOM     18  C   UNL     1      34.521 -16.037 -20.884  0.00  0.00    +0.031 C 
ENDBRANCH   1   9
BRANCH   3  19
ATOM     19  C   UNL     1      32.565  -7.582 -23.345  0.00  0.00    +0.000 C 
ATOM     20  C   UNL     1      31.823  -7.064 -24.407  0.00  0.00    +0.000 C 
ATOM     21  C   UNL     1      33.748  -6.957 -22.950  0.00  0.00    +0.000 C 
ATOM     22  C   UNL     1      32.263  -5.920 -25.073  0.00  0.00    +0.000 C 
ATOM     23  C   UNL     1      34.188  -5.813 -23.616  0.00  0.00    +0.000 C 
ATOM     24  C   UNL     1      33.446  -5.294 -24.678  0.00  0.00    +0.000 C 
ENDBRANCH   3  19
BRANCH   4  25
ATOM     25  O   UNL     1      30.783 -12.157 -20.654  0.00  0.00    -0.504 OA
ATOM     26  H   UNL     1      30.013 -12.105 -20.122  0.00  0.00    +0.292 HD
ENDBRANCH   4  25
TORSDOF 3
ENDMDL
MODEL 4
REMARK VINA RESULT:     -10.9      1.471      7.392
REMARK  Name = 25134257
REMARK  3 active torsions:
REMARK  status: ('A' for Active; 'I' for Inactive)
REMARK    1  A    between atoms: C_1  and  N_9
REMARK    2  A    between atoms: C_3  and  C_19
REMARK    3  A    between atoms: C_4  and  O_25
REMARK                            x       y       z     vdW  Elec       q    Type
REMARK                         _______ _______ _______ _____ _____    ______ ____
ROOT
ATOM      1  C   UNL     1      34.277 -18.144 -22.362  0.00  0.00    +0.095 C 
ATOM      2  C   UNL     1      34.089 -16.779 -22.143  0.00  0.00    +0.018 C 
ATOM      3  C   UNL     1      33.825 -15.931 -23.219  0.00  0.00    +0.001 C 
ATOM      4  C   UNL     1      34.203 -18.660 -23.655  0.00  0.00    +0.148 C 
ATOM      5  C   UNL     1      33.751 -16.448 -24.513  0.00  0.00    +0.003 C 
ATOM      6  C   UNL     1      33.941 -17.812 -24.731  0.00  0.00    +0.038 C 
ENDROOT
BRANCH   1   9
ATOM      7  O   UNL     1      32.422 -20.013 -20.849  0.00  0.00    -0.269 OA
ATOM      8  O   UNL     1      36.868 -18.610 -20.848  0.00  0.00    -0.269 OA
ATOM      9  N   UNL     1      34.548 -19.004 -21.247  0.00  0.00    -0.198 N 
ATOM     10  C   UNL     1      34.297 -20.504 -19.544  0.00  0.00    +0.055 C 
ATOM     11  C   UNL     1      35.621 -20.113 -19.564  0.00  0.00    +0.058 C 
ATOM     12  C   UNL     1      33.601 -19.807 -20.621  0.00  0.00    +0.259 C 
ATOM     13  C   UNL     1      35.793 -19.147 -20.645  0.00  0.00    +0.259 C 
ATOM     14  C   UNL     1      33.819 -21.416 -18.624  0.00  0.00    -0.017 C 
ATOM     15  C   UNL     1      36.541 -20.606 -18.661  0.00  0.00    +0.005 C 
ATOM     16  C   UNL     1      34.732 -21.931 -17.699  0.00  0.00    -0.004 C 
ATOM     17  C   UNL     1      36.082 -21.530 -17.718  0.00  0.00    -0.000 C 
ATOM     18  C   UNL     1      32.397 -21.852 -18.591  0.00  0.00    +0.031 C 
ENDBRANCH   1   9
BRANCH   3  19
ATOM     19  C   UNL     1      33.628 -14.516 -22.993  0.00  0.00    +0.000 C 
ATOM     20  C   UNL     1      33.224 -13.691 -24.043  0.00  0.00    +0.000 C 
ATOM     21  C   UNL     1      33.843 -13.976 -21.725  0.00  0.00    +0.000 C 
ATOM     22  C   UNL     1      33.032 -12.327 -23.825  0.00  0.00    +0.000 C 
ATOM     23  C   UNL     1      33.652 -12.612 -21.507  0.00  0.00    +0.000 C 
ATOM     24  C   UNL     1      33.247 -11.787 -22.557  0.00  0.00    +0.000 C 
ENDBRANCH   3  19
BRANCH   4  25
ATOM     25  O   UNL     1      34.382 -19.991 -23.890  0.00  0.00    -0.504 OA
ATOM     26  H   UNL     1      33.687 -20.595 -23.713  0.00  0.00    +0.292 HD
ENDBRANCH   4  25
TORSDOF 3
ENDMDL
MODEL 5
REMARK VINA RESULT:     -10.7      6.090      9.522
REMARK  Name = 25134257
REMARK  3 active torsions:
REMARK  status: ('A' for Active; 'I' for Inactive)
REMARK    1  A    between atoms: C_1  and  N_9
REMARK    2  A    between atoms: C_3  and  C_19
REMARK    3  A    between atoms: C_4  and  O_25
REMARK                            x       y       z     vdW  Elec       q    Type
REMARK                         _______ _______ _______ _____ _____    ______ ____
ROOT
ATOM      1  C   UNL     1      32.233  -9.525 -22.527  0.00  0.00    +0.095 C 
ATOM      2  C   UNL     1      32.739 -10.681 -23.121  0.00  0.00    +0.018 C 
ATOM      3  C   UNL     1      32.472 -11.929 -22.558  0.00  0.00    +0.001 C 
ATOM      4  C   UNL     1      31.460  -9.617 -21.369  0.00  0.00    +0.148 C 
ATOM      5  C   UNL     1      31.698 -12.020 -21.401  0.00  0.00    +0.003 C 
ATOM      6  C   UNL     1      31.193 -10.865 -20.805  0.00  0.00    +0.038 C 
ENDROOT
BRANCH   1   9
ATOM      7  O   UNL     1      30.366  -7.215 -23.159  0.00  0.00    -0.269 OA
ATOM      8  O   UNL     1      34.870  -8.371 -23.493  0.00  0.00    -0.269 OA
ATOM      9  N   UNL     1      32.516  -8.249 -23.116  0.00  0.00    -0.198 N 
ATOM     10  C   UNL     1      32.277  -6.147 -23.976  0.00  0.00    +0.055 C 
ATOM     11  C   UNL     1      33.616  -6.477 -24.046  0.00  0.00    +0.058 C 
ATOM     12  C   UNL     1      31.563  -7.271 -23.376  0.00  0.00    +0.259 C 
ATOM     13  C   UNL     1      33.781  -7.823 -23.505  0.00  0.00    +0.259 C 
ATOM     14  C   UNL     1      31.802  -4.929 -24.419  0.00  0.00    -0.017 C 
ATOM     15  C   UNL     1      34.555  -5.610 -24.567  0.00  0.00    +0.005 C 
ATOM     16  C   UNL     1      32.733  -4.033 -24.950  0.00  0.00    -0.004 C 
ATOM     17  C   UNL     1      34.098  -4.370 -25.023  0.00  0.00    -0.000 C 
ATOM     18  C   UNL     1      30.363  -4.555 -24.347  0.00  0.00    +0.031 C 
ENDBRANCH   1   9
BRANCH   3  19
ATOM     19  C   UNL     1      32.996 -13.127 -23.175  0.00  0.00    +0.000 C 
ATOM     20  C   UNL     1      33.800 -13.998 -22.437  0.00  0.00    +0.000 C 
ATOM     21  C   UNL     1      32.699 -13.414 -24.507  0.00  0.00    +0.000 C 
ATOM     22  C   UNL     1      34.304 -15.155 -23.030  0.00  0.00    +0.000 C 
ATOM     23  C   UNL     1      33.203 -14.571 -25.100  0.00  0.00    +0.000 C 
ATOM     24  C   UNL     1      34.006 -15.442 -24.362  0.00  0.00    +0.000 C 
ENDBRANCH   3  19
BRANCH   4  25
ATOM     25  O   UNL     1      30.954  -8.500 -20.774  0.00  0.00    -0.504 OA
ATOM     26  H   UNL     1      30.027  -8.362 -20.751  0.00  0.00    +0.292 HD
ENDBRANCH   4  25
TORSDOF 3
ENDMDL
MODEL 6
REMARK VINA RESULT:     -10.6      5.876     10.874
REMARK  Name = 25134257
REMARK  3 active torsions:
REMARK  status: ('A' for Active; 'I' for Inactive)
REMARK    1  A    between atoms: C_1  and  N_9
REMARK    2  A    between atoms: C_3  and  C_19
REMARK    3  A    between atoms: C_4  and  O_25
REMARK                            x       y       z     vdW  Elec       q    Type
REMARK                         _______ _______ _______ _____ _____    ______ ____
ROOT
ATOM      1  C   UNL     1      33.210 -23.457 -15.170  0.00  0.00    +0.095 C 
ATOM      2  C   UNL     1      33.594 -22.743 -16.306  0.00  0.00    +0.018 C 
ATOM      3  C   UNL     1      32.625 -22.250 -17.180  0.00  0.00    +0.001 C 
ATOM      4  C   UNL     1      31.859 -23.678 -14.909  0.00  0.00    +0.148 C 
ATOM      5  C   UNL     1      31.272 -22.472 -16.918  0.00  0.00    +0.003 C 
ATOM      6  C   UNL     1      30.889 -23.186 -15.783  0.00  0.00    +0.038 C 
ENDROOT
BRANCH   1   9
ATOM      7  O   UNL     1      33.642 -22.913 -12.213  0.00  0.00    -0.269 OA
ATOM      8  O   UNL     1      35.513 -25.361 -15.713  0.00  0.00    -0.269 OA
ATOM      9  N   UNL     1      34.217 -23.957 -14.281  0.00  0.00    -0.198 N 
ATOM     10  C   UNL     1      35.479 -24.343 -12.417  0.00  0.00    +0.055 C 
ATOM     11  C   UNL     1      36.014 -25.093 -13.446  0.00  0.00    +0.058 C 
ATOM     12  C   UNL     1      34.324 -23.617 -12.937  0.00  0.00    +0.259 C 
ATOM     13  C   UNL     1      35.220 -24.849 -14.647  0.00  0.00    +0.259 C 
ATOM     14  C   UNL     1      36.018 -24.358 -11.146  0.00  0.00    -0.017 C 
ATOM     15  C   UNL     1      37.122 -25.896 -13.264  0.00  0.00    +0.005 C 
ATOM     16  C   UNL     1      37.140 -25.165 -10.936  0.00  0.00    -0.004 C 
ATOM     17  C   UNL     1      37.687 -25.928 -11.986  0.00  0.00    -0.000 C 
ATOM     18  C   UNL     1      35.452 -23.560 -10.025  0.00  0.00    +0.031 C 
ENDBRANCH   1   9
BRANCH   3  19
ATOM     19  C   UNL     1      33.022 -21.510 -18.357  0.00  0.00    +0.000 C 
ATOM     20  C   UNL     1      32.063 -20.837 -19.115  0.00  0.00    +0.000 C 
ATOM     21  C   UNL     1      34.364 -21.468 -18.735  0.00  0.00    +0.000 C 
ATOM     22  C   UNL     1      32.446 -20.122 -20.249  0.00  0.00    +0.000 C 
ATOM     23  C   UNL     1      34.747 -20.753 -19.870  0.00  0.00    +0.000 C 
ATOM     24  C   UNL     1      33.787 -20.080 -20.627  0.00  0.00    +0.000 C 
ENDBRANCH   3  19
BRANCH   4  25
ATOM     25  O   UNL     1      31.462 -24.370 -13.803  0.00  0.00    -0.504 OA
ATOM     26  H   UNL     1      31.304 -25.292 -13.860  0.00  0.00    +0.292 HD
ENDBRANCH   4  25
TORSDOF 3
ENDMDL
MODEL 7
REMARK VINA RESULT:     -10.5      5.789     10.978
REMARK  Name = 25134257
REMARK  3 active torsions:
REMARK  status: ('A' for Active; 'I' for Inactive)
REMARK    1  A    between atoms: C_1  and  N_9
REMARK    2  A    between atoms: C_3  and  C_19
REMARK    3  A    between atoms: C_4  and  O_25
REMARK                            x       y       z     vdW  Elec       q    Type
REMARK                         _______ _______ _______ _____ _____    ______ ____
ROOT
ATOM      1  C   UNL     1      33.063 -23.346 -15.163  0.00  0.00    +0.095 C 
ATOM      2  C   UNL     1      33.491 -22.650 -16.294  0.00  0.00    +0.018 C 
ATOM      3  C   UNL     1      32.558 -22.195 -17.227  0.00  0.00    +0.001 C 
ATOM      4  C   UNL     1      31.705 -23.588 -14.965  0.00  0.00    +0.148 C 
ATOM      5  C   UNL     1      31.198 -22.438 -17.028  0.00  0.00    +0.003 C 
ATOM      6  C   UNL     1      30.771 -23.135 -15.898  0.00  0.00    +0.038 C 
ENDROOT
BRANCH   1   9
ATOM      7  O   UNL     1      35.537 -25.057 -15.582  0.00  0.00    -0.269 OA
ATOM      8  O   UNL     1      33.224 -22.886 -12.166  0.00  0.00    -0.269 OA
ATOM      9  N   UNL     1      34.033 -23.807 -14.214  0.00  0.00    -0.198 N 
ATOM     10  C   UNL     1      35.840 -24.842 -13.275  0.00  0.00    +0.055 C 
ATOM     11  C   UNL     1      35.172 -24.173 -12.268  0.00  0.00    +0.058 C 
ATOM     12  C   UNL     1      35.125 -24.610 -14.527  0.00  0.00    +0.259 C 
ATOM     13  C   UNL     1      34.010 -23.512 -12.855  0.00  0.00    +0.259 C 
ATOM     14  C   UNL     1      36.987 -25.571 -13.032  0.00  0.00    -0.017 C 
ATOM     15  C   UNL     1      35.610 -24.199 -10.960  0.00  0.00    +0.005 C 
ATOM     16  C   UNL     1      37.452 -25.612 -11.714  0.00  0.00    -0.004 C 
ATOM     17  C   UNL     1      36.770 -24.931 -10.687  0.00  0.00    -0.000 C 
ATOM     18  C   UNL     1      37.721 -26.294 -14.105  0.00  0.00    +0.031 C 
ENDBRANCH   1   9
BRANCH   3  19
ATOM     19  C   UNL     1      33.000 -21.473 -18.399  0.00  0.00    +0.000 C 
ATOM     20  C   UNL     1      32.077 -20.770 -19.175  0.00  0.00    +0.000 C 
ATOM     21  C   UNL     1      34.349 -21.477 -18.753  0.00  0.00    +0.000 C 
ATOM     22  C   UNL     1      32.504 -20.072 -20.305  0.00  0.00    +0.000 C 
ATOM     23  C   UNL     1      34.775 -20.779 -19.883  0.00  0.00    +0.000 C 
ATOM     24  C   UNL     1      33.853 -20.077 -20.659  0.00  0.00    +0.000 C 
ENDBRANCH   3  19
BRANCH   4  25
ATOM     25  O   UNL     1      31.266 -24.264 -13.865  0.00  0.00    -0.504 OA
ATOM     26  H   UNL     1      30.746 -23.823 -13.222  0.00  0.00    +0.292 HD
ENDBRANCH   4  25
TORSDOF 3
ENDMDL
MODEL 8
REMARK VINA RESULT:     -10.3      1.764      7.339
REMARK  Name = 25134257
REMARK  3 active torsions:
REMARK  status: ('A' for Active; 'I' for Inactive)
REMARK    1  A    between atoms: C_1  and  N_9
REMARK    2  A    between atoms: C_3  and  C_19
REMARK    3  A    between atoms: C_4  and  O_25
REMARK                            x       y       z     vdW  Elec       q    Type
REMARK                         _______ _______ _______ _____ _____    ______ ____
ROOT
ATOM      1  C   UNL     1      34.188 -18.643 -21.693  0.00  0.00    +0.095 C 
ATOM      2  C   UNL     1      34.016 -17.283 -21.434  0.00  0.00    +0.018 C 
ATOM      3  C   UNL     1      34.115 -16.358 -22.473  0.00  0.00    +0.001 C 
ATOM      4  C   UNL     1      34.462 -19.077 -22.989  0.00  0.00    +0.148 C 
ATOM      5  C   UNL     1      34.387 -16.793 -23.770  0.00  0.00    +0.003 C 
ATOM      6  C   UNL     1      34.562 -18.151 -24.029  0.00  0.00    +0.038 C 
ENDROOT
BRANCH   1   9
ATOM      7  O   UNL     1      36.305 -19.611 -19.742  0.00  0.00    -0.269 OA
ATOM      8  O   UNL     1      31.787 -20.226 -20.717  0.00  0.00    -0.269 OA
ATOM      9  N   UNL     1      34.084 -19.583 -20.615  0.00  0.00    -0.198 N 
ATOM     10  C   UNL     1      34.598 -20.931 -18.845  0.00  0.00    +0.055 C 
ATOM     11  C   UNL     1      33.252 -21.088 -19.113  0.00  0.00    +0.058 C 
ATOM     12  C   UNL     1      35.140 -19.964 -19.795  0.00  0.00    +0.259 C 
ATOM     13  C   UNL     1      32.913 -20.236 -20.249  0.00  0.00    +0.259 C 
ATOM     14  C   UNL     1      35.223 -21.613 -17.820  0.00  0.00    -0.017 C 
ATOM     15  C   UNL     1      32.457 -21.942 -18.376  0.00  0.00    +0.005 C 
ATOM     16  C   UNL     1      34.438 -22.483 -17.058  0.00  0.00    -0.004 C 
ATOM     17  C   UNL     1      33.067 -22.646 -17.333  0.00  0.00    -0.000 C 
ATOM     18  C   UNL     1      36.670 -21.452 -17.514  0.00  0.00    +0.031 C 
ENDBRANCH   1   9
BRANCH   3  19
ATOM     19  C   UNL     1      33.935 -14.948 -22.205  0.00  0.00    +0.000 C 
ATOM     20  C   UNL     1      33.796 -14.049 -23.263  0.00  0.00    +0.000 C 
ATOM     21  C   UNL     1      33.900 -14.487 -20.889  0.00  0.00    +0.000 C 
ATOM     22  C   UNL     1      33.621 -12.689 -23.005  0.00  0.00    +0.000 C 
ATOM     23  C   UNL     1      33.724 -13.127 -20.631  0.00  0.00    +0.000 C 
ATOM     24  C   UNL     1      33.585 -12.228 -21.689  0.00  0.00    +0.000 C 
ENDBRANCH   3  19
BRANCH   4  25
ATOM     25  O   UNL     1      34.631 -20.401 -23.265  0.00  0.00    -0.504 OA
ATOM     26  H   UNL     1      33.884 -20.955 -23.381  0.00  0.00    +0.292 HD
ENDBRANCH   4  25
TORSDOF 3
ENDMDL
MODEL 9
REMARK VINA RESULT:     -10.2      6.105      9.396
REMARK  Name = 25134257
REMARK  3 active torsions:
REMARK  status: ('A' for Active; 'I' for Inactive)
REMARK    1  A    between atoms: C_1  and  N_9
REMARK    2  A    between atoms: C_3  and  C_19
REMARK    3  A    between atoms: C_4  and  O_25
REMARK                            x       y       z     vdW  Elec       q    Type
REMARK                         _______ _______ _______ _____ _____    ______ ____
ROOT
ATOM      1  C   UNL     1      31.935  -9.726 -22.345  0.00  0.00    +0.095 C 
ATOM      2  C   UNL     1      32.468 -10.830 -23.011  0.00  0.00    +0.018 C 
ATOM      3  C   UNL     1      32.453 -12.086 -22.402  0.00  0.00    +0.001 C 
ATOM      4  C   UNL     1      31.389  -9.877 -21.071  0.00  0.00    +0.148 C 
ATOM      5  C   UNL     1      31.906 -12.236 -21.127  0.00  0.00    +0.003 C 
ATOM      6  C   UNL     1      31.374 -11.132 -20.461  0.00  0.00    +0.038 C 
ENDROOT
BRANCH   1   9
ATOM      7  O   UNL     1      34.294  -8.060 -23.283  0.00  0.00    -0.269 OA
ATOM      8  O   UNL     1      29.636  -7.908 -23.140  0.00  0.00    -0.269 OA
ATOM      9  N   UNL     1      31.957  -8.443 -22.983  0.00  0.00    -0.198 N 
ATOM     10  C   UNL     1      32.681  -6.509 -23.958  0.00  0.00    +0.055 C 
ATOM     11  C   UNL     1      31.301  -6.478 -23.945  0.00  0.00    +0.058 C 
ATOM     12  C   UNL     1      33.114  -7.765 -23.352  0.00  0.00    +0.259 C 
ATOM     13  C   UNL     1      30.825  -7.708 -23.316  0.00  0.00    +0.259 C 
ATOM     14  C   UNL     1      33.429  -5.477 -24.489  0.00  0.00    -0.017 C 
ATOM     15  C   UNL     1      30.590  -5.412 -24.456  0.00  0.00    +0.005 C 
ATOM     16  C   UNL     1      32.732  -4.386 -25.014  0.00  0.00    -0.004 C 
ATOM     17  C   UNL     1      31.324  -4.353 -24.998  0.00  0.00    -0.000 C 
ATOM     18  C   UNL     1      34.917  -5.496 -24.516  0.00  0.00    +0.031 C 
ENDBRANCH   1   9
BRANCH   3  19
ATOM     19  C   UNL     1      33.005 -13.231 -23.092  0.00  0.00    +0.000 C 
ATOM     20  C   UNL     1      33.823 -14.130 -22.407  0.00  0.00    +0.000 C 
ATOM     21  C   UNL     1      32.719 -13.436 -24.441  0.00  0.00    +0.000 C 
ATOM     22  C   UNL     1      34.354 -15.236 -23.072  0.00  0.00    +0.000 C 
ATOM     23  C   UNL     1      33.250 -14.542 -25.106  0.00  0.00    +0.000 C 
ATOM     24  C   UNL     1      34.068 -15.441 -24.421  0.00  0.00    +0.000 C 
ENDBRANCH   3  19
BRANCH   4  25
ATOM     25  O   UNL     1      30.860  -8.812 -20.404  0.00  0.00    -0.504 OA
ATOM     26  H   UNL     1      29.939  -8.643 -20.447  0.00  0.00    +0.292 HD
ENDBRANCH   4  25
TORSDOF 3
ENDMDL
