MODEL 1
REMARK VINA RESULT:     -11.2      0.000      0.000
REMARK  Name = 5287741
REMARK  11 active torsions:
REMARK  status: ('A' for Active; 'I' for Inactive)
REMARK    1  A    between atoms: N_3  and  C_27
REMARK    2  A    between atoms: C_5  and  C_12
REMARK    3  A    between atoms: C_6  and  O_10
REMARK    4  A    between atoms: C_12  and  C_13
REMARK    5  A    between atoms: C_16  and  O_19
REMARK    6  A    between atoms: O_19  and  C_20
REMARK    7  A    between atoms: C_20  and  C_21
REMARK    8  A    between atoms: C_27  and  O_28
REMARK    9  A    between atoms: O_28  and  C_29
REMARK   10  A    between atoms: C_29  and  C_30
REMARK   11  A    between atoms: C_30  and  O_31
REMARK                            x       y       z     vdW  Elec       q    Type
REMARK                         _______ _______ _______ _____ _____    ______ ____
ROOT
ATOM      1  O   UNL     1      31.962 -13.940 -19.886  0.00  0.00    -0.267 OA
ATOM      2  O   UNL     1      29.851 -10.275 -21.640  0.00  0.00    -0.246 OA
ATOM      3  N   UNL     1      31.949 -10.848 -22.488  0.00  0.00    -0.225 N 
ATOM      4  N   UNL     1      30.920 -12.102 -20.783  0.00  0.00    -0.274 N 
ATOM      5  C   UNL     1      33.101 -12.769 -21.620  0.00  0.00    +0.089 A 
ATOM      6  C   UNL     1      33.039 -11.714 -22.457  0.00  0.00    +0.209 A 
ATOM      7  C   UNL     1      31.960 -13.005 -20.684  0.00  0.00    +0.262 A 
ATOM      8  C   UNL     1      30.838 -11.013 -21.647  0.00  0.00    +0.334 A 
ATOM      9  H   UNL     1      30.155 -12.243 -20.180  0.00  0.00    +0.173 HD
ENDROOT
BRANCH   6  10
ATOM     10  O   UNL     1      34.055 -11.404 -23.346  0.00  0.00    -0.493 OA
ATOM     11  H   UNL     1      33.848 -11.033 -24.181  0.00  0.00    +0.294 HD
ENDBRANCH   6  10
BRANCH   5  12
ATOM     12  C   UNL     1      34.214 -13.776 -21.526  0.00  0.00    +0.062 C 
BRANCH  12  13
ATOM     13  C   UNL     1      34.053 -14.897 -22.513  0.00  0.00    -0.014 C 
ATOM     14  C   UNL     1      34.478 -16.176 -22.174  0.00  0.00    +0.033 C 
ATOM     15  C   UNL     1      33.481 -14.643 -23.753  0.00  0.00    -0.004 C 
ATOM     16  C   UNL     1      34.328 -17.217 -23.090  0.00  0.00    +0.139 C 
ATOM     17  C   UNL     1      33.332 -15.683 -24.669  0.00  0.00    +0.003 C 
ATOM     18  C   UNL     1      33.754 -16.971 -24.338  0.00  0.00    +0.037 C 
BRANCH  16  19
ATOM     19  O   UNL     1      34.740 -18.473 -22.767  0.00  0.00    -0.471 OA
BRANCH  19  20
ATOM     20  C   UNL     1      35.452 -18.627 -21.540  0.00  0.00    +0.232 C 
BRANCH  20  21
ATOM     21  C   UNL     1      34.716 -19.600 -20.666  0.00  0.00    +0.021 C 
ATOM     22  C   UNL     1      33.325 -19.608 -20.665  0.00  0.00    -0.001 C 
ATOM     23  C   UNL     1      35.431 -20.483 -19.864  0.00  0.00    -0.001 C 
ATOM     24  C   UNL     1      32.641 -20.512 -19.852  0.00  0.00    -0.000 C 
ATOM     25  C   UNL     1      34.746 -21.387 -19.053  0.00  0.00    -0.000 C 
ATOM     26  C   UNL     1      33.351 -21.401 -19.046  0.00  0.00    -0.000 C 
ENDBRANCH  20  21
ENDBRANCH  19  20
ENDBRANCH  16  19
ENDBRANCH  12  13
ENDBRANCH   5  12
BRANCH   3  27
ATOM     27  C   UNL     1      31.963  -9.729 -23.431  0.00  0.00    +0.262 C 
BRANCH  27  28
ATOM     28  O   UNL     1      32.790  -8.702 -22.905  0.00  0.00    -0.329 OA
BRANCH  28  29
ATOM     29  C   UNL     1      32.032  -7.556 -22.543  0.00  0.00    +0.176 C 
BRANCH  29  30
ATOM     30  C   UNL     1      32.306  -7.220 -21.090  0.00  0.00    +0.169 C 
BRANCH  30  31
ATOM     31  O   UNL     1      31.412  -7.959 -20.266  0.00  0.00    -0.379 OA
ATOM     32  H   UNL     1      30.710  -7.372 -19.945  0.00  0.00    +0.211 HD
ENDBRANCH  30  31
ENDBRANCH  29  30
ENDBRANCH  28  29
ENDBRANCH  27  28
ENDBRANCH   3  27
TORSDOF 11
ENDMDL
MODEL 2
REMARK VINA RESULT:     -11.2      2.869      5.506
REMARK  Name = 5287741
REMARK  11 active torsions:
REMARK  status: ('A' for Active; 'I' for Inactive)
REMARK    1  A    between atoms: N_3  and  C_27
REMARK    2  A    between atoms: C_5  and  C_12
REMARK    3  A    between atoms: C_6  and  O_10
REMARK    4  A    between atoms: C_12  and  C_13
REMARK    5  A    between atoms: C_16  and  O_19
REMARK    6  A    between atoms: O_19  and  C_20
REMARK    7  A    between atoms: C_20  and  C_21
REMARK    8  A    between atoms: C_27  and  O_28
REMARK    9  A    between atoms: O_28  and  C_29
REMARK   10  A    between atoms: C_29  and  C_30
REMARK   11  A    between atoms: C_30  and  O_31
REMARK                            x       y       z     vdW  Elec       q    Type
REMARK                         _______ _______ _______ _____ _____    ______ ____
ROOT
ATOM      1  O   UNL     1      33.895 -18.163 -24.809  0.00  0.00    -0.267 OA
ATOM      2  O   UNL     1      32.941 -13.824 -23.700  0.00  0.00    -0.246 OA
ATOM      3  N   UNL     1      33.984 -15.167 -22.100  0.00  0.00    -0.225 N 
ATOM      4  N   UNL     1      33.431 -15.990 -24.233  0.00  0.00    -0.274 N 
ATOM      5  C   UNL     1      34.524 -17.448 -22.626  0.00  0.00    +0.089 A 
ATOM      6  C   UNL     1      34.514 -16.411 -21.765  0.00  0.00    +0.209 A 
ATOM      7  C   UNL     1      33.930 -17.253 -23.984  0.00  0.00    +0.262 A 
ATOM      8  C   UNL     1      33.420 -14.908 -23.358  0.00  0.00    +0.334 A 
ATOM      9  H   UNL     1      33.041 -15.839 -25.125  0.00  0.00    +0.173 HD
ENDROOT
BRANCH   6  10
ATOM     10  O   UNL     1      35.023 -16.500 -20.480  0.00  0.00    -0.493 OA
ATOM     11  H   UNL     1      34.991 -15.755 -19.911  0.00  0.00    +0.294 HD
ENDBRANCH   6  10
BRANCH   5  12
ATOM     12  C   UNL     1      35.094 -18.816 -22.376  0.00  0.00    +0.062 C 
BRANCH  12  13
ATOM     13  C   UNL     1      34.348 -19.557 -21.302  0.00  0.00    -0.014 C 
ATOM     14  C   UNL     1      35.040 -20.399 -20.441  0.00  0.00    +0.033 C 
ATOM     15  C   UNL     1      32.974 -19.391 -21.182  0.00  0.00    -0.004 C 
ATOM     16  C   UNL     1      34.347 -21.086 -19.445  0.00  0.00    +0.139 C 
ATOM     17  C   UNL     1      32.281 -20.077 -20.186  0.00  0.00    +0.003 C 
ATOM     18  C   UNL     1      32.967 -20.925 -19.316  0.00  0.00    +0.037 C 
BRANCH  16  19
ATOM     19  O   UNL     1      35.017 -21.912 -18.596  0.00  0.00    -0.471 OA
BRANCH  19  20
ATOM     20  C   UNL     1      36.020 -21.321 -17.770  0.00  0.00    +0.232 C 
BRANCH  20  21
ATOM     21  C   UNL     1      35.958 -21.942 -16.405  0.00  0.00    +0.021 C 
ATOM     22  C   UNL     1      34.735 -22.363 -15.895  0.00  0.00    -0.001 C 
ATOM     23  C   UNL     1      37.125 -22.090 -15.662  0.00  0.00    -0.001 C 
ATOM     24  C   UNL     1      34.677 -22.940 -14.627  0.00  0.00    -0.000 C 
ATOM     25  C   UNL     1      37.066 -22.668 -14.394  0.00  0.00    -0.000 C 
ATOM     26  C   UNL     1      35.843 -23.092 -13.876  0.00  0.00    -0.000 C 
ENDBRANCH  20  21
ENDBRANCH  19  20
ENDBRANCH  16  19
ENDBRANCH  12  13
ENDBRANCH   5  12
BRANCH   3  27
ATOM     27  C   UNL     1      34.017 -14.094 -21.105  0.00  0.00    +0.262 C 
BRANCH  27  28
ATOM     28  O   UNL     1      33.182 -14.459 -20.016  0.00  0.00    -0.329 OA
BRANCH  28  29
ATOM     29  C   UNL     1      31.904 -13.846 -20.110  0.00  0.00    +0.176 C 
BRANCH  29  30
ATOM     30  C   UNL     1      32.069 -12.440 -20.654  0.00  0.00    +0.169 C 
BRANCH  30  31
ATOM     31  O   UNL     1      31.141 -12.239 -21.713  0.00  0.00    -0.379 OA
ATOM     32  H   UNL     1      30.738 -11.361 -21.628  0.00  0.00    +0.211 HD
ENDBRANCH  30  31
ENDBRANCH  29  30
ENDBRANCH  28  29
ENDBRANCH  27  28
ENDBRANCH   3  27
TORSDOF 11
ENDMDL
MODEL 3
REMARK VINA RESULT:     -10.7      7.144     12.715
REMARK  Name = 5287741
REMARK  11 active torsions:
REMARK  status: ('A' for Active; 'I' for Inactive)
REMARK    1  A    between atoms: N_3  and  C_27
REMARK    2  A    between atoms: C_5  and  C_12
REMARK    3  A    between atoms: C_6  and  O_10
REMARK    4  A    between atoms: C_12  and  C_13
REMARK    5  A    between atoms: C_16  and  O_19
REMARK    6  A    between atoms: O_19  and  C_20
REMARK    7  A    between atoms: C_20  and  C_21
REMARK    8  A    between atoms: C_27  and  O_28
REMARK    9  A    between atoms: O_28  and  C_29
REMARK   10  A    between atoms: C_29  and  C_30
REMARK   11  A    between atoms: C_30  and  O_31
REMARK                            x       y       z     vdW  Elec       q    Type
REMARK                         _______ _______ _______ _____ _____    ______ ____
ROOT
ATOM      1  O   UNL     1      32.260 -22.403 -14.247  0.00  0.00    -0.267 OA
ATOM      2  O   UNL     1      34.934 -24.142 -10.961  0.00  0.00    -0.246 OA
ATOM      3  N   UNL     1      35.507 -24.561 -13.185  0.00  0.00    -0.225 N 
ATOM      4  N   UNL     1      33.617 -23.280 -12.616  0.00  0.00    -0.274 N 
ATOM      5  C   UNL     1      34.153 -23.663 -14.955  0.00  0.00    +0.089 A 
ATOM      6  C   UNL     1      35.215 -24.380 -14.535  0.00  0.00    +0.209 A 
ATOM      7  C   UNL     1      33.253 -23.054 -13.929  0.00  0.00    +0.262 A 
ATOM      8  C   UNL     1      34.714 -24.010 -12.167  0.00  0.00    +0.334 A 
ATOM      9  H   UNL     1      33.041 -22.881 -11.924  0.00  0.00    +0.173 HD
ENDROOT
BRANCH   6  10
ATOM     10  O   UNL     1      36.094 -24.997 -15.408  0.00  0.00    -0.493 OA
ATOM     11  H   UNL     1      36.816 -25.493 -15.074  0.00  0.00    +0.294 HD
ENDBRANCH   6  10
BRANCH   5  12
ATOM     12  C   UNL     1      33.766 -23.385 -16.380  0.00  0.00    +0.062 C 
BRANCH  12  13
ATOM     13  C   UNL     1      34.677 -22.386 -17.034  0.00  0.00    -0.014 C 
ATOM     14  C   UNL     1      34.425 -21.978 -18.338  0.00  0.00    +0.033 C 
ATOM     15  C   UNL     1      35.761 -21.879 -16.327  0.00  0.00    -0.004 C 
ATOM     16  C   UNL     1      35.271 -21.050 -18.945  0.00  0.00    +0.139 C 
ATOM     17  C   UNL     1      36.606 -20.951 -16.934  0.00  0.00    +0.003 C 
ATOM     18  C   UNL     1      36.362 -20.535 -18.243  0.00  0.00    +0.037 C 
BRANCH  16  19
ATOM     19  O   UNL     1      35.032 -20.644 -20.222  0.00  0.00    -0.471 OA
BRANCH  19  20
ATOM     20  C   UNL     1      33.820 -19.930 -20.460  0.00  0.00    +0.232 C 
BRANCH  20  21
ATOM     21  C   UNL     1      34.082 -18.837 -21.455  0.00  0.00    +0.021 C 
ATOM     22  C   UNL     1      34.701 -17.663 -21.040  0.00  0.00    -0.001 C 
ATOM     23  C   UNL     1      33.703 -19.008 -22.782  0.00  0.00    -0.001 C 
ATOM     24  C   UNL     1      34.945 -16.647 -21.964  0.00  0.00    -0.000 C 
ATOM     25  C   UNL     1      33.949 -17.992 -23.706  0.00  0.00    -0.000 C 
ATOM     26  C   UNL     1      34.568 -16.811 -23.296  0.00  0.00    -0.000 C 
ENDBRANCH  20  21
ENDBRANCH  19  20
ENDBRANCH  16  19
ENDBRANCH  12  13
ENDBRANCH   5  12
BRANCH   3  27
ATOM     27  C   UNL     1      36.682 -25.351 -12.817  0.00  0.00    +0.262 C 
BRANCH  27  28
ATOM     28  O   UNL     1      37.849 -24.609 -13.141  0.00  0.00    -0.329 OA
BRANCH  28  29
ATOM     29  C   UNL     1      38.926 -25.462 -13.502  0.00  0.00    +0.176 C 
BRANCH  29  30
ATOM     30  C   UNL     1      39.816 -24.741 -14.496  0.00  0.00    +0.169 C 
BRANCH  30  31
ATOM     31  O   UNL     1      39.859 -25.486 -15.707  0.00  0.00    -0.379 OA
ATOM     32  H   UNL     1      38.954 -25.683 -15.997  0.00  0.00    +0.211 HD
ENDBRANCH  30  31
ENDBRANCH  29  30
ENDBRANCH  28  29
ENDBRANCH  27  28
ENDBRANCH   3  27
TORSDOF 11
ENDMDL
MODEL 4
REMARK VINA RESULT:     -10.5      6.333     11.597
REMARK  Name = 5287741
REMARK  11 active torsions:
REMARK  status: ('A' for Active; 'I' for Inactive)
REMARK    1  A    between atoms: N_3  and  C_27
REMARK    2  A    between atoms: C_5  and  C_12
REMARK    3  A    between atoms: C_6  and  O_10
REMARK    4  A    between atoms: C_12  and  C_13
REMARK    5  A    between atoms: C_16  and  O_19
REMARK    6  A    between atoms: O_19  and  C_20
REMARK    7  A    between atoms: C_20  and  C_21
REMARK    8  A    between atoms: C_27  and  O_28
REMARK    9  A    between atoms: O_28  and  C_29
REMARK   10  A    between atoms: C_29  and  C_30
REMARK   11  A    between atoms: C_30  and  O_31
REMARK                            x       y       z     vdW  Elec       q    Type
REMARK                         _______ _______ _______ _____ _____    ______ ____
ROOT
ATOM      1  O   UNL     1      30.622 -22.071 -17.019  0.00  0.00    -0.267 OA
ATOM      2  O   UNL     1      31.671 -22.598 -12.593  0.00  0.00    -0.246 OA
ATOM      3  N   UNL     1      33.204 -23.348 -14.185  0.00  0.00    -0.225 N 
ATOM      4  N   UNL     1      31.171 -22.340 -14.806  0.00  0.00    -0.274 N 
ATOM      5  C   UNL     1      32.719 -23.086 -16.524  0.00  0.00    +0.089 A 
ATOM      6  C   UNL     1      33.532 -23.499 -15.531  0.00  0.00    +0.209 A 
ATOM      7  C   UNL     1      31.414 -22.455 -16.161  0.00  0.00    +0.262 A 
ATOM      8  C   UNL     1      32.003 -22.755 -13.770  0.00  0.00    +0.334 A 
ATOM      9  H   UNL     1      30.319 -21.921 -14.546  0.00  0.00    +0.173 HD
ENDROOT
BRANCH   6  10
ATOM     10  O   UNL     1      34.751 -24.112 -15.768  0.00  0.00    -0.493 OA
ATOM     11  H   UNL     1      35.548 -23.663 -15.562  0.00  0.00    +0.294 HD
ENDBRANCH   6  10
BRANCH   5  12
ATOM     12  C   UNL     1      32.988 -23.177 -18.000  0.00  0.00    +0.062 C 
BRANCH  12  13
ATOM     13  C   UNL     1      33.910 -22.091 -18.479  0.00  0.00    -0.014 C 
ATOM     14  C   UNL     1      33.502 -21.248 -19.505  0.00  0.00    +0.033 C 
ATOM     15  C   UNL     1      35.160 -21.943 -17.891  0.00  0.00    -0.004 C 
ATOM     16  C   UNL     1      34.358 -20.240 -19.949  0.00  0.00    +0.139 C 
ATOM     17  C   UNL     1      36.016 -20.936 -18.334  0.00  0.00    +0.003 C 
ATOM     18  C   UNL     1      35.615 -20.083 -19.364  0.00  0.00    +0.037 C 
BRANCH  16  19
ATOM     19  O   UNL     1      33.967 -19.408 -20.952  0.00  0.00    -0.471 OA
BRANCH  19  20
ATOM     20  C   UNL     1      34.988 -18.906 -21.814  0.00  0.00    +0.232 C 
BRANCH  20  21
ATOM     21  C   UNL     1      34.632 -17.508 -22.232  0.00  0.00    +0.021 C 
ATOM     22  C   UNL     1      34.310 -17.249 -23.560  0.00  0.00    -0.001 C 
ATOM     23  C   UNL     1      34.628 -16.487 -21.289  0.00  0.00    -0.001 C 
ATOM     24  C   UNL     1      33.979 -15.951 -23.949  0.00  0.00    -0.000 C 
ATOM     25  C   UNL     1      34.296 -15.189 -21.678  0.00  0.00    -0.000 C 
ATOM     26  C   UNL     1      33.973 -14.921 -23.008  0.00  0.00    -0.000 C 
ENDBRANCH  20  21
ENDBRANCH  19  20
ENDBRANCH  16  19
ENDBRANCH  12  13
ENDBRANCH   5  12
BRANCH   3  27
ATOM     27  C   UNL     1      34.147 -23.822 -13.172  0.00  0.00    +0.262 C 
BRANCH  27  28
ATOM     28  O   UNL     1      35.217 -22.893 -13.076  0.00  0.00    -0.329 OA
BRANCH  28  29
ATOM     29  C   UNL     1      36.088 -23.210 -11.999  0.00  0.00    +0.176 C 
BRANCH  29  30
ATOM     30  C   UNL     1      35.272 -23.778 -10.854  0.00  0.00    +0.169 C 
BRANCH  30  31
ATOM     31  O   UNL     1      36.033 -23.694  -9.655  0.00  0.00    -0.379 OA
ATOM     32  H   UNL     1      35.490 -23.299  -8.954  0.00  0.00    +0.211 HD
ENDBRANCH  30  31
ENDBRANCH  29  30
ENDBRANCH  28  29
ENDBRANCH  27  28
ENDBRANCH   3  27
TORSDOF 11
ENDMDL
MODEL 5
REMARK VINA RESULT:     -10.5      2.508      9.268
REMARK  Name = 5287741
REMARK  11 active torsions:
REMARK  status: ('A' for Active; 'I' for Inactive)
REMARK    1  A    between atoms: N_3  and  C_27
REMARK    2  A    between atoms: C_5  and  C_12
REMARK    3  A    between atoms: C_6  and  O_10
REMARK    4  A    between atoms: C_12  and  C_13
REMARK    5  A    between atoms: C_16  and  O_19
REMARK    6  A    between atoms: O_19  and  C_20
REMARK    7  A    between atoms: C_20  and  C_21
REMARK    8  A    between atoms: C_27  and  O_28
REMARK    9  A    between atoms: O_28  and  C_29
REMARK   10  A    between atoms: C_29  and  C_30
REMARK   11  A    between atoms: C_30  and  O_31
REMARK                            x       y       z     vdW  Elec       q    Type
REMARK                         _______ _______ _______ _____ _____    ______ ____
ROOT
ATOM      1  O   UNL     1      33.106 -14.957 -25.414  0.00  0.00    -0.267 OA
ATOM      2  O   UNL     1      33.022 -19.479 -24.698  0.00  0.00    -0.246 OA
ATOM      3  N   UNL     1      34.108 -18.135 -23.128  0.00  0.00    -0.225 N 
ATOM      4  N   UNL     1      33.071 -17.221 -25.032  0.00  0.00    -0.274 N 
ATOM      5  C   UNL     1      34.173 -15.754 -23.439  0.00  0.00    +0.089 A 
ATOM      6  C   UNL     1      34.485 -16.855 -22.727  0.00  0.00    +0.209 A 
ATOM      7  C   UNL     1      33.407 -15.920 -24.711  0.00  0.00    +0.262 A 
ATOM      8  C   UNL     1      33.379 -18.367 -24.304  0.00  0.00    +0.334 A 
ATOM      9  H   UNL     1      32.561 -17.351 -25.864  0.00  0.00    +0.173 HD
ENDROOT
BRANCH   6  10
ATOM     10  O   UNL     1      35.207 -16.804 -21.547  0.00  0.00    -0.493 OA
ATOM     11  H   UNL     1      35.886 -16.166 -21.441  0.00  0.00    +0.294 HD
ENDBRANCH   6  10
BRANCH   5  12
ATOM     12  C   UNL     1      34.506 -14.332 -23.083  0.00  0.00    +0.062 C 
BRANCH  12  13
ATOM     13  C   UNL     1      33.466 -13.708 -22.196  0.00  0.00    -0.014 C 
ATOM     14  C   UNL     1      32.738 -12.617 -22.654  0.00  0.00    +0.033 C 
ATOM     15  C   UNL     1      33.243 -14.230 -20.927  0.00  0.00    -0.004 C 
ATOM     16  C   UNL     1      31.772 -12.039 -21.830  0.00  0.00    +0.139 C 
ATOM     17  C   UNL     1      32.277 -13.652 -20.104  0.00  0.00    +0.003 C 
ATOM     18  C   UNL     1      31.541 -12.556 -20.555  0.00  0.00    +0.037 C 
BRANCH  16  19
ATOM     19  O   UNL     1      31.053 -10.971 -22.271  0.00  0.00    -0.471 OA
BRANCH  19  20
ATOM     20  C   UNL     1      30.483 -10.118 -21.279  0.00  0.00    +0.232 C 
BRANCH  20  21
ATOM     21  C   UNL     1      31.284  -8.851 -21.202  0.00  0.00    +0.021 C 
ATOM     22  C   UNL     1      31.831  -8.312 -22.361  0.00  0.00    -0.001 C 
ATOM     23  C   UNL     1      31.474  -8.229 -19.973  0.00  0.00    -0.001 C 
ATOM     24  C   UNL     1      32.576  -7.135 -22.291  0.00  0.00    -0.000 C 
ATOM     25  C   UNL     1      32.218  -7.051 -19.903  0.00  0.00    -0.000 C 
ATOM     26  C   UNL     1      32.770  -6.505 -21.062  0.00  0.00    -0.000 C 
ENDBRANCH  20  21
ENDBRANCH  19  20
ENDBRANCH  16  19
ENDBRANCH  12  13
ENDBRANCH   5  12
BRANCH   3  27
ATOM     27  C   UNL     1      34.485 -19.276 -22.293  0.00  0.00    +0.262 C 
BRANCH  27  28
ATOM     28  O   UNL     1      33.710 -19.245 -21.104  0.00  0.00    -0.329 OA
BRANCH  28  29
ATOM     29  C   UNL     1      34.200 -20.164 -20.138  0.00  0.00    +0.176 C 
BRANCH  29  30
ATOM     30  C   UNL     1      33.025 -20.846 -19.464  0.00  0.00    +0.169 C 
BRANCH  30  31
ATOM     31  O   UNL     1      31.836 -20.541 -20.184  0.00  0.00    -0.379 OA
ATOM     32  H   UNL     1      31.717 -19.579 -20.217  0.00  0.00    +0.211 HD
ENDBRANCH  30  31
ENDBRANCH  29  30
ENDBRANCH  28  29
ENDBRANCH  27  28
ENDBRANCH   3  27
TORSDOF 11
ENDMDL
MODEL 6
REMARK VINA RESULT:     -10.3      7.405     12.970
REMARK  Name = 5287741
REMARK  11 active torsions:
REMARK  status: ('A' for Active; 'I' for Inactive)
REMARK    1  A    between atoms: N_3  and  C_27
REMARK    2  A    between atoms: C_5  and  C_12
REMARK    3  A    between atoms: C_6  and  O_10
REMARK    4  A    between atoms: C_12  and  C_13
REMARK    5  A    between atoms: C_16  and  O_19
REMARK    6  A    between atoms: O_19  and  C_20
REMARK    7  A    between atoms: C_20  and  C_21
REMARK    8  A    between atoms: C_27  and  O_28
REMARK    9  A    between atoms: O_28  and  C_29
REMARK   10  A    between atoms: C_29  and  C_30
REMARK   11  A    between atoms: C_30  and  O_31
REMARK                            x       y       z     vdW  Elec       q    Type
REMARK                         _______ _______ _______ _____ _____    ______ ____
ROOT
ATOM      1  O   UNL     1      37.992 -21.637 -16.057  0.00  0.00    -0.267 OA
ATOM      2  O   UNL     1      39.377 -25.821 -14.814  0.00  0.00    -0.246 OA
ATOM      3  N   UNL     1      37.138 -25.255 -14.472  0.00  0.00    -0.225 N 
ATOM      4  N   UNL     1      38.663 -23.741 -15.431  0.00  0.00    -0.274 N 
ATOM      5  C   UNL     1      36.346 -23.080 -15.117  0.00  0.00    +0.089 A 
ATOM      6  C   UNL     1      36.130 -24.301 -14.588  0.00  0.00    +0.209 A 
ATOM      7  C   UNL     1      37.726 -22.739 -15.580  0.00  0.00    +0.262 A 
ATOM      8  C   UNL     1      38.453 -25.009 -14.895  0.00  0.00    +0.334 A 
ATOM      9  H   UNL     1      39.577 -23.539 -15.737  0.00  0.00    +0.173 HD
ENDROOT
BRANCH   6  10
ATOM     10  O   UNL     1      34.892 -24.702 -14.115  0.00  0.00    -0.493 OA
ATOM     11  H   UNL     1      34.207 -24.916 -14.718  0.00  0.00    +0.294 HD
ENDBRANCH   6  10
BRANCH   5  12
ATOM     12  C   UNL     1      35.327 -21.994 -15.313  0.00  0.00    +0.062 C 
BRANCH  12  13
ATOM     13  C   UNL     1      34.628 -22.100 -16.639  0.00  0.00    -0.014 C 
ATOM     14  C   UNL     1      35.216 -21.550 -17.771  0.00  0.00    +0.033 C 
ATOM     15  C   UNL     1      33.401 -22.748 -16.718  0.00  0.00    -0.004 C 
ATOM     16  C   UNL     1      34.567 -21.649 -19.001  0.00  0.00    +0.139 C 
ATOM     17  C   UNL     1      32.753 -22.847 -17.948  0.00  0.00    +0.003 C 
ATOM     18  C   UNL     1      33.336 -22.298 -19.091  0.00  0.00    +0.037 C 
BRANCH  16  19
ATOM     19  O   UNL     1      35.136 -21.114 -20.116  0.00  0.00    -0.471 OA
BRANCH  19  20
ATOM     20  C   UNL     1      35.703 -19.810 -19.994  0.00  0.00    +0.232 C 
BRANCH  20  21
ATOM     21  C   UNL     1      35.195 -18.949 -21.114  0.00  0.00    +0.021 C 
ATOM     22  C   UNL     1      35.456 -17.583 -21.103  0.00  0.00    -0.001 C 
ATOM     23  C   UNL     1      34.470 -19.524 -22.151  0.00  0.00    -0.001 C 
ATOM     24  C   UNL     1      34.985 -16.782 -22.143  0.00  0.00    -0.000 C 
ATOM     25  C   UNL     1      34.000 -18.723 -23.192  0.00  0.00    -0.000 C 
ATOM     26  C   UNL     1      34.257 -17.351 -23.187  0.00  0.00    -0.000 C 
ENDBRANCH  20  21
ENDBRANCH  19  20
ENDBRANCH  16  19
ENDBRANCH  12  13
ENDBRANCH   5  12
BRANCH   3  27
ATOM     27  C   UNL     1      36.815 -26.557 -13.889  0.00  0.00    +0.262 C 
BRANCH  27  28
ATOM     28  O   UNL     1      36.508 -26.376 -12.514  0.00  0.00    -0.329 OA
BRANCH  28  29
ATOM     29  C   UNL     1      37.441 -25.511 -11.881  0.00  0.00    +0.176 C 
BRANCH  29  30
ATOM     30  C   UNL     1      36.685 -24.476 -11.071  0.00  0.00    +0.169 C 
BRANCH  30  31
ATOM     31  O   UNL     1      35.292 -24.760 -11.139  0.00  0.00    -0.379 OA
ATOM     32  H   UNL     1      35.066 -25.055 -12.036  0.00  0.00    +0.211 HD
ENDBRANCH  30  31
ENDBRANCH  29  30
ENDBRANCH  28  29
ENDBRANCH  27  28
ENDBRANCH   3  27
TORSDOF 11
ENDMDL
MODEL 7
REMARK VINA RESULT:     -10.2      5.961     10.877
REMARK  Name = 5287741
REMARK  11 active torsions:
REMARK  status: ('A' for Active; 'I' for Inactive)
REMARK    1  A    between atoms: N_3  and  C_27
REMARK    2  A    between atoms: C_5  and  C_12
REMARK    3  A    between atoms: C_6  and  O_10
REMARK    4  A    between atoms: C_12  and  C_13
REMARK    5  A    between atoms: C_16  and  O_19
REMARK    6  A    between atoms: O_19  and  C_20
REMARK    7  A    between atoms: C_20  and  C_21
REMARK    8  A    between atoms: C_27  and  O_28
REMARK    9  A    between atoms: O_28  and  C_29
REMARK   10  A    between atoms: C_29  and  C_30
REMARK   11  A    between atoms: C_30  and  O_31
REMARK                            x       y       z     vdW  Elec       q    Type
REMARK                         _______ _______ _______ _____ _____    ______ ____
ROOT
ATOM      1  O   UNL     1      34.606 -23.911 -15.858  0.00  0.00    -0.267 OA
ATOM      2  O   UNL     1      31.507 -22.594 -12.756  0.00  0.00    -0.246 OA
ATOM      3  N   UNL     1      30.991 -22.316 -15.016  0.00  0.00    -0.225 N 
ATOM      4  N   UNL     1      33.036 -23.249 -14.320  0.00  0.00    -0.274 N 
ATOM      5  C   UNL     1      32.569 -23.002 -16.692  0.00  0.00    +0.089 A 
ATOM      6  C   UNL     1      31.381 -22.468 -16.344  0.00  0.00    +0.209 A 
ATOM      7  C   UNL     1      33.503 -23.432 -15.607  0.00  0.00    +0.262 A 
ATOM      8  C   UNL     1      31.809 -22.707 -13.946  0.00  0.00    +0.334 A 
ATOM      9  H   UNL     1      33.633 -23.532 -13.591  0.00  0.00    +0.173 HD
ENDROOT
BRANCH   6  10
ATOM     10  O   UNL     1      30.460 -22.023 -17.277  0.00  0.00    -0.493 OA
ATOM     11  H   UNL     1      29.572 -21.866 -17.019  0.00  0.00    +0.294 HD
ENDBRANCH   6  10
BRANCH   5  12
ATOM     12  C   UNL     1      33.074 -23.234 -18.089  0.00  0.00    +0.062 C 
BRANCH  12  13
ATOM     13  C   UNL     1      33.942 -22.110 -18.576  0.00  0.00    -0.014 C 
ATOM     14  C   UNL     1      33.484 -21.279 -19.592  0.00  0.00    +0.033 C 
ATOM     15  C   UNL     1      35.193 -21.911 -18.006  0.00  0.00    -0.004 C 
ATOM     16  C   UNL     1      34.291 -20.235 -20.044  0.00  0.00    +0.139 C 
ATOM     17  C   UNL     1      36.000 -20.868 -18.458  0.00  0.00    +0.003 C 
ATOM     18  C   UNL     1      35.549 -20.028 -19.477  0.00  0.00    +0.037 C 
BRANCH  16  19
ATOM     19  O   UNL     1      33.851 -19.416 -21.038  0.00  0.00    -0.471 OA
BRANCH  19  20
ATOM     20  C   UNL     1      34.797 -19.042 -22.038  0.00  0.00    +0.232 C 
BRANCH  20  21
ATOM     21  C   UNL     1      34.485 -17.652 -22.511  0.00  0.00    +0.021 C 
ATOM     22  C   UNL     1      34.030 -17.454 -23.810  0.00  0.00    -0.001 C 
ATOM     23  C   UNL     1      34.656 -16.575 -21.648  0.00  0.00    -0.001 C 
ATOM     24  C   UNL     1      33.740 -16.162 -24.251  0.00  0.00    -0.000 C 
ATOM     25  C   UNL     1      34.365 -15.284 -22.089  0.00  0.00    -0.000 C 
ATOM     26  C   UNL     1      33.908 -15.078 -23.391  0.00  0.00    -0.000 C 
ENDBRANCH  20  21
ENDBRANCH  19  20
ENDBRANCH  16  19
ENDBRANCH  12  13
ENDBRANCH   5  12
BRANCH   3  27
ATOM     27  C   UNL     1      29.682 -21.729 -14.728  0.00  0.00    +0.262 C 
BRANCH  27  28
ATOM     28  O   UNL     1      28.675 -22.664 -15.090  0.00  0.00    -0.329 OA
BRANCH  28  29
ATOM     29  C   UNL     1      27.436 -22.020 -15.353  0.00  0.00    +0.176 C 
BRANCH  29  30
ATOM     30  C   UNL     1      27.073 -22.223 -16.811  0.00  0.00    +0.169 C 
BRANCH  30  31
ATOM     31  O   UNL     1      27.190 -23.605 -17.130  0.00  0.00    -0.379 OA
ATOM     32  H   UNL     1      27.583 -24.077 -16.380  0.00  0.00    +0.211 HD
ENDBRANCH  30  31
ENDBRANCH  29  30
ENDBRANCH  28  29
ENDBRANCH  27  28
ENDBRANCH   3  27
TORSDOF 11
ENDMDL
MODEL 8
REMARK VINA RESULT:     -10.2      2.514      4.487
REMARK  Name = 5287741
REMARK  11 active torsions:
REMARK  status: ('A' for Active; 'I' for Inactive)
REMARK    1  A    between atoms: N_3  and  C_27
REMARK    2  A    between atoms: C_5  and  C_12
REMARK    3  A    between atoms: C_6  and  O_10
REMARK    4  A    between atoms: C_12  and  C_13
REMARK    5  A    between atoms: C_16  and  O_19
REMARK    6  A    between atoms: O_19  and  C_20
REMARK    7  A    between atoms: C_20  and  C_21
REMARK    8  A    between atoms: C_27  and  O_28
REMARK    9  A    between atoms: O_28  and  C_29
REMARK   10  A    between atoms: C_29  and  C_30
REMARK   11  A    between atoms: C_30  and  O_31
REMARK                            x       y       z     vdW  Elec       q    Type
REMARK                         _______ _______ _______ _____ _____    ______ ____
ROOT
ATOM      1  O   UNL     1      31.488  -9.960 -18.984  0.00  0.00    -0.267 OA
ATOM      2  O   UNL     1      32.656  -5.536 -19.139  0.00  0.00    -0.246 OA
ATOM      3  N   UNL     1      31.744  -6.502 -21.059  0.00  0.00    -0.225 N 
ATOM      4  N   UNL     1      32.061  -7.739 -19.082  0.00  0.00    -0.274 N 
ATOM      5  C   UNL     1      31.097  -8.816 -21.036  0.00  0.00    +0.089 A 
ATOM      6  C   UNL     1      31.219  -7.635 -21.675  0.00  0.00    +0.209 A 
ATOM      7  C   UNL     1      31.557  -8.909 -19.617  0.00  0.00    +0.262 A 
ATOM      8  C   UNL     1      32.186  -6.512 -19.728  0.00  0.00    +0.334 A 
ATOM      9  H   UNL     1      32.364  -7.778 -18.146  0.00  0.00    +0.173 HD
ENDROOT
BRANCH   6  10
ATOM     10  O   UNL     1      30.838  -7.457 -22.995  0.00  0.00    -0.493 OA
ATOM     11  H   UNL     1      31.049  -8.108 -23.635  0.00  0.00    +0.294 HD
ENDBRANCH   6  10
BRANCH   5  12
ATOM     12  C   UNL     1      30.521 -10.085 -21.598  0.00  0.00    +0.062 C 
BRANCH  12  13
ATOM     13  C   UNL     1      31.582 -11.009 -22.124  0.00  0.00    -0.014 C 
ATOM     14  C   UNL     1      31.742 -12.266 -21.553  0.00  0.00    +0.033 C 
ATOM     15  C   UNL     1      32.392 -10.598 -23.175  0.00  0.00    -0.004 C 
ATOM     16  C   UNL     1      32.727 -13.125 -22.042  0.00  0.00    +0.139 C 
ATOM     17  C   UNL     1      33.376 -11.456 -23.664  0.00  0.00    +0.003 C 
ATOM     18  C   UNL     1      33.544 -12.720 -23.098  0.00  0.00    +0.037 C 
BRANCH  16  19
ATOM     19  O   UNL     1      32.890 -14.358 -21.490  0.00  0.00    -0.471 OA
BRANCH  19  20
ATOM     20  C   UNL     1      34.228 -14.787 -21.245  0.00  0.00    +0.232 C 
BRANCH  20  21
ATOM     21  C   UNL     1      34.411 -16.166 -21.811  0.00  0.00    +0.021 C 
ATOM     22  C   UNL     1      34.118 -16.404 -23.150  0.00  0.00    -0.001 C 
ATOM     23  C   UNL     1      34.872 -17.191 -20.993  0.00  0.00    -0.001 C 
ATOM     24  C   UNL     1      34.288 -17.684 -23.677  0.00  0.00    -0.000 C 
ATOM     25  C   UNL     1      35.043 -18.471 -21.521  0.00  0.00    -0.000 C 
ATOM     26  C   UNL     1      34.750 -18.717 -22.863  0.00  0.00    -0.000 C 
ENDBRANCH  20  21
ENDBRANCH  19  20
ENDBRANCH  16  19
ENDBRANCH  12  13
ENDBRANCH   5  12
BRANCH   3  27
ATOM     27  C   UNL     1      31.837  -5.260 -21.826  0.00  0.00    +0.262 C 
BRANCH  27  28
ATOM     28  O   UNL     1      33.069  -5.253 -22.532  0.00  0.00    -0.329 OA
BRANCH  28  29
ATOM     29  C   UNL     1      32.896  -4.833 -23.879  0.00  0.00    +0.176 C 
BRANCH  29  30
ATOM     30  C   UNL     1      33.507  -5.869 -24.802  0.00  0.00    +0.169 C 
BRANCH  30  31
ATOM     31  O   UNL     1      33.715  -7.074 -24.075  0.00  0.00    -0.379 OA
ATOM     32  H   UNL     1      34.406  -6.934 -23.408  0.00  0.00    +0.211 HD
ENDBRANCH  30  31
ENDBRANCH  29  30
ENDBRANCH  28  29
ENDBRANCH  27  28
ENDBRANCH   3  27
TORSDOF 11
ENDMDL
MODEL 9
REMARK VINA RESULT:     -10.0      3.407      9.769
REMARK  Name = 5287741
REMARK  11 active torsions:
REMARK  status: ('A' for Active; 'I' for Inactive)
REMARK    1  A    between atoms: N_3  and  C_27
REMARK    2  A    between atoms: C_5  and  C_12
REMARK    3  A    between atoms: C_6  and  O_10
REMARK    4  A    between atoms: C_12  and  C_13
REMARK    5  A    between atoms: C_16  and  O_19
REMARK    6  A    between atoms: O_19  and  C_20
REMARK    7  A    between atoms: C_20  and  C_21
REMARK    8  A    between atoms: C_27  and  O_28
REMARK    9  A    between atoms: O_28  and  C_29
REMARK   10  A    between atoms: C_29  and  C_30
REMARK   11  A    between atoms: C_30  and  O_31
REMARK                            x       y       z     vdW  Elec       q    Type
REMARK                         _______ _______ _______ _____ _____    ______ ____
ROOT
ATOM      1  O   UNL     1      37.302 -17.920 -21.434  0.00  0.00    -0.267 OA
ATOM      2  O   UNL     1      36.031 -21.250 -18.560  0.00  0.00    -0.246 OA
ATOM      3  N   UNL     1      34.411 -20.335 -19.971  0.00  0.00    -0.225 N 
ATOM      4  N   UNL     1      36.644 -19.592 -20.006  0.00  0.00    -0.274 N 
ATOM      5  C   UNL     1      35.019 -18.594 -21.512  0.00  0.00    +0.089 A 
ATOM      6  C   UNL     1      34.099 -19.421 -20.975  0.00  0.00    +0.209 A 
ATOM      7  C   UNL     1      36.420 -18.657 -20.997  0.00  0.00    +0.262 A 
ATOM      8  C   UNL     1      35.706 -20.456 -19.447  0.00  0.00    +0.334 A 
ATOM      9  H   UNL     1      37.563 -19.653 -19.657  0.00  0.00    +0.173 HD
ENDROOT
BRANCH   6  10
ATOM     10  O   UNL     1      32.773 -19.423 -21.372  0.00  0.00    -0.493 OA
ATOM     11  H   UNL     1      32.123 -19.010 -20.837  0.00  0.00    +0.294 HD
ENDBRANCH   6  10
BRANCH   5  12
ATOM     12  C   UNL     1      34.793 -17.596 -22.613  0.00  0.00    +0.062 C 
BRANCH  12  13
ATOM     13  C   UNL     1      34.425 -16.239 -22.086  0.00  0.00    -0.014 C 
ATOM     14  C   UNL     1      34.254 -15.182 -22.971  0.00  0.00    +0.033 C 
ATOM     15  C   UNL     1      34.259 -16.055 -20.718  0.00  0.00    -0.004 C 
ATOM     16  C   UNL     1      33.911 -13.921 -22.481  0.00  0.00    +0.139 C 
ATOM     17  C   UNL     1      33.916 -14.796 -20.229  0.00  0.00    +0.003 C 
ATOM     18  C   UNL     1      33.741 -13.728 -21.109  0.00  0.00    +0.037 C 
BRANCH  16  19
ATOM     19  O   UNL     1      33.740 -12.880 -23.340  0.00  0.00    -0.471 OA
BRANCH  19  20
ATOM     20  C   UNL     1      32.398 -12.515 -23.659  0.00  0.00    +0.232 C 
BRANCH  20  21
ATOM     21  C   UNL     1      32.027 -11.287 -22.880  0.00  0.00    +0.021 C 
ATOM     22  C   UNL     1      31.242 -11.408 -21.738  0.00  0.00    -0.001 C 
ATOM     23  C   UNL     1      32.469 -10.040 -23.308  0.00  0.00    -0.001 C 
ATOM     24  C   UNL     1      30.897 -10.267 -21.014  0.00  0.00    -0.000 C 
ATOM     25  C   UNL     1      32.124  -8.899 -22.583  0.00  0.00    -0.000 C 
ATOM     26  C   UNL     1      31.337  -9.013 -21.437  0.00  0.00    -0.000 C 
ENDBRANCH  20  21
ENDBRANCH  19  20
ENDBRANCH  16  19
ENDBRANCH  12  13
ENDBRANCH   5  12
BRANCH   3  27
ATOM     27  C   UNL     1      33.351 -21.196 -19.446  0.00  0.00    +0.262 C 
BRANCH  27  28
ATOM     28  O   UNL     1      33.950 -22.293 -18.771  0.00  0.00    -0.329 OA
BRANCH  28  29
ATOM     29  C   UNL     1      33.042 -22.907 -17.866  0.00  0.00    +0.176 C 
BRANCH  29  30
ATOM     30  C   UNL     1      33.566 -22.742 -16.453  0.00  0.00    +0.169 C 
BRANCH  30  31
ATOM     31  O   UNL     1      34.989 -22.741 -16.482  0.00  0.00    -0.379 OA
ATOM     32  H   UNL     1      35.327 -22.235 -15.726  0.00  0.00    +0.211 HD
ENDBRANCH  30  31
ENDBRANCH  29  30
ENDBRANCH  28  29
ENDBRANCH  27  28
ENDBRANCH   3  27
TORSDOF 11
ENDMDL
