MODEL 1
REMARK VINA RESULT:     -12.2      0.000      0.000
REMARK  Name = 56928390
REMARK  4 active torsions:
REMARK  status: ('A' for Active; 'I' for Inactive)
REMARK    1  A    between atoms: C_3  and  C_19
REMARK    2  A    between atoms: C_4  and  C_14
REMARK    3  A    between atoms: C_19  and  N_20
REMARK    4  A    between atoms: C_19  and  C_35
REMARK                            x       y       z     vdW  Elec       q    Type
REMARK                         _______ _______ _______ _____ _____    ______ ____
ROOT
ATOM      1 CL   UNL     1      31.767 -20.629 -20.464  0.00  0.00    -0.103 Cl
ATOM      2  N   UNL     1      32.068 -22.011 -17.851  0.00  0.00    -0.405 NA
ATOM      3  C   UNL     1      33.255 -22.894 -15.943  0.00  0.00    +0.033 C 
ATOM      4  C   UNL     1      32.101 -22.654 -16.661  0.00  0.00    +0.130 C 
ATOM      5  C   UNL     1      34.451 -22.444 -16.483  0.00  0.00    +0.002 C 
ATOM      6  C   UNL     1      34.461 -21.773 -17.714  0.00  0.00    +0.027 C 
ATOM      7  C   UNL     1      33.229 -21.576 -18.373  0.00  0.00    +0.128 C 
ATOM      8  C   UNL     1      35.656 -21.305 -18.287  0.00  0.00    +0.002 C 
ATOM      9  C   UNL     1      33.241 -20.909 -19.595  0.00  0.00    +0.154 C 
ATOM     10  C   UNL     1      35.637 -20.641 -19.511  0.00  0.00    -0.003 C 
ATOM     11  C   UNL     1      34.428 -20.443 -20.165  0.00  0.00    -0.003 C 
ENDROOT
BRANCH   4  14
ATOM     12  O   UNL     1      27.632 -21.668 -15.336  0.00  0.00    -0.163 OA
ATOM     13  N   UNL     1      28.548 -22.532 -15.525  0.00  0.00    -0.127 N 
ATOM     14  C   UNL     1      30.803 -23.081 -16.188  0.00  0.00    +0.050 C 
ATOM     15  C   UNL     1      29.795 -22.147 -15.977  0.00  0.00    +0.124 C 
ATOM     16  C   UNL     1      30.551 -24.427 -15.941  0.00  0.00    +0.006 C 
ATOM     17  C   UNL     1      29.298 -24.826 -15.488  0.00  0.00    +0.022 C 
ATOM     18  C   UNL     1      28.308 -23.871 -15.285  0.00  0.00    +0.121 C 
ENDBRANCH   4  14
BRANCH   3  19
ATOM     19  C   UNL     1      33.255 -23.606 -14.635  0.00  0.00    +0.192 C 
BRANCH  19  20
ATOM     20  N   UNL     1      34.606 -23.735 -14.100  0.00  0.00    -0.308 N 
ATOM     21  N   UNL     1      35.001 -25.679 -15.318  0.00  0.00    -0.228 NA
ATOM     22  N   UNL     1      37.106 -23.822 -12.999  0.00  0.00    -0.240 NA
ATOM     23  N   UNL     1      37.121 -26.785 -15.130  0.00  0.00    -0.247 NA
ATOM     24  C   UNL     1      35.458 -24.762 -14.443  0.00  0.00    +0.145 C 
ATOM     25  C   UNL     1      36.715 -24.775 -13.869  0.00  0.00    +0.126 C 
ATOM     26  C   UNL     1      37.531 -25.844 -14.261  0.00  0.00    +0.081 C 
ATOM     27  C   UNL     1      38.804 -25.894 -13.706  0.00  0.00    +0.075 C 
ATOM     28  C   UNL     1      35.873 -26.652 -15.614  0.00  0.00    +0.252 C 
ATOM     29  C   UNL     1      38.352 -23.914 -12.488  0.00  0.00    +0.095 C 
ATOM     30  C   UNL     1      39.234 -24.925 -12.806  0.00  0.00    +0.001 C 
ATOM     31  H   UNL     1      34.923 -23.055 -13.463  0.00  0.00    +0.149 HD
ENDBRANCH  19  20
BRANCH  19  35
ATOM     32  F   UNL     1      31.268 -23.669 -13.318  0.00  0.00    -0.168 F 
ATOM     33  F   UNL     1      33.050 -22.818 -12.406  0.00  0.00    -0.168 F 
ATOM     34  F   UNL     1      31.977 -21.705 -13.947  0.00  0.00    -0.168 F 
ATOM     35  C   UNL     1      32.378 -22.938 -13.573  0.00  0.00    +0.418 C 
ENDBRANCH  19  35
ENDBRANCH   3  19
TORSDOF 4
ENDMDL
MODEL 2
REMARK VINA RESULT:     -10.6      0.835      1.735
REMARK  Name = 56928390
REMARK  4 active torsions:
REMARK  status: ('A' for Active; 'I' for Inactive)
REMARK    1  A    between atoms: C_3  and  C_19
REMARK    2  A    between atoms: C_4  and  C_14
REMARK    3  A    between atoms: C_19  and  N_20
REMARK    4  A    between atoms: C_19  and  C_35
REMARK                            x       y       z     vdW  Elec       q    Type
REMARK                         _______ _______ _______ _____ _____    ______ ____
ROOT
ATOM      1 CL   UNL     1      31.599 -20.256 -20.368  0.00  0.00    -0.103 Cl
ATOM      2  N   UNL     1      31.756 -21.893 -17.894  0.00  0.00    -0.405 NA
ATOM      3  C   UNL     1      32.845 -23.065 -16.086  0.00  0.00    +0.033 C 
ATOM      4  C   UNL     1      31.722 -22.641 -16.767  0.00  0.00    +0.130 C 
ATOM      5  C   UNL     1      34.081 -22.696 -16.596  0.00  0.00    +0.002 C 
ATOM      6  C   UNL     1      34.161 -21.921 -17.761  0.00  0.00    +0.027 C 
ATOM      7  C   UNL     1      32.956 -21.536 -18.386  0.00  0.00    +0.128 C 
ATOM      8  C   UNL     1      35.397 -21.530 -18.302  0.00  0.00    +0.002 C 
ATOM      9  C   UNL     1      33.036 -20.767 -19.544  0.00  0.00    +0.154 C 
ATOM     10  C   UNL     1      35.448 -20.760 -19.461  0.00  0.00    -0.003 C 
ATOM     11  C   UNL     1      34.265 -20.378 -20.082  0.00  0.00    -0.003 C 
ENDROOT
BRANCH   4  14
ATOM     12  O   UNL     1      27.247 -21.360 -15.750  0.00  0.00    -0.163 OA
ATOM     13  N   UNL     1      28.131 -22.274 -15.818  0.00  0.00    -0.127 N 
ATOM     14  C   UNL     1      30.387 -22.971 -16.321  0.00  0.00    +0.050 C 
ATOM     15  C   UNL     1      29.413 -21.982 -16.241  0.00  0.00    +0.124 C 
ATOM     16  C   UNL     1      30.065 -24.278 -15.967  0.00  0.00    +0.006 C 
ATOM     17  C   UNL     1      28.777 -24.583 -15.541  0.00  0.00    +0.022 C 
ATOM     18  C   UNL     1      27.822 -23.575 -15.471  0.00  0.00    +0.121 C 
ENDBRANCH   4  14
BRANCH   3  19
ATOM     19  C   UNL     1      32.772 -23.889 -14.847  0.00  0.00    +0.192 C 
BRANCH  19  20
ATOM     20  N   UNL     1      34.033 -24.573 -14.588  0.00  0.00    -0.308 N 
ATOM     21  N   UNL     1      35.148 -22.566 -14.200  0.00  0.00    -0.228 NA
ATOM     22  N   UNL     1      36.309 -26.017 -14.134  0.00  0.00    -0.240 NA
ATOM     23  N   UNL     1      37.481 -22.594 -13.645  0.00  0.00    -0.247 NA
ATOM     24  C   UNL     1      35.199 -23.911 -14.271  0.00  0.00    +0.145 C 
ATOM     25  C   UNL     1      36.331 -24.671 -14.046  0.00  0.00    +0.126 C 
ATOM     26  C   UNL     1      37.480 -23.937 -13.728  0.00  0.00    +0.081 C 
ATOM     27  C   UNL     1      38.642 -24.665 -13.494  0.00  0.00    +0.075 C 
ATOM     28  C   UNL     1      36.309 -21.979 -13.888  0.00  0.00    +0.252 C 
ATOM     29  C   UNL     1      37.462 -26.678 -13.899  0.00  0.00    +0.095 C 
ATOM     30  C   UNL     1      38.648 -26.052 -13.578  0.00  0.00    +0.001 C 
ATOM     31  H   UNL     1      34.051 -25.556 -14.643  0.00  0.00    +0.149 HD
ENDBRANCH  19  20
BRANCH  19  35
ATOM     32  F   UNL     1      32.334 -21.761 -13.863  0.00  0.00    -0.168 F 
ATOM     33  F   UNL     1      31.173 -23.456 -13.147  0.00  0.00    -0.168 F 
ATOM     34  F   UNL     1      33.276 -23.262 -12.594  0.00  0.00    -0.168 F 
ATOM     35  C   UNL     1      32.393 -23.087 -13.599  0.00  0.00    +0.418 C 
ENDBRANCH  19  35
ENDBRANCH   3  19
TORSDOF 4
ENDMDL
MODEL 3
REMARK VINA RESULT:      -9.3      1.203      1.730
REMARK  Name = 56928390
REMARK  4 active torsions:
REMARK  status: ('A' for Active; 'I' for Inactive)
REMARK    1  A    between atoms: C_3  and  C_19
REMARK    2  A    between atoms: C_4  and  C_14
REMARK    3  A    between atoms: C_19  and  N_20
REMARK    4  A    between atoms: C_19  and  C_35
REMARK                            x       y       z     vdW  Elec       q    Type
REMARK                         _______ _______ _______ _____ _____    ______ ____
ROOT
ATOM      1 CL   UNL     1      31.558 -20.250 -20.564  0.00  0.00    -0.103 Cl
ATOM      2  N   UNL     1      32.385 -21.732 -18.125  0.00  0.00    -0.405 NA
ATOM      3  C   UNL     1      33.935 -22.645 -16.515  0.00  0.00    +0.033 C 
ATOM      4  C   UNL     1      32.660 -22.425 -16.997  0.00  0.00    +0.130 C 
ATOM      5  C   UNL     1      34.994 -22.119 -17.241  0.00  0.00    +0.002 C 
ATOM      6  C   UNL     1      34.753 -21.394 -18.416  0.00  0.00    +0.027 C 
ATOM      7  C   UNL     1      33.414 -21.222 -18.827  0.00  0.00    +0.128 C 
ATOM      8  C   UNL     1      35.803 -20.849 -19.173  0.00  0.00    +0.002 C 
ATOM      9  C   UNL     1      33.175 -20.502 -19.995  0.00  0.00    +0.154 C 
ATOM     10  C   UNL     1      35.535 -20.132 -20.336  0.00  0.00    -0.003 C 
ATOM     11  C   UNL     1      34.220 -19.959 -20.748  0.00  0.00    -0.003 C 
ENDROOT
BRANCH   4  14
ATOM     12  O   UNL     1      28.179 -21.870 -15.476  0.00  0.00    -0.163 OA
ATOM     13  N   UNL     1      29.217 -22.602 -15.566  0.00  0.00    -0.127 N 
ATOM     14  C   UNL     1      31.488 -22.929 -16.317  0.00  0.00    +0.050 C 
ATOM     15  C   UNL     1      30.348 -22.140 -16.211  0.00  0.00    +0.124 C 
ATOM     16  C   UNL     1      31.489 -24.206 -15.764  0.00  0.00    +0.006 C 
ATOM     17  C   UNL     1      30.355 -24.681 -15.114  0.00  0.00    +0.022 C 
ATOM     18  C   UNL     1      29.229 -23.871 -15.023  0.00  0.00    +0.121 C 
ENDBRANCH   4  14
BRANCH   3  19
ATOM     19  C   UNL     1      34.202 -23.414 -15.268  0.00  0.00    +0.192 C 
BRANCH  19  20
ATOM     20  N   UNL     1      35.598 -23.826 -15.186  0.00  0.00    -0.308 N 
ATOM     21  N   UNL     1      35.341 -24.585 -13.000  0.00  0.00    -0.228 NA
ATOM     22  N   UNL     1      38.238 -24.537 -15.207  0.00  0.00    -0.240 NA
ATOM     23  N   UNL     1      37.217 -25.536 -11.848  0.00  0.00    -0.247 NA
ATOM     24  C   UNL     1      36.150 -24.402 -14.063  0.00  0.00    +0.145 C 
ATOM     25  C   UNL     1      37.487 -24.750 -14.107  0.00  0.00    +0.126 C 
ATOM     26  C   UNL     1      37.983 -25.332 -12.934  0.00  0.00    +0.081 C 
ATOM     27  C   UNL     1      39.325 -25.697 -12.938  0.00  0.00    +0.075 C 
ATOM     28  C   UNL     1      35.932 -25.150 -11.939  0.00  0.00    +0.252 C 
ATOM     29  C   UNL     1      39.534 -24.909 -15.161  0.00  0.00    +0.095 C 
ATOM     30  C   UNL     1      40.123 -25.489 -14.057  0.00  0.00    +0.001 C 
ATOM     31  H   UNL     1      36.174 -23.685 -15.972  0.00  0.00    +0.149 HD
ENDBRANCH  19  20
BRANCH  19  35
ATOM     32  F   UNL     1      34.955 -22.157 -13.386  0.00  0.00    -0.168 F 
ATOM     33  F   UNL     1      33.049 -21.595 -14.270  0.00  0.00    -0.168 F 
ATOM     34  F   UNL     1      33.208 -23.427 -13.092  0.00  0.00    -0.168 F 
ATOM     35  C   UNL     1      33.849 -22.649 -13.989  0.00  0.00    +0.418 C 
ENDBRANCH  19  35
ENDBRANCH   3  19
TORSDOF 4
ENDMDL
