MODEL 1
REMARK VINA RESULT:     -11.2      0.000      0.000
REMARK  Name = 25190761
REMARK  7 active torsions:
REMARK  status: ('A' for Active; 'I' for Inactive)
REMARK    1  A    between atoms: N_2  and  CA_17
REMARK    2  A    between atoms: N_6  and  C_23
REMARK    3  A    between atoms: C_7  and  C_14
REMARK    4  A    between atoms: CA_17  and  C_18
REMARK    5  A    between atoms: CA_17  and  C_20
REMARK    6  A    between atoms: C_20  and  O_21
REMARK    7  A    between atoms: C_23  and  C_24
REMARK                            x       y       z     vdW  Elec       q    Type
REMARK                         _______ _______ _______ _____ _____    ______ ____
ROOT
ATOM      1  N   UNL     1      33.047 -22.320 -17.061  0.00  0.00    -0.124 N 
ATOM      2  N   UNL     1      36.278 -23.444 -14.981  0.00  0.00    -0.258 N 
ATOM      3  N   UNL     1      33.967 -23.384 -15.176  0.00  0.00    -0.315 NA
ATOM      4  N   UNL     1      31.896 -21.993 -17.674  0.00  0.00    -0.171 NA
ATOM      5  N   UNL     1      35.327 -22.382 -16.864  0.00  0.00    -0.295 NA
ATOM      6  N   UNL     1      34.360 -21.319 -18.750  0.00  0.00    -0.290 N 
ATOM      7  C   UNL     1      31.524 -23.124 -15.721  0.00  0.00    +0.113 C 
ATOM      8  C   UNL     1      32.884 -22.998 -15.888  0.00  0.00    +0.205 C 
ATOM      9  C   UNL     1      35.146 -23.074 -15.668  0.00  0.00    +0.203 C 
ATOM     10  C   UNL     1      34.298 -22.002 -17.565  0.00  0.00    +0.276 C 
ATOM     11  C   UNL     1      30.967 -22.488 -16.849  0.00  0.00    +0.100 C 
ATOM     12  H   UNL     1      37.159 -23.209 -15.354  0.00  0.00    +0.160 HD
ATOM     13  H   UNL     1      33.520 -21.077 -19.202  0.00  0.00    +0.151 HD
ENDROOT
BRANCH   7  14
ATOM     14  C   UNL     1      30.808 -23.777 -14.615  0.00  0.00    +0.014 C 
ATOM     15  C   UNL     1      29.368 -24.205 -14.990  0.00  0.00    +0.001 C 
ATOM     16  C   UNL     1      30.759 -22.916 -13.328  0.00  0.00    +0.001 C 
ENDBRANCH   7  14
BRANCH   2  17
ATOM     17  CA  UNL     1      36.218 -24.157 -13.746  0.00  0.00    +0.109 C 
BRANCH  17  18
ATOM     18  C   UNL     1      37.195 -23.536 -12.740  0.00  0.00    +0.023 C 
ATOM     19  C   UNL     1      36.490 -22.752 -11.641  0.00  0.00    +0.002 C 
ENDBRANCH  17  18
BRANCH  17  20
ATOM     20  C   UNL     1      36.563 -25.623 -14.007  0.00  0.00    +0.157 C 
BRANCH  20  21
ATOM     21  O   UNL     1      35.460 -26.262 -14.640  0.00  0.00    -0.380 OA
ATOM     22  H   UNL     1      34.641 -25.794 -14.414  0.00  0.00    +0.211 HD
ENDBRANCH  20  21
ENDBRANCH  17  20
ENDBRANCH   2  17
BRANCH   6  23
ATOM     23  C   UNL     1      35.603 -20.943 -19.352  0.00  0.00    +0.117 C 
BRANCH  23  24
ATOM     24  C   UNL     1      35.383 -19.882 -20.394  0.00  0.00    -0.003 C 
ATOM     25  C   UNL     1      34.165 -19.809 -21.070  0.00  0.00    -0.003 C 
ATOM     26  C   UNL     1      36.398 -18.970 -20.685  0.00  0.00    -0.003 C 
ATOM     27  C   UNL     1      33.961 -18.823 -22.036  0.00  0.00    -0.000 C 
ATOM     28  C   UNL     1      36.194 -17.985 -21.652  0.00  0.00    -0.000 C 
ATOM     29  C   UNL     1      34.976 -17.911 -22.326  0.00  0.00    -0.000 C 
ENDBRANCH  23  24
ENDBRANCH   6  23
TORSDOF 7
ENDMDL
MODEL 2
REMARK VINA RESULT:     -10.9      1.477      4.548
REMARK  Name = 25190761
REMARK  7 active torsions:
REMARK  status: ('A' for Active; 'I' for Inactive)
REMARK    1  A    between atoms: N_2  and  CA_17
REMARK    2  A    between atoms: N_6  and  C_23
REMARK    3  A    between atoms: C_7  and  C_14
REMARK    4  A    between atoms: CA_17  and  C_18
REMARK    5  A    between atoms: CA_17  and  C_20
REMARK    6  A    between atoms: C_20  and  O_21
REMARK    7  A    between atoms: C_23  and  C_24
REMARK                            x       y       z     vdW  Elec       q    Type
REMARK                         _______ _______ _______ _____ _____    ______ ____
ROOT
ATOM      1  N   UNL     1      35.385 -22.389 -16.346  0.00  0.00    -0.124 N 
ATOM      2  N   UNL     1      31.548 -23.264 -15.611  0.00  0.00    -0.258 N 
ATOM      3  N   UNL     1      33.758 -23.288 -14.905  0.00  0.00    -0.315 NA
ATOM      4  N   UNL     1      36.700 -22.142 -16.486  0.00  0.00    -0.171 NA
ATOM      5  N   UNL     1      33.203 -22.368 -17.038  0.00  0.00    -0.295 NA
ATOM      6  N   UNL     1      34.874 -21.472 -18.461  0.00  0.00    -0.290 N 
ATOM      7  C   UNL     1      36.235 -23.144 -14.484  0.00  0.00    +0.113 C 
ATOM      8  C   UNL     1      35.051 -22.987 -15.166  0.00  0.00    +0.205 C 
ATOM      9  C   UNL     1      32.876 -22.979 -15.829  0.00  0.00    +0.203 C 
ATOM     10  C   UNL     1      34.441 -22.070 -17.309  0.00  0.00    +0.276 C 
ATOM     11  C   UNL     1      37.215 -22.606 -15.343  0.00  0.00    +0.100 C 
ATOM     12  H   UNL     1      30.891 -23.030 -16.306  0.00  0.00    +0.160 HD
ATOM     13  H   UNL     1      35.835 -21.288 -18.569  0.00  0.00    +0.151 HD
ENDROOT
BRANCH   7  14
ATOM     14  C   UNL     1      36.437 -23.738 -13.153  0.00  0.00    +0.014 C 
ATOM     15  C   UNL     1      36.099 -22.767 -11.995  0.00  0.00    +0.001 C 
ATOM     16  C   UNL     1      37.868 -24.292 -12.943  0.00  0.00    +0.001 C 
ENDBRANCH   7  14
BRANCH   2  17
ATOM     17  CA  UNL     1      31.092 -23.887 -14.411  0.00  0.00    +0.109 C 
BRANCH  17  18
ATOM     18  C   UNL     1      29.889 -24.787 -14.717  0.00  0.00    +0.023 C 
ATOM     19  C   UNL     1      28.668 -24.001 -15.175  0.00  0.00    +0.002 C 
ENDBRANCH  17  18
BRANCH  17  20
ATOM     20  C   UNL     1      30.716 -22.800 -13.404  0.00  0.00    +0.157 C 
BRANCH  20  21
ATOM     21  O   UNL     1      31.809 -22.577 -12.520  0.00  0.00    -0.380 OA
ATOM     22  H   UNL     1      31.482 -22.524 -11.608  0.00  0.00    +0.211 HD
ENDBRANCH  20  21
ENDBRANCH  17  20
ENDBRANCH   2  17
BRANCH   6  23
ATOM     23  C   UNL     1      33.978 -21.104 -19.516  0.00  0.00    +0.117 C 
BRANCH  23  24
ATOM     24  C   UNL     1      34.591 -20.036 -20.378  0.00  0.00    -0.003 C 
ATOM     25  C   UNL     1      35.909 -19.634 -20.160  0.00  0.00    -0.003 C 
ATOM     26  C   UNL     1      33.841 -19.446 -21.396  0.00  0.00    -0.003 C 
ATOM     27  C   UNL     1      36.478 -18.643 -20.962  0.00  0.00    -0.000 C 
ATOM     28  C   UNL     1      34.409 -18.455 -22.196  0.00  0.00    -0.000 C 
ATOM     29  C   UNL     1      35.727 -18.054 -21.979  0.00  0.00    -0.000 C 
ENDBRANCH  23  24
ENDBRANCH   6  23
TORSDOF 7
ENDMDL
MODEL 3
REMARK VINA RESULT:     -10.7      2.264      4.641
REMARK  Name = 25190761
REMARK  7 active torsions:
REMARK  status: ('A' for Active; 'I' for Inactive)
REMARK    1  A    between atoms: N_2  and  CA_17
REMARK    2  A    between atoms: N_6  and  C_23
REMARK    3  A    between atoms: C_7  and  C_14
REMARK    4  A    between atoms: CA_17  and  C_18
REMARK    5  A    between atoms: CA_17  and  C_20
REMARK    6  A    between atoms: C_20  and  O_21
REMARK    7  A    between atoms: C_23  and  C_24
REMARK                            x       y       z     vdW  Elec       q    Type
REMARK                         _______ _______ _______ _____ _____    ______ ____
ROOT
ATOM      1  N   UNL     1      33.822 -22.372 -16.846  0.00  0.00    -0.124 N 
ATOM      2  N   UNL     1      29.819 -22.379 -16.836  0.00  0.00    -0.258 N 
ATOM      3  N   UNL     1      31.806 -22.922 -15.767  0.00  0.00    -0.315 NA
ATOM      4  N   UNL     1      35.162 -22.424 -16.743  0.00  0.00    -0.171 NA
ATOM      5  N   UNL     1      31.859 -21.839 -17.896  0.00  0.00    -0.295 NA
ATOM      6  N   UNL     1      33.914 -21.302 -18.949  0.00  0.00    -0.290 N 
ATOM      7  C   UNL     1      34.136 -23.352 -14.922  0.00  0.00    +0.113 C 
ATOM      8  C   UNL     1      33.158 -22.913 -15.784  0.00  0.00    +0.205 C 
ATOM      9  C   UNL     1      31.193 -22.395 -16.805  0.00  0.00    +0.203 C 
ATOM     10  C   UNL     1      33.160 -21.820 -17.931  0.00  0.00    +0.276 C 
ATOM     11  C   UNL     1      35.348 -23.025 -15.563  0.00  0.00    +0.100 C 
ATOM     12  H   UNL     1      29.365 -21.983 -17.616  0.00  0.00    +0.160 HD
ATOM     13  H   UNL     1      34.895 -21.338 -18.879  0.00  0.00    +0.151 HD
ENDROOT
BRANCH   7  14
ATOM     14  C   UNL     1      33.960 -24.014 -13.620  0.00  0.00    +0.014 C 
ATOM     15  C   UNL     1      32.526 -23.872 -13.054  0.00  0.00    +0.001 C 
ATOM     16  C   UNL     1      34.973 -23.536 -12.551  0.00  0.00    +0.001 C 
ENDBRANCH   7  14
BRANCH   2  17
ATOM     17  CA  UNL     1      29.029 -22.917 -15.777  0.00  0.00    +0.109 C 
BRANCH  17  18
ATOM     18  C   UNL     1      29.185 -24.442 -15.734  0.00  0.00    +0.023 C 
ATOM     19  C   UNL     1      29.184 -24.995 -14.315  0.00  0.00    +0.002 C 
ENDBRANCH  17  18
BRANCH  17  20
ATOM     20  C   UNL     1      27.569 -22.525 -16.004  0.00  0.00    +0.157 C 
BRANCH  20  21
ATOM     21  O   UNL     1      27.092 -23.150 -17.190  0.00  0.00    -0.380 OA
ATOM     22  H   UNL     1      26.886 -24.080 -17.006  0.00  0.00    +0.211 HD
ENDBRANCH  20  21
ENDBRANCH  17  20
ENDBRANCH   2  17
BRANCH   6  23
ATOM     23  C   UNL     1      33.326 -20.712 -20.113  0.00  0.00    +0.117 C 
BRANCH  23  24
ATOM     24  C   UNL     1      34.297 -19.776 -20.776  0.00  0.00    -0.003 C 
ATOM     25  C   UNL     1      33.920 -19.075 -21.922  0.00  0.00    -0.003 C 
ATOM     26  C   UNL     1      35.577 -19.608 -20.245  0.00  0.00    -0.003 C 
ATOM     27  C   UNL     1      34.822 -18.206 -22.537  0.00  0.00    -0.000 C 
ATOM     28  C   UNL     1      36.479 -18.739 -20.861  0.00  0.00    -0.000 C 
ATOM     29  C   UNL     1      36.101 -18.038 -22.006  0.00  0.00    -0.000 C 
ENDBRANCH  23  24
ENDBRANCH   6  23
TORSDOF 7
ENDMDL
MODEL 4
REMARK VINA RESULT:      -9.0      2.459      6.538
REMARK  Name = 25190761
REMARK  7 active torsions:
REMARK  status: ('A' for Active; 'I' for Inactive)
REMARK    1  A    between atoms: N_2  and  CA_17
REMARK    2  A    between atoms: N_6  and  C_23
REMARK    3  A    between atoms: C_7  and  C_14
REMARK    4  A    between atoms: CA_17  and  C_18
REMARK    5  A    between atoms: CA_17  and  C_20
REMARK    6  A    between atoms: C_20  and  O_21
REMARK    7  A    between atoms: C_23  and  C_24
REMARK                            x       y       z     vdW  Elec       q    Type
REMARK                         _______ _______ _______ _____ _____    ______ ____
ROOT
ATOM      1  N   UNL     1      33.043 -23.340 -14.021  0.00  0.00    -0.124 N 
ATOM      2  N   UNL     1      34.393 -22.105 -17.582  0.00  0.00    -0.258 N 
ATOM      3  N   UNL     1      32.652 -22.962 -16.310  0.00  0.00    -0.315 NA
ATOM      4  N   UNL     1      32.485 -23.778 -12.878  0.00  0.00    -0.171 NA
ATOM      5  N   UNL     1      34.757 -22.495 -15.282  0.00  0.00    -0.295 NA
ATOM      6  N   UNL     1      35.109 -22.890 -12.971  0.00  0.00    -0.290 N 
ATOM      7  C   UNL     1      31.017 -23.877 -14.629  0.00  0.00    +0.113 C 
ATOM      8  C   UNL     1      32.210 -23.377 -15.101  0.00  0.00    +0.205 C 
ATOM      9  C   UNL     1      33.895 -22.537 -16.376  0.00  0.00    +0.203 C 
ATOM     10  C   UNL     1      34.350 -22.889 -14.109  0.00  0.00    +0.276 C 
ATOM     11  C   UNL     1      31.245 -24.105 -13.257  0.00  0.00    +0.100 C 
ATOM     12  H   UNL     1      35.324 -21.788 -17.626  0.00  0.00    +0.160 HD
ATOM     13  H   UNL     1      34.706 -23.210 -12.132  0.00  0.00    +0.151 HD
ENDROOT
BRANCH   7  14
ATOM     14  C   UNL     1      29.779 -24.118 -15.386  0.00  0.00    +0.014 C 
ATOM     15  C   UNL     1      29.135 -22.820 -15.930  0.00  0.00    +0.001 C 
ATOM     16  C   UNL     1      28.717 -24.908 -14.581  0.00  0.00    +0.001 C 
ENDBRANCH   7  14
BRANCH   2  17
ATOM     17  CA  UNL     1      33.605 -22.101 -18.772  0.00  0.00    +0.109 C 
BRANCH  17  18
ATOM     18  C   UNL     1      34.469 -21.680 -19.967  0.00  0.00    +0.023 C 
ATOM     19  C   UNL     1      35.633 -20.783 -19.564  0.00  0.00    +0.002 C 
ENDBRANCH  17  18
BRANCH  17  20
ATOM     20  C   UNL     1      32.432 -21.139 -18.581  0.00  0.00    +0.157 C 
BRANCH  20  21
ATOM     21  O   UNL     1      31.971 -20.699 -19.854  0.00  0.00    -0.380 OA
ATOM     22  H   UNL     1      31.611 -21.454 -20.346  0.00  0.00    +0.211 HD
ENDBRANCH  20  21
ENDBRANCH  17  20
ENDBRANCH   2  17
BRANCH   6  23
ATOM     23  C   UNL     1      36.470 -22.445 -12.957  0.00  0.00    +0.117 C 
BRANCH  23  24
ATOM     24  C   UNL     1      37.394 -23.562 -13.353  0.00  0.00    -0.003 C 
ATOM     25  C   UNL     1      38.054 -23.520 -14.581  0.00  0.00    -0.003 C 
ATOM     26  C   UNL     1      37.591 -24.642 -12.491  0.00  0.00    -0.003 C 
ATOM     27  C   UNL     1      38.912 -24.557 -14.948  0.00  0.00    -0.000 C 
ATOM     28  C   UNL     1      38.449 -25.679 -12.859  0.00  0.00    -0.000 C 
ATOM     29  C   UNL     1      39.109 -25.636 -14.086  0.00  0.00    -0.000 C 
ENDBRANCH  23  24
ENDBRANCH   6  23
TORSDOF 7
ENDMDL
MODEL 5
REMARK VINA RESULT:      -8.9      2.872      6.221
REMARK  Name = 25190761
REMARK  7 active torsions:
REMARK  status: ('A' for Active; 'I' for Inactive)
REMARK    1  A    between atoms: N_2  and  CA_17
REMARK    2  A    between atoms: N_6  and  C_23
REMARK    3  A    between atoms: C_7  and  C_14
REMARK    4  A    between atoms: CA_17  and  C_18
REMARK    5  A    between atoms: CA_17  and  C_20
REMARK    6  A    between atoms: C_20  and  O_21
REMARK    7  A    between atoms: C_23  and  C_24
REMARK                            x       y       z     vdW  Elec       q    Type
REMARK                         _______ _______ _______ _____ _____    ______ ____
ROOT
ATOM      1  N   UNL     1      33.569 -22.771 -16.133  0.00  0.00    -0.124 N 
ATOM      2  N   UNL     1      34.488 -24.077 -12.461  0.00  0.00    -0.258 N 
ATOM      3  N   UNL     1      35.179 -23.097 -14.448  0.00  0.00    -0.315 NA
ATOM      4  N   UNL     1      33.375 -22.302 -17.378  0.00  0.00    -0.171 NA
ATOM      5  N   UNL     1      32.894 -23.738 -14.170  0.00  0.00    -0.295 NA
ATOM      6  N   UNL     1      31.304 -23.391 -15.894  0.00  0.00    -0.290 N 
ATOM      7  C   UNL     1      35.553 -22.075 -16.717  0.00  0.00    +0.113 C 
ATOM      8  C   UNL     1      34.854 -22.661 -15.686  0.00  0.00    +0.205 C 
ATOM      9  C   UNL     1      34.210 -23.619 -13.727  0.00  0.00    +0.203 C 
ATOM     10  C   UNL     1      32.561 -23.323 -15.358  0.00  0.00    +0.276 C 
ATOM     11  C   UNL     1      34.593 -21.877 -17.730  0.00  0.00    +0.100 C 
ATOM     12  H   UNL     1      33.760 -24.466 -11.926  0.00  0.00    +0.160 HD
ATOM     13  H   UNL     1      31.156 -23.049 -16.804  0.00  0.00    +0.151 HD
ENDROOT
BRANCH   7  14
ATOM     14  C   UNL     1      36.983 -21.730 -16.756  0.00  0.00    +0.014 C 
ATOM     15  C   UNL     1      37.831 -22.537 -15.742  0.00  0.00    +0.001 C 
ATOM     16  C   UNL     1      37.251 -20.220 -16.547  0.00  0.00    +0.001 C 
ENDBRANCH   7  14
BRANCH   2  17
ATOM     17  CA  UNL     1      35.799 -24.007 -11.899  0.00  0.00    +0.109 C 
BRANCH  17  18
ATOM     18  C   UNL     1      36.526 -25.341 -12.107  0.00  0.00    +0.023 C 
ATOM     19  C   UNL     1      37.899 -25.170 -12.742  0.00  0.00    +0.002 C 
ENDBRANCH  17  18
BRANCH  17  20
ATOM     20  C   UNL     1      35.678 -23.679 -10.411  0.00  0.00    +0.157 C 
BRANCH  20  21
ATOM     21  O   UNL     1      34.947 -24.710  -9.758  0.00  0.00    -0.380 OA
ATOM     22  H   UNL     1      35.382 -25.564  -9.912  0.00  0.00    +0.211 HD
ENDBRANCH  20  21
ENDBRANCH  17  20
ENDBRANCH   2  17
BRANCH   6  23
ATOM     23  C   UNL     1      30.195 -23.944 -15.175  0.00  0.00    +0.117 C 
BRANCH  23  24
ATOM     24  C   UNL     1      28.922 -23.237 -15.547  0.00  0.00    -0.003 C 
ATOM     25  C   UNL     1      28.242 -23.590 -16.712  0.00  0.00    -0.003 C 
ATOM     26  C   UNL     1      28.421 -22.226 -14.726  0.00  0.00    -0.003 C 
ATOM     27  C   UNL     1      27.059 -22.934 -17.056  0.00  0.00    -0.000 C 
ATOM     28  C   UNL     1      27.239 -21.569 -15.071  0.00  0.00    -0.000 C 
ATOM     29  C   UNL     1      26.559 -21.924 -16.235  0.00  0.00    -0.000 C 
ENDBRANCH  23  24
ENDBRANCH   6  23
TORSDOF 7
ENDMDL
MODEL 6
REMARK VINA RESULT:      -8.7      2.316      7.296
REMARK  Name = 25190761
REMARK  7 active torsions:
REMARK  status: ('A' for Active; 'I' for Inactive)
REMARK    1  A    between atoms: N_2  and  CA_17
REMARK    2  A    between atoms: N_6  and  C_23
REMARK    3  A    between atoms: C_7  and  C_14
REMARK    4  A    between atoms: CA_17  and  C_18
REMARK    5  A    between atoms: CA_17  and  C_20
REMARK    6  A    between atoms: C_20  and  O_21
REMARK    7  A    between atoms: C_23  and  C_24
REMARK                            x       y       z     vdW  Elec       q    Type
REMARK                         _______ _______ _______ _____ _____    ______ ____
ROOT
ATOM      1  N   UNL     1      34.443 -23.674 -13.633  0.00  0.00    -0.124 N 
ATOM      2  N   UNL     1      33.597 -22.225 -17.268  0.00  0.00    -0.258 N 
ATOM      3  N   UNL     1      35.090 -23.315 -15.866  0.00  0.00    -0.315 NA
ATOM      4  N   UNL     1      34.833 -24.195 -12.456  0.00  0.00    -0.171 NA
ATOM      5  N   UNL     1      32.974 -22.598 -15.021  0.00  0.00    -0.295 NA
ATOM      6  N   UNL     1      32.361 -22.979 -12.763  0.00  0.00    -0.290 N 
ATOM      7  C   UNL     1      36.435 -24.452 -14.068  0.00  0.00    +0.113 C 
ATOM      8  C   UNL     1      35.363 -23.799 -14.633  0.00  0.00    +0.205 C 
ATOM      9  C   UNL     1      33.923 -22.734 -16.033  0.00  0.00    +0.203 C 
ATOM     10  C   UNL     1      33.217 -23.058 -13.828  0.00  0.00    +0.276 C 
ATOM     11  C   UNL     1      36.053 -24.670 -12.729  0.00  0.00    +0.100 C 
ATOM     12  H   UNL     1      32.721 -21.791 -17.388  0.00  0.00    +0.160 HD
ATOM     13  H   UNL     1      32.641 -23.359 -11.899  0.00  0.00    +0.151 HD
ENDROOT
BRANCH   7  14
ATOM     14  C   UNL     1      37.698 -24.838 -14.715  0.00  0.00    +0.014 C 
ATOM     15  C   UNL     1      38.588 -25.739 -13.824  0.00  0.00    +0.001 C 
ATOM     16  C   UNL     1      38.532 -23.626 -15.197  0.00  0.00    +0.001 C 
ENDBRANCH   7  14
BRANCH   2  17
ATOM     17  CA  UNL     1      34.487 -22.305 -18.381  0.00  0.00    +0.109 C 
BRANCH  17  18
ATOM     18  C   UNL     1      35.516 -21.171 -18.308  0.00  0.00    +0.023 C 
ATOM     19  C   UNL     1      35.737 -20.489 -19.651  0.00  0.00    +0.002 C 
ENDBRANCH  17  18
BRANCH  17  20
ATOM     20  C   UNL     1      33.670 -22.216 -19.671  0.00  0.00    +0.157 C 
BRANCH  20  21
ATOM     21  O   UNL     1      32.361 -21.749 -19.368  0.00  0.00    -0.380 OA
ATOM     22  H   UNL     1      32.416 -21.015 -18.736  0.00  0.00    +0.211 HD
ENDBRANCH  20  21
ENDBRANCH  17  20
ENDBRANCH   2  17
BRANCH   6  23
ATOM     23  C   UNL     1      31.072 -22.363 -12.861  0.00  0.00    +0.117 C 
BRANCH  23  24
ATOM     24  C   UNL     1      30.176 -23.158 -13.767  0.00  0.00    -0.003 C 
ATOM     25  C   UNL     1      29.499 -22.526 -14.810  0.00  0.00    -0.003 C 
ATOM     26  C   UNL     1      30.020 -24.530 -13.565  0.00  0.00    -0.003 C 
ATOM     27  C   UNL     1      28.667 -23.265 -15.652  0.00  0.00    -0.000 C 
ATOM     28  C   UNL     1      29.187 -25.269 -14.407  0.00  0.00    -0.000 C 
ATOM     29  C   UNL     1      28.512 -24.636 -15.450  0.00  0.00    -0.000 C 
ENDBRANCH  23  24
ENDBRANCH   6  23
TORSDOF 7
ENDMDL
MODEL 7
REMARK VINA RESULT:      -8.5      2.208      6.225
REMARK  Name = 25190761
REMARK  7 active torsions:
REMARK  status: ('A' for Active; 'I' for Inactive)
REMARK    1  A    between atoms: N_2  and  CA_17
REMARK    2  A    between atoms: N_6  and  C_23
REMARK    3  A    between atoms: C_7  and  C_14
REMARK    4  A    between atoms: CA_17  and  C_18
REMARK    5  A    between atoms: CA_17  and  C_20
REMARK    6  A    between atoms: C_20  and  O_21
REMARK    7  A    between atoms: C_23  and  C_24
REMARK                            x       y       z     vdW  Elec       q    Type
REMARK                         _______ _______ _______ _____ _____    ______ ____
ROOT
ATOM      1  N   UNL     1      32.530 -22.370 -17.246  0.00  0.00    -0.124 N 
ATOM      2  N   UNL     1      33.957 -24.146 -13.954  0.00  0.00    -0.258 N 
ATOM      3  N   UNL     1      34.373 -22.987 -15.921  0.00  0.00    -0.315 NA
ATOM      4  N   UNL     1      32.164 -21.749 -18.381  0.00  0.00    -0.171 NA
ATOM      5  N   UNL     1      32.126 -23.515 -15.305  0.00  0.00    -0.295 NA
ATOM      6  N   UNL     1      30.297 -22.874 -16.670  0.00  0.00    -0.290 N 
ATOM      7  C   UNL     1      34.434 -21.734 -18.102  0.00  0.00    +0.113 C 
ATOM      8  C   UNL     1      33.877 -22.391 -17.029  0.00  0.00    +0.205 C 
ATOM      9  C   UNL     1      33.504 -23.528 -15.095  0.00  0.00    +0.203 C 
ATOM     10  C   UNL     1      31.629 -22.945 -16.365  0.00  0.00    +0.276 C 
ATOM     11  C   UNL     1      33.334 -21.361 -18.901  0.00  0.00    +0.100 C 
ATOM     12  H   UNL     1      33.302 -24.549 -13.339  0.00  0.00    +0.160 HD
ATOM     13  H   UNL     1      30.023 -22.421 -17.499  0.00  0.00    +0.151 HD
ENDROOT
BRANCH   7  14
ATOM     14  C   UNL     1      35.859 -21.474 -18.361  0.00  0.00    +0.014 C 
ATOM     15  C   UNL     1      36.613 -20.930 -17.123  0.00  0.00    +0.001 C 
ATOM     16  C   UNL     1      36.098 -20.520 -19.556  0.00  0.00    +0.001 C 
ENDBRANCH   7  14
BRANCH   2  17
ATOM     17  CA  UNL     1      35.346 -24.222 -13.632  0.00  0.00    +0.109 C 
BRANCH  17  18
ATOM     18  C   UNL     1      35.929 -22.809 -13.505  0.00  0.00    +0.023 C 
ATOM     19  C   UNL     1      36.609 -22.572 -12.164  0.00  0.00    +0.002 C 
ENDBRANCH  17  18
BRANCH  17  20
ATOM     20  C   UNL     1      36.063 -25.011 -14.728  0.00  0.00    +0.157 C 
BRANCH  20  21
ATOM     21  O   UNL     1      37.054 -24.187 -15.331  0.00  0.00    -0.380 OA
ATOM     22  H   UNL     1      36.649 -23.654 -16.032  0.00  0.00    +0.211 HD
ENDBRANCH  20  21
ENDBRANCH  17  20
ENDBRANCH   2  17
BRANCH   6  23
ATOM     23  C   UNL     1      29.287 -23.438 -15.826  0.00  0.00    +0.117 C 
BRANCH  23  24
ATOM     24  C   UNL     1      27.985 -22.708 -16.002  0.00  0.00    -0.003 C 
ATOM     25  C   UNL     1      27.286 -22.247 -14.887  0.00  0.00    -0.003 C 
ATOM     26  C   UNL     1      27.476 -22.491 -17.283  0.00  0.00    -0.003 C 
ATOM     27  C   UNL     1      26.078 -21.568 -15.051  0.00  0.00    -0.000 C 
ATOM     28  C   UNL     1      26.267 -21.813 -17.447  0.00  0.00    -0.000 C 
ATOM     29  C   UNL     1      25.570 -21.352 -16.332  0.00  0.00    -0.000 C 
ENDBRANCH  23  24
ENDBRANCH   6  23
TORSDOF 7
ENDMDL
