MODEL 1
REMARK VINA RESULT:     -11.1      0.000      0.000
REMARK  Name = 11667893
REMARK  4 active torsions:
REMARK  status: ('A' for Active; 'I' for Inactive)
REMARK    1  A    between atoms: N_2  and  C_14
REMARK    2  A    between atoms: C_3  and  C_18
REMARK    3  A    between atoms: N_23  and  C_25
REMARK    4  A    between atoms: C_25  and  C_27
REMARK                            x       y       z     vdW  Elec       q    Type
REMARK                         _______ _______ _______ _____ _____    ______ ____
ROOT
ATOM      1  O   UNL     1      36.812 -20.533 -16.166  0.00  0.00    -0.270 OA
ATOM      2  N   UNL     1      35.552 -21.888 -17.615  0.00  0.00    -0.280 N 
ATOM      3  C   UNL     1      36.269 -21.595 -16.448  0.00  0.00    +0.252 C 
ATOM      4  H   UNL     1      35.181 -22.797 -17.677  0.00  0.00    +0.155 HD
ENDROOT
BRANCH   2  14
ATOM      5  N   UNL     1      36.989 -18.794 -21.125  0.00  0.00    -0.333 N 
ATOM      6  C   UNL     1      34.770 -18.498 -22.070  0.00  0.00    +0.038 C 
ATOM      7  C   UNL     1      36.217 -17.917 -21.998  0.00  0.00    +0.091 C 
ATOM      8  C   UNL     1      34.768 -19.405 -20.863  0.00  0.00    -0.008 C 
ATOM      9  C   UNL     1      36.072 -19.520 -20.369  0.00  0.00    +0.042 C 
ATOM     10  C   UNL     1      33.723 -17.387 -21.973  0.00  0.00    +0.006 C 
ATOM     11  C   UNL     1      34.571 -19.314 -23.353  0.00  0.00    +0.006 C 
ATOM     12  C   UNL     1      33.716 -20.092 -20.278  0.00  0.00    -0.002 C 
ATOM     13  C   UNL     1      36.353 -20.356 -19.302  0.00  0.00    +0.029 C 
ATOM     14  C   UNL     1      35.299 -21.049 -18.701  0.00  0.00    +0.052 C 
ATOM     15  C   UNL     1      33.989 -20.914 -19.184  0.00  0.00    +0.014 C 
ATOM     16  H   UNL     1      37.970 -18.861 -21.079  0.00  0.00    +0.147 HD
ENDBRANCH   2  14
BRANCH   3  18
ATOM     17  N   UNL     1      35.409 -24.151 -13.836  0.00  0.00    -0.229 NA
ATOM     18  C   UNL     1      36.392 -22.715 -15.478  0.00  0.00    +0.085 C 
ATOM     19  C   UNL     1      35.327 -23.136 -14.726  0.00  0.00    +0.133 C 
ATOM     20  C   UNL     1      37.615 -23.330 -15.345  0.00  0.00    +0.009 C 
ATOM     21  C   UNL     1      37.739 -24.380 -14.440  0.00  0.00    +0.021 C 
ATOM     22  C   UNL     1      36.617 -24.747 -13.717  0.00  0.00    +0.100 C 
ATOM     23  N   UNL     1      34.074 -22.491 -14.876  0.00  0.00    -0.314 N 
ATOM     24  H   UNL     1      33.998 -21.751 -15.520  0.00  0.00    +0.149 HD
BRANCH  23  25
ATOM     25  C   UNL     1      32.919 -22.871 -14.130  0.00  0.00    +0.115 C 
BRANCH  25  27
ATOM     26  N   UNL     1      29.307 -22.308 -16.369  0.00  0.00    -0.242 NA
ATOM     27  C   UNL     1      31.654 -22.674 -14.915  0.00  0.00    +0.000 C 
ATOM     28  C   UNL     1      30.435 -22.649 -14.258  0.00  0.00    +0.018 C 
ATOM     29  C   UNL     1      31.714 -22.518 -16.289  0.00  0.00    +0.018 C 
ATOM     30  C   UNL     1      29.296 -22.464 -15.026  0.00  0.00    +0.099 C 
ATOM     31  C   UNL     1      30.519 -22.338 -16.967  0.00  0.00    +0.099 C 
ENDBRANCH  25  27
ENDBRANCH  23  25
ENDBRANCH   3  18
TORSDOF 4
ENDMDL
MODEL 2
REMARK VINA RESULT:     -11.0      1.790      4.524
REMARK  Name = 11667893
REMARK  4 active torsions:
REMARK  status: ('A' for Active; 'I' for Inactive)
REMARK    1  A    between atoms: N_2  and  C_14
REMARK    2  A    between atoms: C_3  and  C_18
REMARK    3  A    between atoms: N_23  and  C_25
REMARK    4  A    between atoms: C_25  and  C_27
REMARK                            x       y       z     vdW  Elec       q    Type
REMARK                         _______ _______ _______ _____ _____    ______ ____
ROOT
ATOM      1  O   UNL     1      33.405 -23.472 -18.574  0.00  0.00    -0.270 OA
ATOM      2  N   UNL     1      32.873 -21.225 -18.139  0.00  0.00    -0.280 N 
ATOM      3  C   UNL     1      32.955 -22.593 -17.849  0.00  0.00    +0.252 C 
ATOM      4  H   UNL     1      32.481 -20.658 -17.437  0.00  0.00    +0.155 HD
ENDROOT
BRANCH   2  14
ATOM      5  N   UNL     1      36.308 -19.339 -21.071  0.00  0.00    -0.333 N 
ATOM      6  C   UNL     1      34.751 -18.643 -22.802  0.00  0.00    +0.038 C 
ATOM      7  C   UNL     1      36.195 -18.466 -22.234  0.00  0.00    +0.091 C 
ATOM      8  C   UNL     1      34.057 -19.275 -21.620  0.00  0.00    -0.008 C 
ATOM      9  C   UNL     1      35.010 -19.639 -20.664  0.00  0.00    +0.042 C 
ATOM     10  C   UNL     1      34.143 -17.294 -23.192  0.00  0.00    +0.006 C 
ATOM     11  C   UNL     1      34.747 -19.601 -24.000  0.00  0.00    +0.006 C 
ATOM     12  C   UNL     1      32.709 -19.534 -21.425  0.00  0.00    -0.002 C 
ATOM     13  C   UNL     1      34.636 -20.305 -19.509  0.00  0.00    +0.029 C 
ATOM     14  C   UNL     1      33.279 -20.567 -19.300  0.00  0.00    +0.052 C 
ATOM     15  C   UNL     1      32.323 -20.180 -20.250  0.00  0.00    +0.014 C 
ATOM     16  H   UNL     1      37.141 -19.655 -20.654  0.00  0.00    +0.147 HD
ENDBRANCH   2  14
BRANCH   3  18
ATOM     17  N   UNL     1      32.739 -23.482 -14.209  0.00  0.00    -0.229 NA
ATOM     18  C   UNL     1      32.408 -22.998 -16.527  0.00  0.00    +0.085 C 
ATOM     19  C   UNL     1      33.208 -23.115 -15.422  0.00  0.00    +0.133 C 
ATOM     20  C   UNL     1      31.061 -23.259 -16.433  0.00  0.00    +0.009 C 
ATOM     21  C   UNL     1      30.540 -23.638 -15.200  0.00  0.00    +0.021 C 
ATOM     22  C   UNL     1      31.413 -23.735 -14.129  0.00  0.00    +0.100 C 
ATOM     23  N   UNL     1      34.595 -22.842 -15.538  0.00  0.00    -0.314 N 
ATOM     24  H   UNL     1      34.951 -22.573 -16.415  0.00  0.00    +0.149 HD
BRANCH  23  25
ATOM     25  C   UNL     1      35.492 -22.941 -14.434  0.00  0.00    +0.115 C 
BRANCH  25  27
ATOM     26  N   UNL     1      37.784 -26.561 -14.553  0.00  0.00    -0.242 NA
ATOM     27  C   UNL     1      36.296 -24.209 -14.475  0.00  0.00    +0.000 C 
ATOM     28  C   UNL     1      35.689 -25.395 -14.856  0.00  0.00    +0.018 C 
ATOM     29  C   UNL     1      37.637 -24.185 -14.134  0.00  0.00    +0.018 C 
ATOM     30  C   UNL     1      36.473 -26.537 -14.878  0.00  0.00    +0.099 C 
ATOM     31  C   UNL     1      38.335 -25.382 -14.189  0.00  0.00    +0.099 C 
ENDBRANCH  25  27
ENDBRANCH  23  25
ENDBRANCH   3  18
TORSDOF 4
ENDMDL
MODEL 3
REMARK VINA RESULT:     -10.9      2.051      7.527
REMARK  Name = 11667893
REMARK  4 active torsions:
REMARK  status: ('A' for Active; 'I' for Inactive)
REMARK    1  A    between atoms: N_2  and  C_14
REMARK    2  A    between atoms: C_3  and  C_18
REMARK    3  A    between atoms: N_23  and  C_25
REMARK    4  A    between atoms: C_25  and  C_27
REMARK                            x       y       z     vdW  Elec       q    Type
REMARK                         _______ _______ _______ _____ _____    ______ ____
ROOT
ATOM      1  O   UNL     1      32.100 -23.228 -13.171  0.00  0.00    -0.270 OA
ATOM      2  N   UNL     1      33.168 -23.330 -15.262  0.00  0.00    -0.280 N 
ATOM      3  C   UNL     1      32.082 -23.153 -14.394  0.00  0.00    +0.252 C 
ATOM      4  H   UNL     1      32.973 -23.234 -16.222  0.00  0.00    +0.155 HD
ENDROOT
BRANCH   2  14
ATOM      5  N   UNL     1      36.856 -26.467 -14.550  0.00  0.00    -0.333 N 
ATOM      6  C   UNL     1      38.498 -24.752 -14.035  0.00  0.00    +0.038 C 
ATOM      7  C   UNL     1      38.168 -26.275 -13.942  0.00  0.00    +0.091 C 
ATOM      8  C   UNL     1      37.126 -24.180 -14.293  0.00  0.00    -0.008 C 
ATOM      9  C   UNL     1      36.235 -25.221 -14.571  0.00  0.00    +0.042 C 
ATOM     10  C   UNL     1      39.114 -24.241 -12.731  0.00  0.00    +0.006 C 
ATOM     11  C   UNL     1      39.430 -24.464 -15.218  0.00  0.00    +0.006 C 
ATOM     12  C   UNL     1      36.712 -22.857 -14.314  0.00  0.00    -0.002 C 
ATOM     13  C   UNL     1      34.920 -24.955 -14.914  0.00  0.00    +0.029 C 
ATOM     14  C   UNL     1      34.491 -23.626 -14.933  0.00  0.00    +0.052 C 
ATOM     15  C   UNL     1      35.381 -22.584 -14.631  0.00  0.00    +0.014 C 
ATOM     16  H   UNL     1      36.482 -27.315 -14.882  0.00  0.00    +0.147 HD
ENDBRANCH   2  14
BRANCH   3  18
ATOM     17  N   UNL     1      29.538 -22.139 -16.961  0.00  0.00    -0.229 NA
ATOM     18  C   UNL     1      30.779 -22.873 -15.053  0.00  0.00    +0.085 C 
ATOM     19  C   UNL     1      30.708 -22.403 -16.337  0.00  0.00    +0.133 C 
ATOM     20  C   UNL     1      29.627 -23.096 -14.336  0.00  0.00    +0.009 C 
ATOM     21  C   UNL     1      28.403 -22.837 -14.944  0.00  0.00    +0.021 C 
ATOM     22  C   UNL     1      28.413 -22.363 -16.246  0.00  0.00    +0.100 C 
ATOM     23  N   UNL     1      31.907 -22.179 -17.061  0.00  0.00    -0.314 N 
ATOM     24  H   UNL     1      32.766 -22.368 -16.621  0.00  0.00    +0.149 HD
BRANCH  23  25
ATOM     25  C   UNL     1      31.915 -21.693 -18.402  0.00  0.00    +0.115 C 
BRANCH  25  27
ATOM     26  N   UNL     1      35.824 -20.428 -19.623  0.00  0.00    -0.242 NA
ATOM     27  C   UNL     1      33.285 -21.250 -18.830  0.00  0.00    +0.000 C 
ATOM     28  C   UNL     1      33.424 -20.383 -19.901  0.00  0.00    +0.018 C 
ATOM     29  C   UNL     1      34.400 -21.711 -18.151  0.00  0.00    +0.018 C 
ATOM     30  C   UNL     1      34.708 -20.004 -20.256  0.00  0.00    +0.099 C 
ATOM     31  C   UNL     1      35.642 -21.273 -18.584  0.00  0.00    +0.099 C 
ENDBRANCH  25  27
ENDBRANCH  23  25
ENDBRANCH   3  18
TORSDOF 4
ENDMDL
MODEL 4
REMARK VINA RESULT:     -10.8      1.448      2.178
REMARK  Name = 11667893
REMARK  4 active torsions:
REMARK  status: ('A' for Active; 'I' for Inactive)
REMARK    1  A    between atoms: N_2  and  C_14
REMARK    2  A    between atoms: C_3  and  C_18
REMARK    3  A    between atoms: N_23  and  C_25
REMARK    4  A    between atoms: C_25  and  C_27
REMARK                            x       y       z     vdW  Elec       q    Type
REMARK                         _______ _______ _______ _____ _____    ______ ____
ROOT
ATOM      1  O   UNL     1      36.586 -21.038 -15.518  0.00  0.00    -0.270 OA
ATOM      2  N   UNL     1      35.356 -22.473 -16.916  0.00  0.00    -0.280 N 
ATOM      3  C   UNL     1      36.069 -22.123 -15.761  0.00  0.00    +0.252 C 
ATOM      4  H   UNL     1      35.007 -23.393 -16.944  0.00  0.00    +0.155 HD
ENDROOT
BRANCH   2  14
ATOM      5  N   UNL     1      32.263 -20.314 -20.033  0.00  0.00    -0.333 N 
ATOM      6  C   UNL     1      34.001 -19.233 -21.343  0.00  0.00    +0.038 C 
ATOM      7  C   UNL     1      32.501 -19.667 -21.319  0.00  0.00    +0.091 C 
ATOM      8  C   UNL     1      34.561 -20.087 -20.232  0.00  0.00    -0.008 C 
ATOM      9  C   UNL     1      33.508 -20.684 -19.531  0.00  0.00    +0.042 C 
ATOM     10  C   UNL     1      34.640 -19.537 -22.699  0.00  0.00    +0.006 C 
ATOM     11  C   UNL     1      34.147 -17.745 -21.001  0.00  0.00    +0.006 C 
ATOM     12  C   UNL     1      35.880 -20.290 -19.856  0.00  0.00    -0.002 C 
ATOM     13  C   UNL     1      33.754 -21.464 -18.414  0.00  0.00    +0.029 C 
ATOM     14  C   UNL     1      35.080 -21.679 -18.029  0.00  0.00    +0.052 C 
ATOM     15  C   UNL     1      36.135 -21.099 -18.748  0.00  0.00    +0.014 C 
ATOM     16  H   UNL     1      31.390 -20.462 -19.604  0.00  0.00    +0.147 HD
ENDBRANCH   2  14
BRANCH   3  18
ATOM     17  N   UNL     1      35.308 -24.538 -12.991  0.00  0.00    -0.229 NA
ATOM     18  C   UNL     1      36.222 -23.205 -14.753  0.00  0.00    +0.085 C 
ATOM     19  C   UNL     1      35.197 -23.560 -13.917  0.00  0.00    +0.133 C 
ATOM     20  C   UNL     1      37.432 -23.853 -14.673  0.00  0.00    +0.009 C 
ATOM     21  C   UNL     1      37.585 -24.867 -13.733  0.00  0.00    +0.021 C 
ATOM     22  C   UNL     1      36.502 -25.168 -12.924  0.00  0.00    +0.100 C 
ATOM     23  N   UNL     1      33.956 -22.881 -14.014  0.00  0.00    -0.314 N 
ATOM     24  H   UNL     1      33.860 -22.166 -14.684  0.00  0.00    +0.149 HD
BRANCH  23  25
ATOM     25  C   UNL     1      32.842 -23.193 -13.180  0.00  0.00    +0.115 C 
BRANCH  25  27
ATOM     26  N   UNL     1      29.358 -24.191 -15.468  0.00  0.00    -0.242 NA
ATOM     27  C   UNL     1      31.621 -23.542 -13.981  0.00  0.00    +0.000 C 
ATOM     28  C   UNL     1      31.301 -22.799 -15.105  0.00  0.00    +0.018 C 
ATOM     29  C   UNL     1      30.824 -24.605 -13.591  0.00  0.00    +0.018 C 
ATOM     30  C   UNL     1      30.165 -23.162 -15.811  0.00  0.00    +0.099 C 
ATOM     31  C   UNL     1      29.709 -24.888 -14.365  0.00  0.00    +0.099 C 
ENDBRANCH  25  27
ENDBRANCH  23  25
ENDBRANCH   3  18
TORSDOF 4
ENDMDL
MODEL 5
REMARK VINA RESULT:     -10.8      1.573      1.983
REMARK  Name = 11667893
REMARK  4 active torsions:
REMARK  status: ('A' for Active; 'I' for Inactive)
REMARK    1  A    between atoms: N_2  and  C_14
REMARK    2  A    between atoms: C_3  and  C_18
REMARK    3  A    between atoms: N_23  and  C_25
REMARK    4  A    between atoms: C_25  and  C_27
REMARK                            x       y       z     vdW  Elec       q    Type
REMARK                         _______ _______ _______ _____ _____    ______ ____
ROOT
ATOM      1  O   UNL     1      33.098 -23.121 -17.763  0.00  0.00    -0.270 OA
ATOM      2  N   UNL     1      34.840 -21.563 -17.520  0.00  0.00    -0.280 N 
ATOM      3  C   UNL     1      34.019 -22.626 -17.123  0.00  0.00    +0.252 C 
ATOM      4  H   UNL     1      35.536 -21.292 -16.879  0.00  0.00    +0.155 HD
ENDROOT
BRANCH   2  14
ATOM      5  N   UNL     1      36.944 -18.960 -21.092  0.00  0.00    -0.333 N 
ATOM      6  C   UNL     1      34.899 -18.659 -22.369  0.00  0.00    +0.038 C 
ATOM      7  C   UNL     1      36.358 -18.148 -22.152  0.00  0.00    +0.091 C 
ATOM      8  C   UNL     1      34.673 -19.424 -21.087  0.00  0.00    -0.008 C 
ATOM      9  C   UNL     1      35.886 -19.548 -20.402  0.00  0.00    +0.042 C 
ATOM     10  C   UNL     1      33.925 -17.492 -22.539  0.00  0.00    +0.006 C 
ATOM     11  C   UNL     1      34.822 -19.603 -23.576  0.00  0.00    +0.006 C 
ATOM     12  C   UNL     1      33.507 -19.986 -20.590  0.00  0.00    -0.002 C 
ATOM     13  C   UNL     1      35.963 -20.273 -19.225  0.00  0.00    +0.029 C 
ATOM     14  C   UNL     1      34.793 -20.839 -18.712  0.00  0.00    +0.052 C 
ATOM     15  C   UNL     1      33.573 -20.693 -19.389  0.00  0.00    +0.014 C 
ATOM     16  H   UNL     1      37.903 -19.071 -20.900  0.00  0.00    +0.147 HD
ENDBRANCH   2  14
BRANCH   3  18
ATOM     17  N   UNL     1      33.523 -23.911 -13.632  0.00  0.00    -0.229 NA
ATOM     18  C   UNL     1      34.299 -23.178 -15.772  0.00  0.00    +0.085 C 
ATOM     19  C   UNL     1      33.298 -23.411 -14.867  0.00  0.00    +0.133 C 
ATOM     20  C   UNL     1      35.605 -23.454 -15.440  0.00  0.00    +0.009 C 
ATOM     21  C   UNL     1      35.877 -23.971 -14.177  0.00  0.00    +0.021 C 
ATOM     22  C   UNL     1      34.810 -24.178 -13.318  0.00  0.00    +0.100 C 
ATOM     23  N   UNL     1      31.957 -23.120 -15.227  0.00  0.00    -0.314 N 
ATOM     24  H   UNL     1      31.777 -22.757 -16.124  0.00  0.00    +0.149 HD
BRANCH  23  25
ATOM     25  C   UNL     1      30.860 -23.336 -14.342  0.00  0.00    +0.115 C 
BRANCH  25  27
ATOM     26  N   UNL     1      27.087 -22.884 -16.325  0.00  0.00    -0.242 NA
ATOM     27  C   UNL     1      29.538 -23.177 -15.037  0.00  0.00    +0.000 C 
ATOM     28  C   UNL     1      29.035 -24.216 -15.803  0.00  0.00    +0.018 C 
ATOM     29  C   UNL     1      28.830 -21.994 -14.906  0.00  0.00    +0.018 C 
ATOM     30  C   UNL     1      27.812 -24.020 -16.423  0.00  0.00    +0.099 C 
ATOM     31  C   UNL     1      27.615 -21.898 -15.567  0.00  0.00    +0.099 C 
ENDBRANCH  25  27
ENDBRANCH  23  25
ENDBRANCH   3  18
TORSDOF 4
ENDMDL
MODEL 6
REMARK VINA RESULT:     -10.7      2.134      7.008
REMARK  Name = 11667893
REMARK  4 active torsions:
REMARK  status: ('A' for Active; 'I' for Inactive)
REMARK    1  A    between atoms: N_2  and  C_14
REMARK    2  A    between atoms: C_3  and  C_18
REMARK    3  A    between atoms: N_23  and  C_25
REMARK    4  A    between atoms: C_25  and  C_27
REMARK                            x       y       z     vdW  Elec       q    Type
REMARK                         _______ _______ _______ _____ _____    ______ ____
ROOT
ATOM      1  O   UNL     1      36.238 -21.692 -18.346  0.00  0.00    -0.270 OA
ATOM      2  N   UNL     1      34.678 -22.324 -16.706  0.00  0.00    -0.280 N 
ATOM      3  C   UNL     1      35.090 -21.768 -17.925  0.00  0.00    +0.252 C 
ATOM      4  H   UNL     1      33.710 -22.302 -16.527  0.00  0.00    +0.155 HD
ENDROOT
BRANCH   2  14
ATOM      5  N   UNL     1      36.015 -26.099 -13.892  0.00  0.00    -0.333 N 
ATOM      6  C   UNL     1      37.813 -24.906 -12.776  0.00  0.00    +0.038 C 
ATOM      7  C   UNL     1      36.878 -26.154 -12.718  0.00  0.00    +0.091 C 
ATOM      8  C   UNL     1      37.067 -24.037 -13.759  0.00  0.00    -0.008 C 
ATOM      9  C   UNL     1      36.044 -24.785 -14.353  0.00  0.00    +0.042 C 
ATOM     10  C   UNL     1      37.950 -24.253 -11.399  0.00  0.00    +0.006 C 
ATOM     11  C   UNL     1      39.193 -25.280 -13.332  0.00  0.00    +0.006 C 
ATOM     12  C   UNL     1      37.294 -22.719 -14.120  0.00  0.00    -0.002 C 
ATOM     13  C   UNL     1      35.253 -24.237 -15.348  0.00  0.00    +0.029 C 
ATOM     14  C   UNL     1      35.470 -22.906 -15.716  0.00  0.00    +0.052 C 
ATOM     15  C   UNL     1      36.481 -22.152 -15.103  0.00  0.00    +0.014 C 
ATOM     16  H   UNL     1      35.509 -26.846 -14.284  0.00  0.00    +0.147 HD
ENDBRANCH   2  14
BRANCH   3  18
ATOM     17  N   UNL     1      31.675 -20.873 -19.199  0.00  0.00    -0.229 NA
ATOM     18  C   UNL     1      34.004 -21.195 -18.763  0.00  0.00    +0.085 C 
ATOM     19  C   UNL     1      32.683 -21.381 -18.455  0.00  0.00    +0.133 C 
ATOM     20  C   UNL     1      34.357 -20.464 -19.874  0.00  0.00    +0.009 C 
ATOM     21  C   UNL     1      33.348 -19.924 -20.664  0.00  0.00    +0.021 C 
ATOM     22  C   UNL     1      32.035 -20.155 -20.287  0.00  0.00    +0.100 C 
ATOM     23  N   UNL     1      32.338 -22.137 -17.307  0.00  0.00    -0.314 N 
ATOM     24  H   UNL     1      33.061 -22.513 -16.754  0.00  0.00    +0.149 HD
BRANCH  23  25
ATOM     25  C   UNL     1      30.986 -22.374 -16.920  0.00  0.00    +0.115 C 
BRANCH  25  27
ATOM     26  N   UNL     1      30.714 -24.049 -12.983  0.00  0.00    -0.242 NA
ATOM     27  C   UNL     1      30.891 -22.960 -15.540  0.00  0.00    +0.000 C 
ATOM     28  C   UNL     1      29.991 -23.983 -15.289  0.00  0.00    +0.018 C 
ATOM     29  C   UNL     1      31.704 -22.475 -14.530  0.00  0.00    +0.018 C 
ATOM     30  C   UNL     1      29.942 -24.490 -14.000  0.00  0.00    +0.099 C 
ATOM     31  C   UNL     1      31.578 -23.050 -13.275  0.00  0.00    +0.099 C 
ENDBRANCH  25  27
ENDBRANCH  23  25
ENDBRANCH   3  18
TORSDOF 4
ENDMDL
MODEL 7
REMARK VINA RESULT:     -10.7      1.941      4.717
REMARK  Name = 11667893
REMARK  4 active torsions:
REMARK  status: ('A' for Active; 'I' for Inactive)
REMARK    1  A    between atoms: N_2  and  C_14
REMARK    2  A    between atoms: C_3  and  C_18
REMARK    3  A    between atoms: N_23  and  C_25
REMARK    4  A    between atoms: C_25  and  C_27
REMARK                            x       y       z     vdW  Elec       q    Type
REMARK                         _______ _______ _______ _____ _____    ______ ____
ROOT
ATOM      1  O   UNL     1      33.777 -22.375 -16.097  0.00  0.00    -0.270 OA
ATOM      2  N   UNL     1      32.088 -22.021 -17.693  0.00  0.00    -0.280 N 
ATOM      3  C   UNL     1      32.632 -22.531 -16.507  0.00  0.00    +0.252 C 
ATOM      4  H   UNL     1      31.146 -22.246 -17.867  0.00  0.00    +0.155 HD
ENDROOT
BRANCH   2  14
ATOM      5  N   UNL     1      36.066 -20.391 -20.032  0.00  0.00    -0.333 N 
ATOM      6  C   UNL     1      34.838 -18.974 -21.578  0.00  0.00    +0.038 C 
ATOM      7  C   UNL     1      36.239 -19.277 -20.958  0.00  0.00    +0.091 C 
ATOM      8  C   UNL     1      33.934 -19.673 -20.592  0.00  0.00    -0.008 C 
ATOM      9  C   UNL     1      34.708 -20.459 -19.731  0.00  0.00    +0.042 C 
ATOM     10  C   UNL     1      34.580 -17.468 -21.649  0.00  0.00    +0.006 C 
ATOM     11  C   UNL     1      34.706 -19.608 -22.969  0.00  0.00    +0.006 C 
ATOM     12  C   UNL     1      32.552 -19.643 -20.488  0.00  0.00    -0.002 C 
ATOM     13  C   UNL     1      34.109 -21.261 -18.774  0.00  0.00    +0.029 C 
ATOM     14  C   UNL     1      32.717 -21.234 -18.658  0.00  0.00    +0.052 C 
ATOM     15  C   UNL     1      31.945 -20.427 -19.507  0.00  0.00    +0.014 C 
ATOM     16  H   UNL     1      36.774 -20.981 -19.686  0.00  0.00    +0.147 HD
ENDBRANCH   2  14
BRANCH   3  18
ATOM     17  N   UNL     1      31.285 -24.666 -13.729  0.00  0.00    -0.229 NA
ATOM     18  C   UNL     1      31.713 -23.367 -15.691  0.00  0.00    +0.085 C 
ATOM     19  C   UNL     1      32.099 -23.902 -14.492  0.00  0.00    +0.133 C 
ATOM     20  C   UNL     1      30.445 -23.599 -16.172  0.00  0.00    +0.009 C 
ATOM     21  C   UNL     1      29.577 -24.379 -15.416  0.00  0.00    +0.021 C 
ATOM     22  C   UNL     1      30.042 -24.885 -14.213  0.00  0.00    +0.100 C 
ATOM     23  N   UNL     1      33.410 -23.653 -14.011  0.00  0.00    -0.314 N 
ATOM     24  H   UNL     1      34.014 -23.098 -14.554  0.00  0.00    +0.149 HD
BRANCH  23  25
ATOM     25  C   UNL     1      33.886 -24.174 -12.772  0.00  0.00    +0.115 C 
BRANCH  25  27
ATOM     26  N   UNL     1      38.093 -23.522 -12.269  0.00  0.00    -0.242 NA
ATOM     27  C   UNL     1      35.360 -23.946 -12.596  0.00  0.00    +0.000 C 
ATOM     28  C   UNL     1      35.805 -22.824 -11.917  0.00  0.00    +0.018 C 
ATOM     29  C   UNL     1      36.264 -24.859 -13.113  0.00  0.00    +0.018 C 
ATOM     30  C   UNL     1      37.175 -22.659 -11.781  0.00  0.00    +0.099 C 
ATOM     31  C   UNL     1      37.613 -24.603 -12.924  0.00  0.00    +0.099 C 
ENDBRANCH  25  27
ENDBRANCH  23  25
ENDBRANCH   3  18
TORSDOF 4
ENDMDL
MODEL 8
REMARK VINA RESULT:     -10.7      2.171      6.797
REMARK  Name = 11667893
REMARK  4 active torsions:
REMARK  status: ('A' for Active; 'I' for Inactive)
REMARK    1  A    between atoms: N_2  and  C_14
REMARK    2  A    between atoms: C_3  and  C_18
REMARK    3  A    between atoms: N_23  and  C_25
REMARK    4  A    between atoms: C_25  and  C_27
REMARK                            x       y       z     vdW  Elec       q    Type
REMARK                         _______ _______ _______ _____ _____    ______ ____
ROOT
ATOM      1  O   UNL     1      34.402 -23.526 -12.578  0.00  0.00    -0.270 OA
ATOM      2  N   UNL     1      34.061 -23.843 -14.882  0.00  0.00    -0.280 N 
ATOM      3  C   UNL     1      34.822 -23.740 -13.710  0.00  0.00    +0.252 C 
ATOM      4  H   UNL     1      34.565 -24.019 -15.709  0.00  0.00    +0.155 HD
ENDROOT
BRANCH   2  14
ATOM      5  N   UNL     1      29.471 -24.925 -13.573  0.00  0.00    -0.333 N 
ATOM      6  C   UNL     1      28.432 -23.469 -15.217  0.00  0.00    +0.038 C 
ATOM      7  C   UNL     1      28.202 -24.668 -14.245  0.00  0.00    +0.091 C 
ATOM      8  C   UNL     1      29.938 -23.465 -15.311  0.00  0.00    -0.008 C 
ATOM      9  C   UNL     1      30.464 -24.330 -14.346  0.00  0.00    +0.042 C 
ATOM     10  C   UNL     1      27.758 -23.717 -16.568  0.00  0.00    +0.006 C 
ATOM     11  C   UNL     1      27.930 -22.158 -14.599  0.00  0.00    +0.006 C 
ATOM     12  C   UNL     1      30.767 -22.737 -16.150  0.00  0.00    -0.002 C 
ATOM     13  C   UNL     1      31.833 -24.453 -14.177  0.00  0.00    +0.029 C 
ATOM     14  C   UNL     1      32.678 -23.727 -15.021  0.00  0.00    +0.052 C 
ATOM     15  C   UNL     1      32.147 -22.878 -16.004  0.00  0.00    +0.014 C 
ATOM     16  H   UNL     1      29.600 -25.424 -12.735  0.00  0.00    +0.147 HD
ENDBRANCH   2  14
BRANCH   3  18
ATOM     17  N   UNL     1      38.298 -23.325 -15.062  0.00  0.00    -0.229 NA
ATOM     18  C   UNL     1      36.290 -23.883 -13.888  0.00  0.00    +0.085 C 
ATOM     19  C   UNL     1      36.964 -23.214 -14.875  0.00  0.00    +0.133 C 
ATOM     20  C   UNL     1      36.972 -24.715 -13.032  0.00  0.00    +0.009 C 
ATOM     21  C   UNL     1      38.347 -24.855 -13.191  0.00  0.00    +0.021 C 
ATOM     22  C   UNL     1      38.956 -24.145 -14.212  0.00  0.00    +0.100 C 
ATOM     23  N   UNL     1      36.245 -22.359 -15.749  0.00  0.00    -0.314 N 
ATOM     24  H   UNL     1      35.273 -22.267 -15.625  0.00  0.00    +0.149 HD
BRANCH  23  25
ATOM     25  C   UNL     1      36.875 -21.628 -16.800  0.00  0.00    +0.115 C 
BRANCH  25  27
ATOM     26  N   UNL     1      34.153 -20.746 -19.991  0.00  0.00    -0.242 NA
ATOM     27  C   UNL     1      35.922 -21.319 -17.918  0.00  0.00    +0.000 C 
ATOM     28  C   UNL     1      34.654 -21.877 -17.914  0.00  0.00    +0.018 C 
ATOM     29  C   UNL     1      36.316 -20.478 -18.945  0.00  0.00    +0.018 C 
ATOM     30  C   UNL     1      33.812 -21.561 -18.968  0.00  0.00    +0.099 C 
ATOM     31  C   UNL     1      35.400 -20.225 -19.954  0.00  0.00    +0.099 C 
ENDBRANCH  25  27
ENDBRANCH  23  25
ENDBRANCH   3  18
TORSDOF 4
ENDMDL
MODEL 9
REMARK VINA RESULT:      -9.9     11.554     15.747
REMARK  Name = 11667893
REMARK  4 active torsions:
REMARK  status: ('A' for Active; 'I' for Inactive)
REMARK    1  A    between atoms: N_2  and  C_14
REMARK    2  A    between atoms: C_3  and  C_18
REMARK    3  A    between atoms: N_23  and  C_25
REMARK    4  A    between atoms: C_25  and  C_27
REMARK                            x       y       z     vdW  Elec       q    Type
REMARK                         _______ _______ _______ _____ _____    ______ ____
ROOT
ATOM      1  O   UNL     1      34.068  -7.981 -23.555  0.00  0.00    -0.270 OA
ATOM      2  N   UNL     1      32.946  -5.953 -23.943  0.00  0.00    -0.280 N 
ATOM      3  C   UNL     1      33.292  -7.097 -23.211  0.00  0.00    +0.252 C 
ATOM      4  H   UNL     1      32.303  -5.344 -23.512  0.00  0.00    +0.155 HD
ENDROOT
BRANCH   2  14
ATOM      5  N   UNL     1      36.212  -3.844 -26.915  0.00  0.00    -0.333 N 
ATOM      6  C   UNL     1      35.011  -4.372 -28.960  0.00  0.00    +0.038 C 
ATOM      7  C   UNL     1      36.123  -3.480 -28.325  0.00  0.00    +0.091 C 
ATOM      8  C   UNL     1      34.281  -4.839 -27.725  0.00  0.00    -0.008 C 
ATOM      9  C   UNL     1      35.023  -4.493 -26.590  0.00  0.00    +0.042 C 
ATOM     10  C   UNL     1      34.119  -3.557 -29.899  0.00  0.00    +0.006 C 
ATOM     11  C   UNL     1      35.624  -5.566 -29.704  0.00  0.00    +0.006 C 
ATOM     12  C   UNL     1      33.088  -5.536 -27.616  0.00  0.00    -0.002 C 
ATOM     13  C   UNL     1      34.604  -4.872 -25.327  0.00  0.00    +0.029 C 
ATOM     14  C   UNL     1      33.399  -5.571 -25.205  0.00  0.00    +0.052 C 
ATOM     15  C   UNL     1      32.645  -5.896 -26.343  0.00  0.00    +0.014 C 
ATOM     16  H   UNL     1      36.967  -3.666 -26.310  0.00  0.00    +0.147 HD
ENDBRANCH   2  14
BRANCH   3  18
ATOM     17  N   UNL     1      31.275  -8.526 -20.387  0.00  0.00    -0.229 NA
ATOM     18  C   UNL     1      32.614  -7.242 -21.897  0.00  0.00    +0.085 C 
ATOM     19  C   UNL     1      31.902  -8.367 -21.574  0.00  0.00    +0.133 C 
ATOM     20  C   UNL     1      32.716  -6.209 -20.994  0.00  0.00    +0.009 C 
ATOM     21  C   UNL     1      32.085  -6.336 -19.761  0.00  0.00    +0.021 C 
ATOM     22  C   UNL     1      31.383  -7.504 -19.510  0.00  0.00    +0.100 C 
ATOM     23  N   UNL     1      31.808  -9.422 -22.517  0.00  0.00    -0.314 N 
ATOM     24  H   UNL     1      32.260  -9.321 -23.385  0.00  0.00    +0.149 HD
BRANCH  23  25
ATOM     25  C   UNL     1      31.085 -10.624 -22.255  0.00  0.00    +0.115 C 
BRANCH  25  27
ATOM     26  N   UNL     1      33.699 -13.974 -21.696  0.00  0.00    -0.242 NA
ATOM     27  C   UNL     1      32.000 -11.798 -22.059  0.00  0.00    +0.000 C 
ATOM     28  C   UNL     1      32.952 -12.095 -23.021  0.00  0.00    +0.018 C 
ATOM     29  C   UNL     1      31.888 -12.574 -20.919  0.00  0.00    +0.018 C 
ATOM     30  C   UNL     1      33.773 -13.188 -22.793  0.00  0.00    +0.099 C 
ATOM     31  C   UNL     1      32.756 -13.646 -20.784  0.00  0.00    +0.099 C 
ENDBRANCH  25  27
ENDBRANCH  23  25
ENDBRANCH   3  18
TORSDOF 4
ENDMDL
