MODEL 1
REMARK VINA RESULT:     -12.0      0.000      0.000
REMARK  Name = 16720766
REMARK  7 active torsions:
REMARK  status: ('A' for Active; 'I' for Inactive)
REMARK    1  A    between atoms: N_1  and  C_10
REMARK    2  A    between atoms: C_11  and  C_17
REMARK    3  A    between atoms: C_13  and  O_15
REMARK    4  A    between atoms: C_17  and  O_18
REMARK    5  A    between atoms: O_18  and  S_19
REMARK    6  A    between atoms: S_19  and  N_22
REMARK    7  A    between atoms: N_25  and  C_27
REMARK                            x       y       z     vdW  Elec       q    Type
REMARK                         _______ _______ _______ _____ _____    ______ ____
ROOT
ATOM      1  N   UNL     1      32.949 -12.443 -22.442  0.00  0.00    -0.276 N 
ATOM      2  N   UNL     1      33.077 -13.805 -24.428  0.00  0.00    -0.233 NA
ATOM      3  N   UNL     1      33.910 -16.050 -23.988  0.00  0.00    -0.233 NA
ATOM      4  C   UNL     1      33.231 -13.606 -23.106  0.00  0.00    +0.120 C 
ATOM      5  C   UNL     1      33.226 -12.600 -21.108  0.00  0.00    +0.062 C 
ATOM      6  C   UNL     1      33.699 -14.528 -22.178  0.00  0.00    +0.131 C 
ATOM      7  C   UNL     1      33.692 -13.883 -20.915  0.00  0.00    +0.004 C 
ATOM      8  C   UNL     1      34.050 -15.802 -22.654  0.00  0.00    +0.113 C 
ATOM      9  C   UNL     1      33.442 -15.055 -24.776  0.00  0.00    +0.252 C 
ATOM     10  N   UNL     1      34.525 -16.787 -21.802  0.00  0.00    -0.319 N 
ATOM     11  H   UNL     1      34.611 -16.570 -20.845  0.00  0.00    +0.148 HD
ENDROOT
BRANCH  10  12
ATOM     12  C   UNL     1      34.900 -18.110 -22.235  0.00  0.00    +0.093 C 
ATOM     13  C   UNL     1      36.426 -18.303 -22.159  0.00  0.00    +0.029 C 
ATOM     14  C   UNL     1      34.428 -19.142 -21.256  0.00  0.00    -0.008 C 
ATOM     15  C   UNL     1      36.741 -18.837 -20.751  0.00  0.00    +0.028 C 
ATOM     16  C   UNL     1      35.473 -19.559 -20.422  0.00  0.00    -0.025 C 
ATOM     17  C   UNL     1      33.148 -19.653 -21.106  0.00  0.00    -0.003 C 
ATOM     18  C   UNL     1      35.258 -20.487 -19.417  0.00  0.00    -0.005 C 
ATOM     19  C   UNL     1      32.926 -20.599 -20.103  0.00  0.00    -0.000 C 
ATOM     20  C   UNL     1      33.973 -21.012 -19.264  0.00  0.00    -0.000 C 
ENDBRANCH  10  12
BRANCH   1  21
ATOM     21  C   UNL     1      32.434 -11.218 -23.048  0.00  0.00    +0.081 C 
ATOM     22  C   UNL     1      33.355  -8.967 -22.783  0.00  0.00    +0.061 C 
ATOM     23  C   UNL     1      33.522 -10.264 -23.586  0.00  0.00    +0.025 C 
ATOM     24  C   UNL     1      31.859  -8.934 -22.465  0.00  0.00    +0.115 C 
ATOM     25  C   UNL     1      31.561 -10.383 -22.090  0.00  0.00    +0.049 C 
BRANCH  24  26
ATOM     26  O   UNL     1      31.103  -8.568 -23.613  0.00  0.00    -0.384 OA
ATOM     27  H   UNL     1      30.231  -8.991 -23.573  0.00  0.00    +0.210 HD
ENDBRANCH  24  26
BRANCH  22  28
ATOM     28  C   UNL     1      33.871  -7.746 -23.529  0.00  0.00    +0.176 C 
BRANCH  28  29
ATOM     29  O   UNL     1      33.479  -6.582 -22.823  0.00  0.00    -0.230 OA
BRANCH  29  30
ATOM     30  S   UNL     1      32.983  -5.257 -23.647  0.00  0.00    +0.045 S 
ATOM     31  O   UNL     1      32.154  -4.451 -22.768  0.00  0.00    -0.056 OA
ATOM     32  O   UNL     1      34.154  -4.675 -24.277  0.00  0.00    -0.056 OA
BRANCH  30  33
ATOM     33  N   UNL     1      31.984  -5.888 -24.889  0.00  0.00    -0.204 NA
ATOM     34  H   UNL     1      32.565  -6.187 -25.673  0.00  0.00    +0.144 HD
ATOM     35  H   UNL     1      31.336  -5.167 -25.203  0.00  0.00    +0.144 HD
ENDBRANCH  30  33
ENDBRANCH  29  30
ENDBRANCH  28  29
ENDBRANCH  22  28
ENDBRANCH   1  21
TORSDOF 7
ENDMDL
MODEL 2
REMARK VINA RESULT:     -11.6      7.959     11.830
REMARK  Name = 16720766
REMARK  7 active torsions:
REMARK  status: ('A' for Active; 'I' for Inactive)
REMARK    1  A    between atoms: N_1  and  C_10
REMARK    2  A    between atoms: C_11  and  C_17
REMARK    3  A    between atoms: C_13  and  O_15
REMARK    4  A    between atoms: C_17  and  O_18
REMARK    5  A    between atoms: O_18  and  S_19
REMARK    6  A    between atoms: S_19  and  N_22
REMARK    7  A    between atoms: N_25  and  C_27
REMARK                            x       y       z     vdW  Elec       q    Type
REMARK                         _______ _______ _______ _____ _____    ______ ____
ROOT
ATOM      1  N   UNL     1      33.617 -21.182 -19.189  0.00  0.00    -0.276 N 
ATOM      2  N   UNL     1      35.822 -20.224 -19.367  0.00  0.00    -0.233 NA
ATOM      3  N   UNL     1      35.920 -18.346 -20.913  0.00  0.00    -0.233 NA
ATOM      4  C   UNL     1      34.517 -20.281 -19.689  0.00  0.00    +0.120 C 
ATOM      5  C   UNL     1      32.382 -20.947 -19.739  0.00  0.00    +0.062 C 
ATOM      6  C   UNL     1      33.845 -19.450 -20.578  0.00  0.00    +0.131 C 
ATOM      7  C   UNL     1      32.494 -19.879 -20.602  0.00  0.00    +0.004 C 
ATOM      8  C   UNL     1      34.593 -18.443 -21.210  0.00  0.00    +0.113 C 
ATOM      9  C   UNL     1      36.441 -19.226 -20.028  0.00  0.00    +0.252 C 
ATOM     10  N   UNL     1      34.007 -17.566 -22.110  0.00  0.00    -0.319 N 
ATOM     11  H   UNL     1      33.046 -17.667 -22.298  0.00  0.00    +0.148 HD
ENDROOT
BRANCH  10  12
ATOM     12  C   UNL     1      34.725 -16.514 -22.788  0.00  0.00    +0.093 C 
ATOM     13  C   UNL     1      34.518 -16.599 -24.312  0.00  0.00    +0.029 C 
ATOM     14  C   UNL     1      34.118 -15.178 -22.486  0.00  0.00    -0.008 C 
ATOM     15  C   UNL     1      33.273 -15.758 -24.641  0.00  0.00    +0.028 C 
ATOM     16  C   UNL     1      33.302 -14.747 -23.539  0.00  0.00    -0.025 C 
ATOM     17  C   UNL     1      34.264 -14.414 -21.339  0.00  0.00    -0.003 C 
ATOM     18  C   UNL     1      32.610 -13.550 -23.464  0.00  0.00    -0.005 C 
ATOM     19  C   UNL     1      33.580 -13.199 -21.260  0.00  0.00    -0.000 C 
ATOM     20  C   UNL     1      32.758 -12.770 -22.315  0.00  0.00    -0.000 C 
ENDBRANCH  10  12
BRANCH   1  21
ATOM     21  C   UNL     1      33.911 -22.237 -18.223  0.00  0.00    +0.081 C 
ATOM     22  C   UNL     1      32.883 -22.520 -16.022  0.00  0.00    +0.061 C 
ATOM     23  C   UNL     1      32.671 -22.819 -17.511  0.00  0.00    +0.025 C 
ATOM     24  C   UNL     1      34.404 -22.538 -15.866  0.00  0.00    +0.115 C 
ATOM     25  C   UNL     1      34.880 -21.791 -17.109  0.00  0.00    +0.049 C 
BRANCH  24  26
ATOM     26  O   UNL     1      34.901 -23.871 -15.886  0.00  0.00    -0.384 OA
ATOM     27  H   UNL     1      34.489 -24.380 -15.169  0.00  0.00    +0.210 HD
ENDBRANCH  24  26
BRANCH  22  28
ATOM     28  C   UNL     1      32.142 -23.494 -15.119  0.00  0.00    +0.176 C 
BRANCH  28  29
ATOM     29  O   UNL     1      30.907 -23.832 -15.728  0.00  0.00    -0.230 OA
BRANCH  29  30
ATOM     30  S   UNL     1      29.587 -22.901 -15.467  0.00  0.00    +0.045 S 
ATOM     31  O   UNL     1      29.769 -22.183 -14.218  0.00  0.00    -0.056 OA
ATOM     32  O   UNL     1      29.323 -22.169 -16.692  0.00  0.00    -0.056 OA
BRANCH  30  33
ATOM     33  N   UNL     1      28.316 -24.031 -15.252  0.00  0.00    -0.204 NA
ATOM     34  H   UNL     1      28.479 -24.568 -14.401  0.00  0.00    +0.144 HD
ATOM     35  H   UNL     1      28.284 -24.662 -16.052  0.00  0.00    +0.144 HD
ENDBRANCH  30  33
ENDBRANCH  29  30
ENDBRANCH  28  29
ENDBRANCH  22  28
ENDBRANCH   1  21
TORSDOF 7
ENDMDL
MODEL 3
REMARK VINA RESULT:     -11.5      1.655      1.817
REMARK  Name = 16720766
REMARK  7 active torsions:
REMARK  status: ('A' for Active; 'I' for Inactive)
REMARK    1  A    between atoms: N_1  and  C_10
REMARK    2  A    between atoms: C_11  and  C_17
REMARK    3  A    between atoms: C_13  and  O_15
REMARK    4  A    between atoms: C_17  and  O_18
REMARK    5  A    between atoms: O_18  and  S_19
REMARK    6  A    between atoms: S_19  and  N_22
REMARK    7  A    between atoms: N_25  and  C_27
REMARK                            x       y       z     vdW  Elec       q    Type
REMARK                         _______ _______ _______ _____ _____    ______ ____
ROOT
ATOM      1  N   UNL     1      32.759 -12.316 -22.309  0.00  0.00    -0.276 N 
ATOM      2  N   UNL     1      32.883 -13.628 -24.328  0.00  0.00    -0.233 NA
ATOM      3  N   UNL     1      33.825 -15.843 -23.965  0.00  0.00    -0.233 NA
ATOM      4  C   UNL     1      33.070 -13.451 -23.008  0.00  0.00    +0.120 C 
ATOM      5  C   UNL     1      33.084 -12.489 -20.988  0.00  0.00    +0.062 C 
ATOM      6  C   UNL     1      33.606 -14.371 -22.115  0.00  0.00    +0.131 C 
ATOM      7  C   UNL     1      33.611 -13.754 -20.839  0.00  0.00    +0.004 C 
ATOM      8  C   UNL     1      33.996 -15.618 -22.631  0.00  0.00    +0.113 C 
ATOM      9  C   UNL     1      33.290 -14.853 -24.715  0.00  0.00    +0.252 C 
ATOM     10  N   UNL     1      34.539 -16.599 -21.816  0.00  0.00    -0.319 N 
ATOM     11  H   UNL     1      34.646 -16.400 -20.857  0.00  0.00    +0.148 HD
ENDROOT
BRANCH  10  12
ATOM     12  C   UNL     1      34.957 -17.896 -22.291  0.00  0.00    +0.093 C 
ATOM     13  C   UNL     1      36.488 -18.045 -22.211  0.00  0.00    +0.029 C 
ATOM     14  C   UNL     1      34.511 -18.974 -21.349  0.00  0.00    -0.008 C 
ATOM     15  C   UNL     1      36.810 -18.615 -20.819  0.00  0.00    +0.028 C 
ATOM     16  C   UNL     1      35.563 -19.386 -20.522  0.00  0.00    -0.025 C 
ATOM     17  C   UNL     1      33.246 -19.528 -21.225  0.00  0.00    -0.003 C 
ATOM     18  C   UNL     1      35.371 -20.353 -19.550  0.00  0.00    -0.005 C 
ATOM     19  C   UNL     1      33.048 -20.513 -20.255  0.00  0.00    -0.000 C 
ATOM     20  C   UNL     1      34.102 -20.921 -19.423  0.00  0.00    -0.000 C 
ENDBRANCH  10  12
BRANCH   1  21
ATOM     21  C   UNL     1      32.174 -11.101 -22.871  0.00  0.00    +0.081 C 
ATOM     22  C   UNL     1      32.372  -8.838 -21.965  0.00  0.00    +0.061 C 
ATOM     23  C   UNL     1      33.102  -9.868 -22.837  0.00  0.00    +0.025 C 
ATOM     24  C   UNL     1      30.894  -9.152 -22.202  0.00  0.00    +0.115 C 
ATOM     25  C   UNL     1      30.864 -10.677 -22.177  0.00  0.00    +0.049 C 
BRANCH  24  26
ATOM     26  O   UNL     1      30.473  -8.682 -23.477  0.00  0.00    -0.384 OA
ATOM     27  H   UNL     1      31.061  -7.967 -23.768  0.00  0.00    +0.210 HD
ENDBRANCH  24  26
BRANCH  22  28
ATOM     28  C   UNL     1      32.776  -7.408 -22.287  0.00  0.00    +0.176 C 
BRANCH  28  29
ATOM     29  O   UNL     1      33.177  -6.766 -21.088  0.00  0.00    -0.230 OA
BRANCH  29  30
ATOM     30  S   UNL     1      32.048  -6.278 -20.008  0.00  0.00    +0.045 S 
ATOM     31  O   UNL     1      32.672  -5.360 -19.072  0.00  0.00    -0.056 OA
ATOM     32  O   UNL     1      30.879  -5.862 -20.761  0.00  0.00    -0.056 OA
BRANCH  30  33
ATOM     33  N   UNL     1      31.637  -7.708 -19.158  0.00  0.00    -0.204 NA
ATOM     34  H   UNL     1      30.887  -8.193 -19.651  0.00  0.00    +0.144 HD
ATOM     35  H   UNL     1      31.325  -7.467 -18.218  0.00  0.00    +0.144 HD
ENDBRANCH  30  33
ENDBRANCH  29  30
ENDBRANCH  28  29
ENDBRANCH  22  28
ENDBRANCH   1  21
TORSDOF 7
ENDMDL
MODEL 4
REMARK VINA RESULT:     -11.5      9.049     12.702
REMARK  Name = 16720766
REMARK  7 active torsions:
REMARK  status: ('A' for Active; 'I' for Inactive)
REMARK    1  A    between atoms: N_1  and  C_10
REMARK    2  A    between atoms: C_11  and  C_17
REMARK    3  A    between atoms: C_13  and  O_15
REMARK    4  A    between atoms: C_17  and  O_18
REMARK    5  A    between atoms: O_18  and  S_19
REMARK    6  A    between atoms: S_19  and  N_22
REMARK    7  A    between atoms: N_25  and  C_27
REMARK                            x       y       z     vdW  Elec       q    Type
REMARK                         _______ _______ _______ _____ _____    ______ ____
ROOT
ATOM      1  N   UNL     1      32.959 -21.950 -17.934  0.00  0.00    -0.276 N 
ATOM      2  N   UNL     1      35.315 -21.714 -18.392  0.00  0.00    -0.233 NA
ATOM      3  N   UNL     1      35.779 -20.156 -20.203  0.00  0.00    -0.233 NA
ATOM      4  C   UNL     1      34.021 -21.423 -18.618  0.00  0.00    +0.120 C 
ATOM      5  C   UNL     1      31.792 -21.430 -18.431  0.00  0.00    +0.062 C 
ATOM      6  C   UNL     1      33.523 -20.548 -19.576  0.00  0.00    +0.131 C 
ATOM      7  C   UNL     1      32.111 -20.558 -19.450  0.00  0.00    +0.004 C 
ATOM      8  C   UNL     1      34.455 -19.892 -20.397  0.00  0.00    +0.113 C 
ATOM      9  C   UNL     1      36.119 -21.033 -19.233  0.00  0.00    +0.252 C 
ATOM     10  N   UNL     1      34.051 -18.999 -21.378  0.00  0.00    -0.319 N 
ATOM     11  H   UNL     1      33.087 -18.834 -21.487  0.00  0.00    +0.148 HD
ENDROOT
BRANCH  10  12
ATOM     12  C   UNL     1      34.963 -18.299 -22.249  0.00  0.00    +0.093 C 
ATOM     13  C   UNL     1      34.934 -18.892 -23.670  0.00  0.00    +0.029 C 
ATOM     14  C   UNL     1      34.482 -16.903 -22.507  0.00  0.00    -0.008 C 
ATOM     15  C   UNL     1      33.843 -18.136 -24.448  0.00  0.00    +0.028 C 
ATOM     16  C   UNL     1      33.855 -16.810 -23.756  0.00  0.00    -0.025 C 
ATOM     17  C   UNL     1      34.576 -15.800 -21.672  0.00  0.00    -0.003 C 
ATOM     18  C   UNL     1      33.303 -15.617 -24.191  0.00  0.00    -0.005 C 
ATOM     19  C   UNL     1      34.033 -14.590 -22.109  0.00  0.00    -0.000 C 
ATOM     20  C   UNL     1      33.400 -14.500 -23.360  0.00  0.00    -0.000 C 
ENDBRANCH  10  12
BRANCH   1  21
ATOM     21  C   UNL     1      33.043 -22.917 -16.842  0.00  0.00    +0.081 C 
ATOM     22  C   UNL     1      31.964 -22.735 -14.654  0.00  0.00    +0.061 C 
ATOM     23  C   UNL     1      31.709 -23.166 -16.104  0.00  0.00    +0.025 C 
ATOM     24  C   UNL     1      33.453 -23.019 -14.453  0.00  0.00    +0.115 C 
ATOM     25  C   UNL     1      34.070 -22.529 -15.759  0.00  0.00    +0.049 C 
BRANCH  24  26
ATOM     26  O   UNL     1      33.689 -24.413 -14.301  0.00  0.00    -0.384 OA
ATOM     27  H   UNL     1      33.560 -24.857 -15.155  0.00  0.00    +0.210 HD
ENDBRANCH  24  26
BRANCH  22  28
ATOM     28  C   UNL     1      31.046 -23.437 -13.666  0.00  0.00    +0.176 C 
BRANCH  28  29
ATOM     29  O   UNL     1      29.711 -23.336 -14.133  0.00  0.00    -0.230 OA
BRANCH  29  30
ATOM     30  S   UNL     1      28.983 -24.637 -14.809  0.00  0.00    +0.045 S 
ATOM     31  O   UNL     1      28.185 -24.185 -15.935  0.00  0.00    -0.056 OA
ATOM     32  O   UNL     1      30.003 -25.652 -15.003  0.00  0.00    -0.056 OA
BRANCH  30  33
ATOM     33  N   UNL     1      27.916 -25.199 -13.591  0.00  0.00    -0.204 NA
ATOM     34  H   UNL     1      27.533 -24.403 -13.081  0.00  0.00    +0.144 HD
ATOM     35  H   UNL     1      28.424 -25.803 -12.946  0.00  0.00    +0.144 HD
ENDBRANCH  30  33
ENDBRANCH  29  30
ENDBRANCH  28  29
ENDBRANCH  22  28
ENDBRANCH   1  21
TORSDOF 7
ENDMDL
MODEL 5
REMARK VINA RESULT:     -11.3      8.557     12.266
REMARK  Name = 16720766
REMARK  7 active torsions:
REMARK  status: ('A' for Active; 'I' for Inactive)
REMARK    1  A    between atoms: N_1  and  C_10
REMARK    2  A    between atoms: C_11  and  C_17
REMARK    3  A    between atoms: C_13  and  O_15
REMARK    4  A    between atoms: C_17  and  O_18
REMARK    5  A    between atoms: O_18  and  S_19
REMARK    6  A    between atoms: S_19  and  N_22
REMARK    7  A    between atoms: N_25  and  C_27
REMARK                            x       y       z     vdW  Elec       q    Type
REMARK                         _______ _______ _______ _____ _____    ______ ____
ROOT
ATOM      1  N   UNL     1      33.565 -21.326 -18.996  0.00  0.00    -0.276 N 
ATOM      2  N   UNL     1      35.802 -20.479 -19.303  0.00  0.00    -0.233 NA
ATOM      3  N   UNL     1      35.908 -18.625 -20.877  0.00  0.00    -0.233 NA
ATOM      4  C   UNL     1      34.481 -20.475 -19.554  0.00  0.00    +0.120 C 
ATOM      5  C   UNL     1      32.316 -21.035 -19.481  0.00  0.00    +0.062 C 
ATOM      6  C   UNL     1      33.803 -19.622 -20.417  0.00  0.00    +0.131 C 
ATOM      7  C   UNL     1      32.433 -19.983 -20.364  0.00  0.00    +0.004 C 
ATOM      8  C   UNL     1      34.563 -18.659 -21.101  0.00  0.00    +0.113 C 
ATOM      9  C   UNL     1      36.433 -19.520 -20.009  0.00  0.00    +0.252 C 
ATOM     10  N   UNL     1      33.974 -17.764 -21.980  0.00  0.00    -0.319 N 
ATOM     11  H   UNL     1      33.000 -17.819 -22.115  0.00  0.00    +0.148 HD
ENDROOT
BRANCH  10  12
ATOM     12  C   UNL     1      34.705 -16.756 -22.709  0.00  0.00    +0.093 C 
ATOM     13  C   UNL     1      34.481 -16.902 -24.226  0.00  0.00    +0.029 C 
ATOM     14  C   UNL     1      34.125 -15.397 -22.459  0.00  0.00    -0.008 C 
ATOM     15  C   UNL     1      33.248 -16.052 -24.580  0.00  0.00    +0.028 C 
ATOM     16  C   UNL     1      33.307 -14.996 -23.523  0.00  0.00    -0.025 C 
ATOM     17  C   UNL     1      34.298 -14.587 -21.347  0.00  0.00    -0.003 C 
ATOM     18  C   UNL     1      32.639 -13.783 -23.492  0.00  0.00    -0.005 C 
ATOM     19  C   UNL     1      33.638 -13.357 -21.315  0.00  0.00    -0.000 C 
ATOM     20  C   UNL     1      32.814 -12.958 -22.379  0.00  0.00    -0.000 C 
ENDBRANCH  10  12
BRANCH   1  21
ATOM     21  C   UNL     1      33.860 -22.383 -18.032  0.00  0.00    +0.081 C 
ATOM     22  C   UNL     1      33.099 -22.487 -15.710  0.00  0.00    +0.061 C 
ATOM     23  C   UNL     1      32.664 -22.796 -17.148  0.00  0.00    +0.025 C 
ATOM     24  C   UNL     1      34.616 -22.682 -15.746  0.00  0.00    +0.115 C 
ATOM     25  C   UNL     1      35.009 -22.027 -17.067  0.00  0.00    +0.049 C 
BRANCH  24  26
ATOM     26  O   UNL     1      34.950 -24.064 -15.774  0.00  0.00    -0.384 OA
ATOM     27  H   UNL     1      34.987 -24.406 -14.867  0.00  0.00    +0.210 HD
ENDBRANCH  24  26
BRANCH  22  28
ATOM     28  C   UNL     1      32.375 -23.344 -14.683  0.00  0.00    +0.176 C 
BRANCH  28  29
ATOM     29  O   UNL     1      31.196 -23.864 -15.274  0.00  0.00    -0.230 OA
BRANCH  29  30
ATOM     30  S   UNL     1      29.836 -24.023 -14.377  0.00  0.00    +0.045 S 
ATOM     31  O   UNL     1      28.968 -22.891 -14.650  0.00  0.00    -0.056 OA
ATOM     32  O   UNL     1      29.345 -25.376 -14.568  0.00  0.00    -0.056 OA
BRANCH  30  33
ATOM     33  N   UNL     1      30.386 -23.893 -12.758  0.00  0.00    -0.204 NA
ATOM     34  H   UNL     1      31.397 -24.024 -12.731  0.00  0.00    +0.144 HD
ATOM     35  H   UNL     1      29.936 -24.608 -12.188  0.00  0.00    +0.144 HD
ENDBRANCH  30  33
ENDBRANCH  29  30
ENDBRANCH  28  29
ENDBRANCH  22  28
ENDBRANCH   1  21
TORSDOF 7
ENDMDL
MODEL 6
REMARK VINA RESULT:     -11.2      9.575     13.205
REMARK  Name = 16720766
REMARK  7 active torsions:
REMARK  status: ('A' for Active; 'I' for Inactive)
REMARK    1  A    between atoms: N_1  and  C_10
REMARK    2  A    between atoms: C_11  and  C_17
REMARK    3  A    between atoms: C_13  and  O_15
REMARK    4  A    between atoms: C_17  and  O_18
REMARK    5  A    between atoms: O_18  and  S_19
REMARK    6  A    between atoms: S_19  and  N_22
REMARK    7  A    between atoms: N_25  and  C_27
REMARK                            x       y       z     vdW  Elec       q    Type
REMARK                         _______ _______ _______ _____ _____    ______ ____
ROOT
ATOM      1  N   UNL     1      33.057 -22.050 -17.453  0.00  0.00    -0.276 N 
ATOM      2  N   UNL     1      35.404 -21.705 -17.883  0.00  0.00    -0.233 NA
ATOM      3  N   UNL     1      35.819 -20.378 -19.881  0.00  0.00    -0.233 NA
ATOM      4  C   UNL     1      34.102 -21.544 -18.178  0.00  0.00    +0.120 C 
ATOM      5  C   UNL     1      31.873 -21.691 -18.046  0.00  0.00    +0.062 C 
ATOM      6  C   UNL     1      33.577 -20.847 -19.259  0.00  0.00    +0.131 C 
ATOM      7  C   UNL     1      32.165 -20.944 -19.167  0.00  0.00    +0.004 C 
ATOM      8  C   UNL     1      34.487 -20.241 -20.141  0.00  0.00    +0.113 C 
ATOM      9  C   UNL     1      36.187 -21.087 -18.790  0.00  0.00    +0.252 C 
ATOM     10  N   UNL     1      34.055 -19.523 -21.245  0.00  0.00    -0.319 N 
ATOM     11  H   UNL     1      33.086 -19.447 -21.398  0.00  0.00    +0.148 HD
ENDROOT
BRANCH  10  12
ATOM     12  C   UNL     1      34.945 -18.882 -22.183  0.00  0.00    +0.093 C 
ATOM     13  C   UNL     1      34.768 -19.465 -23.597  0.00  0.00    +0.029 C 
ATOM     14  C   UNL     1      34.543 -17.455 -22.403  0.00  0.00    -0.008 C 
ATOM     15  C   UNL     1      33.676 -18.632 -24.291  0.00  0.00    +0.028 C 
ATOM     16  C   UNL     1      33.831 -17.313 -23.601  0.00  0.00    -0.025 C 
ATOM     17  C   UNL     1      34.775 -16.366 -21.578  0.00  0.00    -0.003 C 
ATOM     18  C   UNL     1      33.331 -16.083 -23.994  0.00  0.00    -0.005 C 
ATOM     19  C   UNL     1      34.284 -15.120 -21.973  0.00  0.00    -0.000 C 
ATOM     20  C   UNL     1      33.567 -14.980 -23.172  0.00  0.00    -0.000 C 
ENDBRANCH  10  12
BRANCH   1  21
ATOM     21  C   UNL     1      33.171 -22.850 -16.236  0.00  0.00    +0.081 C 
ATOM     22  C   UNL     1      35.059 -22.872 -14.682  0.00  0.00    +0.061 C 
ATOM     23  C   UNL     1      33.780 -22.101 -15.032  0.00  0.00    +0.025 C 
ATOM     24  C   UNL     1      34.733 -24.310 -15.089  0.00  0.00    +0.115 C 
ATOM     25  C   UNL     1      34.013 -24.129 -16.422  0.00  0.00    +0.049 C 
BRANCH  24  26
ATOM     26  O   UNL     1      33.858 -24.919 -14.148  0.00  0.00    -0.384 OA
ATOM     27  H   UNL     1      33.590 -25.793 -14.474  0.00  0.00    +0.210 HD
ENDBRANCH  24  26
BRANCH  22  28
ATOM     28  C   UNL     1      35.465 -22.702 -13.226  0.00  0.00    +0.176 C 
BRANCH  28  29
ATOM     29  O   UNL     1      36.305 -23.783 -12.858  0.00  0.00    -0.230 OA
BRANCH  29  30
ATOM     30  S   UNL     1      36.081 -24.539 -11.424  0.00  0.00    +0.045 S 
ATOM     31  O   UNL     1      36.993 -23.965 -10.452  0.00  0.00    -0.056 OA
ATOM     32  O   UNL     1      34.653 -24.553 -11.161  0.00  0.00    -0.056 OA
BRANCH  30  33
ATOM     33  N   UNL     1      36.569 -26.155 -11.724  0.00  0.00    -0.204 NA
ATOM     34  H   UNL     1      37.587 -26.199 -11.773  0.00  0.00    +0.144 HD
ATOM     35  H   UNL     1      36.173 -26.471 -12.609  0.00  0.00    +0.144 HD
ENDBRANCH  30  33
ENDBRANCH  29  30
ENDBRANCH  28  29
ENDBRANCH  22  28
ENDBRANCH   1  21
TORSDOF 7
ENDMDL
MODEL 7
REMARK VINA RESULT:     -10.2      5.483     10.674
REMARK  Name = 16720766
REMARK  7 active torsions:
REMARK  status: ('A' for Active; 'I' for Inactive)
REMARK    1  A    between atoms: N_1  and  C_10
REMARK    2  A    between atoms: C_11  and  C_17
REMARK    3  A    between atoms: C_13  and  O_15
REMARK    4  A    between atoms: C_17  and  O_18
REMARK    5  A    between atoms: O_18  and  S_19
REMARK    6  A    between atoms: S_19  and  N_22
REMARK    7  A    between atoms: N_25  and  C_27
REMARK                            x       y       z     vdW  Elec       q    Type
REMARK                         _______ _______ _______ _____ _____    ______ ____
ROOT
ATOM      1  N   UNL     1      32.891 -13.287 -23.341  0.00  0.00    -0.276 N 
ATOM      2  N   UNL     1      31.679 -12.830 -21.307  0.00  0.00    -0.233 NA
ATOM      3  N   UNL     1      31.232 -10.460 -20.981  0.00  0.00    -0.233 NA
ATOM      4  C   UNL     1      32.286 -12.448 -22.445  0.00  0.00    +0.120 C 
ATOM      5  C   UNL     1      33.404 -12.553 -24.381  0.00  0.00    +0.062 C 
ATOM      6  C   UNL     1      32.415 -11.148 -22.920  0.00  0.00    +0.131 C 
ATOM      7  C   UNL     1      33.123 -11.224 -24.146  0.00  0.00    +0.004 C 
ATOM      8  C   UNL     1      31.858 -10.119 -22.143  0.00  0.00    +0.113 C 
ATOM      9  C   UNL     1      31.183 -11.768 -20.642  0.00  0.00    +0.252 C 
ATOM     10  N   UNL     1      31.936  -8.792 -22.538  0.00  0.00    -0.319 N 
ATOM     11  H   UNL     1      32.395  -8.586 -23.384  0.00  0.00    +0.148 HD
ENDROOT
BRANCH  10  12
ATOM     12  C   UNL     1      31.383  -7.696 -21.780  0.00  0.00    +0.093 C 
ATOM     13  C   UNL     1      32.347  -7.257 -20.663  0.00  0.00    +0.029 C 
ATOM     14  C   UNL     1      31.319  -6.454 -22.615  0.00  0.00    -0.008 C 
ATOM     15  C   UNL     1      33.268  -6.181 -21.264  0.00  0.00    +0.028 C 
ATOM     16  C   UNL     1      32.383  -5.593 -22.317  0.00  0.00    -0.025 C 
ATOM     17  C   UNL     1      30.391  -6.128 -23.591  0.00  0.00    -0.003 C 
ATOM     18  C   UNL     1      32.544  -4.395 -22.992  0.00  0.00    -0.005 C 
ATOM     19  C   UNL     1      30.539  -4.916 -24.268  0.00  0.00    -0.000 C 
ATOM     20  C   UNL     1      31.608  -4.056 -23.972  0.00  0.00    -0.000 C 
ENDBRANCH  10  12
BRANCH   1  21
ATOM     21  C   UNL     1      32.984 -14.740 -23.221  0.00  0.00    +0.081 C 
ATOM     22  C   UNL     1      35.005 -16.033 -22.748  0.00  0.00    +0.061 C 
ATOM     23  C   UNL     1      33.887 -15.231 -22.070  0.00  0.00    +0.025 C 
ATOM     24  C   UNL     1      34.329 -16.605 -23.995  0.00  0.00    +0.115 C 
ATOM     25  C   UNL     1      33.502 -15.427 -24.501  0.00  0.00    +0.049 C 
BRANCH  24  26
ATOM     26  O   UNL     1      33.470 -17.687 -23.657  0.00  0.00    -0.384 OA
ATOM     27  H   UNL     1      32.606 -17.558 -24.080  0.00  0.00    +0.210 HD
ENDBRANCH  24  26
BRANCH  22  28
ATOM     28  C   UNL     1      35.619 -17.075 -21.826  0.00  0.00    +0.176 C 
BRANCH  28  29
ATOM     29  O   UNL     1      34.592 -17.641 -21.029  0.00  0.00    -0.230 OA
BRANCH  29  30
ATOM     30  S   UNL     1      34.428 -19.267 -20.944  0.00  0.00    +0.045 S 
ATOM     31  O   UNL     1      33.188 -19.570 -20.253  0.00  0.00    -0.056 OA
ATOM     32  O   UNL     1      34.666 -19.797 -22.275  0.00  0.00    -0.056 OA
BRANCH  30  33
ATOM     33  N   UNL     1      35.730 -19.766 -19.946  0.00  0.00    -0.204 NA
ATOM     34  H   UNL     1      35.812 -19.131 -19.152  0.00  0.00    +0.144 HD
ATOM     35  H   UNL     1      36.596 -19.751 -20.484  0.00  0.00    +0.144 HD
ENDBRANCH  30  33
ENDBRANCH  29  30
ENDBRANCH  28  29
ENDBRANCH  22  28
ENDBRANCH   1  21
TORSDOF 7
ENDMDL
MODEL 8
REMARK VINA RESULT:      -9.9      6.041      9.499
REMARK  Name = 16720766
REMARK  7 active torsions:
REMARK  status: ('A' for Active; 'I' for Inactive)
REMARK    1  A    between atoms: N_1  and  C_10
REMARK    2  A    between atoms: C_11  and  C_17
REMARK    3  A    between atoms: C_13  and  O_15
REMARK    4  A    between atoms: C_17  and  O_18
REMARK    5  A    between atoms: O_18  and  S_19
REMARK    6  A    between atoms: S_19  and  N_22
REMARK    7  A    between atoms: N_25  and  C_27
REMARK                            x       y       z     vdW  Elec       q    Type
REMARK                         _______ _______ _______ _____ _____    ______ ____
ROOT
ATOM      1  N   UNL     1      35.353 -20.520 -19.537  0.00  0.00    -0.276 N 
ATOM      2  N   UNL     1      33.495 -22.011 -19.163  0.00  0.00    -0.233 NA
ATOM      3  N   UNL     1      33.592 -23.126 -17.002  0.00  0.00    -0.233 NA
ATOM      4  C   UNL     1      34.644 -21.420 -18.788  0.00  0.00    +0.120 C 
ATOM      5  C   UNL     1      36.469 -20.128 -18.844  0.00  0.00    +0.062 C 
ATOM      6  C   UNL     1      35.321 -21.609 -17.589  0.00  0.00    +0.131 C 
ATOM      7  C   UNL     1      36.475 -20.786 -17.633  0.00  0.00    +0.004 C 
ATOM      8  C   UNL     1      34.758 -22.504 -16.665  0.00  0.00    +0.113 C 
ATOM      9  C   UNL     1      33.044 -22.846 -18.206  0.00  0.00    +0.252 C 
ATOM     10  N   UNL     1      35.361 -22.754 -15.442  0.00  0.00    -0.319 N 
ATOM     11  H   UNL     1      36.202 -22.285 -15.235  0.00  0.00    +0.148 HD
ENDROOT
BRANCH  10  12
ATOM     12  C   UNL     1      34.829 -23.662 -14.456  0.00  0.00    +0.093 C 
ATOM     13  C   UNL     1      34.885 -25.117 -14.959  0.00  0.00    +0.029 C 
ATOM     14  C   UNL     1      35.729 -23.733 -13.260  0.00  0.00    -0.008 C 
ATOM     15  C   UNL     1      36.248 -25.686 -14.530  0.00  0.00    +0.028 C 
ATOM     16  C   UNL     1      36.527 -24.883 -13.299  0.00  0.00    -0.025 C 
ATOM     17  C   UNL     1      35.845 -22.820 -12.224  0.00  0.00    -0.003 C 
ATOM     18  C   UNL     1      37.461 -25.139 -12.309  0.00  0.00    -0.005 C 
ATOM     19  C   UNL     1      36.776 -23.077 -11.215  0.00  0.00    -0.000 C 
ATOM     20  C   UNL     1      37.578 -24.228 -11.258  0.00  0.00    -0.000 C 
ENDBRANCH  10  12
BRANCH   1  21
ATOM     21  C   UNL     1      34.989 -20.044 -20.870  0.00  0.00    +0.081 C 
ATOM     22  C   UNL     1      34.658 -17.716 -21.541  0.00  0.00    +0.061 C 
ATOM     23  C   UNL     1      35.744 -18.777 -21.325  0.00  0.00    +0.025 C 
ATOM     24  C   UNL     1      33.437 -18.535 -21.965  0.00  0.00    +0.115 C 
ATOM     25  C   UNL     1      33.487 -19.730 -21.017  0.00  0.00    +0.049 C 
BRANCH  24  26
ATOM     26  O   UNL     1      33.565 -18.980 -23.309  0.00  0.00    -0.384 OA
ATOM     27  H   UNL     1      34.466 -19.311 -23.455  0.00  0.00    +0.210 HD
ENDBRANCH  24  26
BRANCH  22  28
ATOM     28  C   UNL     1      35.077 -16.643 -22.535  0.00  0.00    +0.176 C 
BRANCH  28  29
ATOM     29  O   UNL     1      33.954 -15.828 -22.825  0.00  0.00    -0.230 OA
BRANCH  29  30
ATOM     30  S   UNL     1      33.590 -15.466 -24.379  0.00  0.00    +0.045 S 
ATOM     31  O   UNL     1      32.908 -14.184 -24.407  0.00  0.00    -0.056 OA
ATOM     32  O   UNL     1      34.795 -15.663 -25.165  0.00  0.00    -0.056 OA
BRANCH  30  33
ATOM     33  N   UNL     1      32.467 -16.677 -24.838  0.00  0.00    -0.204 NA
ATOM     34  H   UNL     1      32.929 -17.359 -25.439  0.00  0.00    +0.144 HD
ATOM     35  H   UNL     1      31.692 -16.248 -25.344  0.00  0.00    +0.144 HD
ENDBRANCH  30  33
ENDBRANCH  29  30
ENDBRANCH  28  29
ENDBRANCH  22  28
ENDBRANCH   1  21
TORSDOF 7
ENDMDL
MODEL 9
REMARK VINA RESULT:      -9.6      4.666      7.843
REMARK  Name = 16720766
REMARK  7 active torsions:
REMARK  status: ('A' for Active; 'I' for Inactive)
REMARK    1  A    between atoms: N_1  and  C_10
REMARK    2  A    between atoms: C_11  and  C_17
REMARK    3  A    between atoms: C_13  and  O_15
REMARK    4  A    between atoms: C_17  and  O_18
REMARK    5  A    between atoms: O_18  and  S_19
REMARK    6  A    between atoms: S_19  and  N_22
REMARK    7  A    between atoms: N_25  and  C_27
REMARK                            x       y       z     vdW  Elec       q    Type
REMARK                         _______ _______ _______ _____ _____    ______ ____
ROOT
ATOM      1  N   UNL     1      33.742 -19.464 -20.728  0.00  0.00    -0.276 N 
ATOM      2  N   UNL     1      35.594 -20.350 -19.464  0.00  0.00    -0.233 NA
ATOM      3  N   UNL     1      34.917 -22.028 -17.836  0.00  0.00    -0.233 NA
ATOM      4  C   UNL     1      34.287 -20.281 -19.776  0.00  0.00    +0.120 C 
ATOM      5  C   UNL     1      32.384 -19.658 -20.774  0.00  0.00    +0.062 C 
ATOM      6  C   UNL     1      33.258 -21.014 -19.198  0.00  0.00    +0.131 C 
ATOM      7  C   UNL     1      32.056 -20.614 -19.836  0.00  0.00    +0.004 C 
ATOM      8  C   UNL     1      33.603 -21.924 -18.185  0.00  0.00    +0.113 C 
ATOM      9  C   UNL     1      35.812 -21.249 -18.484  0.00  0.00    +0.252 C 
ATOM     10  N   UNL     1      32.643 -22.699 -17.552  0.00  0.00    -0.319 N 
ATOM     11  H   UNL     1      31.705 -22.597 -17.833  0.00  0.00    +0.148 HD
ENDROOT
BRANCH  10  12
ATOM     12  C   UNL     1      32.940 -23.648 -16.507  0.00  0.00    +0.093 C 
ATOM     13  C   UNL     1      34.195 -23.226 -15.720  0.00  0.00    +0.029 C 
ATOM     14  C   UNL     1      31.894 -23.599 -15.434  0.00  0.00    -0.008 C 
ATOM     15  C   UNL     1      33.719 -22.328 -14.565  0.00  0.00    +0.028 C 
ATOM     16  C   UNL     1      32.339 -22.859 -14.332  0.00  0.00    -0.025 C 
ATOM     17  C   UNL     1      30.626 -24.157 -15.454  0.00  0.00    -0.003 C 
ATOM     18  C   UNL     1      31.523 -22.653 -13.233  0.00  0.00    -0.005 C 
ATOM     19  C   UNL     1      29.801 -23.965 -14.344  0.00  0.00    -0.000 C 
ATOM     20  C   UNL     1      30.246 -23.217 -13.242  0.00  0.00    -0.000 C 
ENDBRANCH  10  12
BRANCH   1  21
ATOM     21  C   UNL     1      34.478 -18.526 -21.572  0.00  0.00    +0.081 C 
ATOM     22  C   UNL     1      33.881 -16.197 -22.020  0.00  0.00    +0.061 C 
ATOM     23  C   UNL     1      34.586 -17.097 -20.997  0.00  0.00    +0.025 C 
ATOM     24  C   UNL     1      34.114 -16.916 -23.350  0.00  0.00    +0.115 C 
ATOM     25  C   UNL     1      33.884 -18.380 -22.987  0.00  0.00    +0.049 C 
BRANCH  24  26
ATOM     26  O   UNL     1      35.451 -16.735 -23.798  0.00  0.00    -0.384 OA
ATOM     27  H   UNL     1      35.832 -17.595 -24.036  0.00  0.00    +0.210 HD
ENDBRANCH  24  26
BRANCH  22  28
ATOM     28  C   UNL     1      34.382 -14.761 -21.979  0.00  0.00    +0.176 C 
BRANCH  28  29
ATOM     29  O   UNL     1      34.272 -14.204 -23.278  0.00  0.00    -0.230 OA
BRANCH  29  30
ATOM     30  S   UNL     1      33.042 -13.181 -23.624  0.00  0.00    +0.045 S 
ATOM     31  O   UNL     1      32.033 -13.305 -22.587  0.00  0.00    -0.056 OA
ATOM     32  O   UNL     1      33.625 -11.885 -23.918  0.00  0.00    -0.056 OA
BRANCH  30  33
ATOM     33  N   UNL     1      32.385 -13.798 -25.083  0.00  0.00    -0.204 NA
ATOM     34  H   UNL     1      31.553 -14.350 -24.874  0.00  0.00    +0.144 HD
ATOM     35  H   UNL     1      33.077 -14.388 -25.544  0.00  0.00    +0.144 HD
ENDBRANCH  30  33
ENDBRANCH  29  30
ENDBRANCH  28  29
ENDBRANCH  22  28
ENDBRANCH   1  21
TORSDOF 7
ENDMDL
