MODEL 1
REMARK VINA RESULT:     -10.5      0.000      0.000
REMARK  Name = 6719
REMARK  4 active torsions:
REMARK  status: ('A' for Active; 'I' for Inactive)
REMARK    1  A    between atoms: C_1  and  C_2
REMARK    2  A    between atoms: C_1  and  C_8
REMARK    3  A    between atoms: C_1  and  C_15
REMARK    4  A    between atoms: C_15  and  C_18
REMARK                            x       y       z     vdW  Elec       q    Type
REMARK                         _______ _______ _______ _____ _____    ______ ____
ROOT
ATOM      1  C   UNL     1      33.939 -23.711 -14.584  0.00  0.00    +0.103 C 
ENDROOT
BRANCH   1   2
ATOM      2  C   UNL     1      34.883 -23.955 -13.414  0.00  0.00    -0.011 C 
ATOM      3  C   UNL     1      36.012 -24.721 -13.617  0.00  0.00    -0.004 C 
ATOM      4  C   UNL     1      34.579 -23.403 -12.186  0.00  0.00    -0.004 C 
ATOM      5  C   UNL     1      36.875 -24.945 -12.546  0.00  0.00    -0.000 C 
ATOM      6  C   UNL     1      35.443 -23.627 -11.115  0.00  0.00    -0.000 C 
ATOM      7  C   UNL     1      36.591 -24.398 -11.294  0.00  0.00    -0.000 C 
ENDBRANCH   1   2
BRANCH   1   8
ATOM      8  C   UNL     1      32.481 -23.619 -14.159  0.00  0.00    -0.011 C 
ATOM      9  C   UNL     1      31.797 -22.440 -14.370  0.00  0.00    -0.004 C 
ATOM     10  C   UNL     1      31.885 -24.719 -13.574  0.00  0.00    -0.004 C 
ATOM     11  C   UNL     1      30.461 -22.355 -13.979  0.00  0.00    -0.000 C 
ATOM     12  C   UNL     1      30.550 -24.635 -13.184  0.00  0.00    -0.000 C 
ATOM     13  C   UNL     1      29.837 -23.453 -13.386  0.00  0.00    -0.000 C 
ENDBRANCH   1   8
BRANCH   1  15
ATOM     14  O   UNL     1      34.663 -21.430 -15.022  0.00  0.00    -0.294 OA
ATOM     15  C   UNL     1      34.385 -22.544 -15.469  0.00  0.00    +0.173 C 
BRANCH  15  18
ATOM     16  O   UNL     1      36.742 -21.993 -17.403  0.00  0.00    -0.290 OA
ATOM     17  O   UNL     1      32.102 -22.943 -17.524  0.00  0.00    -0.290 OA
ATOM     18  C   UNL     1      34.479 -22.811 -16.933  0.00  0.00    +0.181 C 
ATOM     19  C   UNL     1      35.549 -21.999 -17.640  0.00  0.00    +0.187 C 
ATOM     20  C   UNL     1      33.212 -22.478 -17.700  0.00  0.00    +0.187 C 
ATOM     21  C   UNL     1      34.904 -21.200 -18.683  0.00  0.00    +0.038 C 
ATOM     22  C   UNL     1      33.541 -21.480 -18.719  0.00  0.00    +0.038 C 
ATOM     23  C   UNL     1      35.483 -20.295 -19.552  0.00  0.00    +0.003 C 
ATOM     24  C   UNL     1      32.698 -20.866 -19.624  0.00  0.00    +0.003 C 
ATOM     25  C   UNL     1      34.645 -19.663 -20.473  0.00  0.00    +0.000 C 
ATOM     26  C   UNL     1      33.265 -19.945 -20.509  0.00  0.00    +0.000 C 
ENDBRANCH  15  18
ENDBRANCH   1  15
TORSDOF 4
ENDMDL
MODEL 2
REMARK VINA RESULT:     -10.5      1.646      2.805
REMARK  Name = 6719
REMARK  4 active torsions:
REMARK  status: ('A' for Active; 'I' for Inactive)
REMARK    1  A    between atoms: C_1  and  C_2
REMARK    2  A    between atoms: C_1  and  C_8
REMARK    3  A    between atoms: C_1  and  C_15
REMARK    4  A    between atoms: C_15  and  C_18
REMARK                            x       y       z     vdW  Elec       q    Type
REMARK                         _______ _______ _______ _____ _____    ______ ____
ROOT
ATOM      1  C   UNL     1      33.152 -23.671 -16.405  0.00  0.00    +0.103 C 
ENDROOT
BRANCH   1   2
ATOM      2  C   UNL     1      34.393 -23.538 -15.532  0.00  0.00    -0.011 C 
ATOM      3  C   UNL     1      35.108 -24.673 -15.214  0.00  0.00    -0.004 C 
ATOM      4  C   UNL     1      34.764 -22.285 -15.087  0.00  0.00    -0.004 C 
ATOM      5  C   UNL     1      36.244 -24.551 -14.414  0.00  0.00    -0.000 C 
ATOM      6  C   UNL     1      35.899 -22.164 -14.288  0.00  0.00    -0.000 C 
ATOM      7  C   UNL     1      36.640 -23.296 -13.950  0.00  0.00    -0.000 C 
ENDBRANCH   1   2
BRANCH   1   8
ATOM      8  C   UNL     1      31.893 -23.151 -15.727  0.00  0.00    -0.011 C 
ATOM      9  C   UNL     1      30.752 -22.975 -16.483  0.00  0.00    -0.004 C 
ATOM     10  C   UNL     1      31.929 -22.871 -14.375  0.00  0.00    -0.004 C 
ATOM     11  C   UNL     1      29.598 -22.497 -15.861  0.00  0.00    -0.000 C 
ATOM     12  C   UNL     1      30.776 -22.394 -13.754  0.00  0.00    -0.000 C 
ATOM     13  C   UNL     1      29.610 -22.207 -14.497  0.00  0.00    -0.000 C 
ENDBRANCH   1   8
BRANCH   1  15
ATOM     14  O   UNL     1      33.270 -23.795 -18.832  0.00  0.00    -0.294 OA
ATOM     15  C   UNL     1      33.357 -23.107 -17.814  0.00  0.00    +0.173 C 
BRANCH  15  18
ATOM     16  O   UNL     1      31.556 -20.787 -18.802  0.00  0.00    -0.290 OA
ATOM     17  O   UNL     1      36.123 -21.720 -17.953  0.00  0.00    -0.290 OA
ATOM     18  C   UNL     1      33.672 -21.653 -17.914  0.00  0.00    +0.181 C 
ATOM     19  C   UNL     1      32.767 -20.892 -18.865  0.00  0.00    +0.187 C 
ATOM     20  C   UNL     1      35.067 -21.361 -18.438  0.00  0.00    +0.187 C 
ATOM     21  C   UNL     1      33.600 -20.281 -19.902  0.00  0.00    +0.038 C 
ATOM     22  C   UNL     1      34.942 -20.555 -19.652  0.00  0.00    +0.038 C 
ATOM     23  C   UNL     1      33.203 -19.524 -20.987  0.00  0.00    +0.003 C 
ATOM     24  C   UNL     1      35.944 -20.085 -20.478  0.00  0.00    +0.003 C 
ATOM     25  C   UNL     1      34.203 -19.042 -21.835  0.00  0.00    +0.000 C 
ATOM     26  C   UNL     1      35.561 -19.319 -21.582  0.00  0.00    +0.000 C 
ENDBRANCH  15  18
ENDBRANCH   1  15
TORSDOF 4
ENDMDL
MODEL 3
REMARK VINA RESULT:     -10.1      1.960      5.563
REMARK  Name = 6719
REMARK  4 active torsions:
REMARK  status: ('A' for Active; 'I' for Inactive)
REMARK    1  A    between atoms: C_1  and  C_2
REMARK    2  A    between atoms: C_1  and  C_8
REMARK    3  A    between atoms: C_1  and  C_15
REMARK    4  A    between atoms: C_15  and  C_18
REMARK                            x       y       z     vdW  Elec       q    Type
REMARK                         _______ _______ _______ _____ _____    ______ ____
ROOT
ATOM      1  C   UNL     1      35.621 -22.591 -14.941  0.00  0.00    +0.103 C 
ENDROOT
BRANCH   1   2
ATOM      2  C   UNL     1      36.823 -23.377 -14.431  0.00  0.00    -0.011 C 
ATOM      3  C   UNL     1      37.896 -23.575 -15.275  0.00  0.00    -0.004 C 
ATOM      4  C   UNL     1      36.802 -23.865 -13.140  0.00  0.00    -0.004 C 
ATOM      5  C   UNL     1      38.995 -24.294 -14.809  0.00  0.00    -0.000 C 
ATOM      6  C   UNL     1      37.902 -24.583 -12.675  0.00  0.00    -0.000 C 
ATOM      7  C   UNL     1      38.999 -24.799 -13.508  0.00  0.00    -0.000 C 
ENDBRANCH   1   2
BRANCH   1   8
ATOM      8  C   UNL     1      35.933 -21.777 -16.187  0.00  0.00    -0.011 C 
ATOM      9  C   UNL     1      36.879 -20.776 -16.111  0.00  0.00    -0.004 C 
ATOM     10  C   UNL     1      35.260 -22.063 -17.359  0.00  0.00    -0.004 C 
ATOM     11  C   UNL     1      37.165 -20.028 -17.253  0.00  0.00    -0.000 C 
ATOM     12  C   UNL     1      35.545 -21.316 -18.500  0.00  0.00    -0.000 C 
ATOM     13  C   UNL     1      36.498 -20.298 -18.448  0.00  0.00    -0.000 C 
ENDBRANCH   1   8
BRANCH   1  15
ATOM     14  O   UNL     1      34.391 -24.610 -15.515  0.00  0.00    -0.294 OA
ATOM     15  C   UNL     1      34.366 -23.457 -15.082  0.00  0.00    +0.173 C 
BRANCH  15  18
ATOM     16  O   UNL     1      32.867 -23.726 -12.384  0.00  0.00    -0.290 OA
ATOM     17  O   UNL     1      32.079 -22.336 -16.844  0.00  0.00    -0.290 OA
ATOM     18  C   UNL     1      33.076 -22.840 -14.661  0.00  0.00    +0.181 C 
ATOM     19  C   UNL     1      32.407 -23.546 -13.496  0.00  0.00    +0.187 C 
ATOM     20  C   UNL     1      32.010 -22.846 -15.742  0.00  0.00    +0.187 C 
ATOM     21  C   UNL     1      31.081 -23.991 -13.928  0.00  0.00    +0.038 C 
ATOM     22  C   UNL     1      30.850 -23.582 -15.239  0.00  0.00    +0.038 C 
ATOM     23  C   UNL     1      30.137 -24.699 -13.211  0.00  0.00    +0.003 C 
ATOM     24  C   UNL     1      29.664 -23.864 -15.889  0.00  0.00    +0.003 C 
ATOM     25  C   UNL     1      28.932 -24.996 -13.853  0.00  0.00    +0.000 C 
ATOM     26  C   UNL     1      28.698 -24.582 -15.179  0.00  0.00    +0.000 C 
ENDBRANCH  15  18
ENDBRANCH   1  15
TORSDOF 4
ENDMDL
MODEL 4
REMARK VINA RESULT:      -9.9     12.431     17.041
REMARK  Name = 6719
REMARK  4 active torsions:
REMARK  status: ('A' for Active; 'I' for Inactive)
REMARK    1  A    between atoms: C_1  and  C_2
REMARK    2  A    between atoms: C_1  and  C_8
REMARK    3  A    between atoms: C_1  and  C_15
REMARK    4  A    between atoms: C_15  and  C_18
REMARK                            x       y       z     vdW  Elec       q    Type
REMARK                         _______ _______ _______ _____ _____    ______ ____
ROOT
ATOM      1  C   UNL     1      31.999  -7.447 -23.487  0.00  0.00    +0.103 C 
ENDROOT
BRANCH   1   2
ATOM      2  C   UNL     1      31.705  -6.663 -22.215  0.00  0.00    -0.011 C 
ATOM      3  C   UNL     1      30.694  -5.725 -22.230  0.00  0.00    -0.004 C 
ATOM      4  C   UNL     1      32.458  -6.916 -21.086  0.00  0.00    -0.004 C 
ATOM      5  C   UNL     1      30.425  -5.006 -21.065  0.00  0.00    -0.000 C 
ATOM      6  C   UNL     1      32.188  -6.198 -19.922  0.00  0.00    -0.000 C 
ATOM      7  C   UNL     1      31.172  -5.243 -19.911  0.00  0.00    -0.000 C 
ENDBRANCH   1   2
BRANCH   1   8
ATOM      8  C   UNL     1      32.553  -6.575 -24.604  0.00  0.00    -0.011 C 
ATOM      9  C   UNL     1      31.846  -6.475 -25.785  0.00  0.00    -0.004 C 
ATOM     10  C   UNL     1      33.746  -5.910 -24.403  0.00  0.00    -0.004 C 
ATOM     11  C   UNL     1      32.354  -5.677 -26.810  0.00  0.00    -0.000 C 
ATOM     12  C   UNL     1      34.254  -5.112 -25.428  0.00  0.00    -0.000 C 
ATOM     13  C   UNL     1      33.558  -4.994 -26.631  0.00  0.00    -0.000 C 
ENDBRANCH   1   8
BRANCH   1  15
ATOM     14  O   UNL     1      34.040  -8.664 -22.966  0.00  0.00    -0.294 OA
ATOM     15  C   UNL     1      32.837  -8.702 -23.227  0.00  0.00    +0.173 C 
BRANCH  15  18
ATOM     16  O   UNL     1      30.542  -9.772 -21.442  0.00  0.00    -0.290 OA
ATOM     17  O   UNL     1      33.764 -11.352 -24.536  0.00  0.00    -0.290 OA
ATOM     18  C   UNL     1      32.125 -10.010 -23.300  0.00  0.00    +0.181 C 
ATOM     19  C   UNL     1      31.415 -10.396 -22.015  0.00  0.00    +0.187 C 
ATOM     20  C   UNL     1      33.038 -11.192 -23.573  0.00  0.00    +0.187 C 
ATOM     21  C   UNL     1      31.957 -11.676 -21.557  0.00  0.00    +0.038 C 
ATOM     22  C   UNL     1      32.904 -12.140 -22.467  0.00  0.00    +0.038 C 
ATOM     23  C   UNL     1      31.631 -12.390 -20.421  0.00  0.00    +0.003 C 
ATOM     24  C   UNL     1      33.565 -13.338 -22.278  0.00  0.00    +0.003 C 
ATOM     25  C   UNL     1      32.291 -13.603 -20.212  0.00  0.00    +0.000 C 
ATOM     26  C   UNL     1      33.249 -14.073 -21.132  0.00  0.00    +0.000 C 
ENDBRANCH  15  18
ENDBRANCH   1  15
TORSDOF 4
ENDMDL
MODEL 5
REMARK VINA RESULT:      -9.9      1.247      2.459
REMARK  Name = 6719
REMARK  4 active torsions:
REMARK  status: ('A' for Active; 'I' for Inactive)
REMARK    1  A    between atoms: C_1  and  C_2
REMARK    2  A    between atoms: C_1  and  C_8
REMARK    3  A    between atoms: C_1  and  C_15
REMARK    4  A    between atoms: C_15  and  C_18
REMARK                            x       y       z     vdW  Elec       q    Type
REMARK                         _______ _______ _______ _____ _____    ______ ____
ROOT
ATOM      1  C   UNL     1      34.024 -24.371 -13.623  0.00  0.00    +0.103 C 
ENDROOT
BRANCH   1   2
ATOM      2  C   UNL     1      34.863 -23.882 -12.449  0.00  0.00    -0.011 C 
ATOM      3  C   UNL     1      35.887 -22.990 -12.689  0.00  0.00    -0.004 C 
ATOM      4  C   UNL     1      34.571 -24.346 -11.183  0.00  0.00    -0.004 C 
ATOM      5  C   UNL     1      36.656 -22.544 -11.614  0.00  0.00    -0.000 C 
ATOM      6  C   UNL     1      35.339 -23.899 -10.109  0.00  0.00    -0.000 C 
ATOM      7  C   UNL     1      36.382 -22.998 -10.324  0.00  0.00    -0.000 C 
ENDBRANCH   1   2
BRANCH   1   8
ATOM      8  C   UNL     1      32.559 -23.974 -13.509  0.00  0.00    -0.011 C 
ATOM      9  C   UNL     1      31.590 -24.934 -13.715  0.00  0.00    -0.004 C 
ATOM     10  C   UNL     1      32.243 -22.665 -13.201  0.00  0.00    -0.004 C 
ATOM     11  C   UNL     1      30.247 -24.570 -13.612  0.00  0.00    -0.000 C 
ATOM     12  C   UNL     1      30.902 -22.302 -13.097  0.00  0.00    -0.000 C 
ATOM     13  C   UNL     1      29.903 -23.254 -13.302  0.00  0.00    -0.000 C 
ENDBRANCH   1   8
BRANCH   1  15
ATOM     14  O   UNL     1      35.350 -24.799 -15.617  0.00  0.00    -0.294 OA
ATOM     15  C   UNL     1      34.642 -24.018 -14.978  0.00  0.00    +0.173 C 
BRANCH  15  18
ATOM     16  O   UNL     1      32.216 -23.073 -16.659  0.00  0.00    -0.290 OA
ATOM     17  O   UNL     1      36.589 -21.665 -15.497  0.00  0.00    -0.290 OA
ATOM     18  C   UNL     1      34.346 -22.660 -15.517  0.00  0.00    +0.181 C 
ATOM     19  C   UNL     1      33.359 -22.656 -16.669  0.00  0.00    +0.187 C 
ATOM     20  C   UNL     1      35.561 -21.946 -16.084  0.00  0.00    +0.187 C 
ATOM     21  C   UNL     1      34.011 -22.051 -17.831  0.00  0.00    +0.038 C 
ATOM     22  C   UNL     1      35.296 -21.637 -17.490  0.00  0.00    +0.038 C 
ATOM     23  C   UNL     1      33.503 -21.867 -19.102  0.00  0.00    +0.003 C 
ATOM     24  C   UNL     1      36.128 -21.022 -18.405  0.00  0.00    +0.003 C 
ATOM     25  C   UNL     1      34.331 -21.249 -20.043  0.00  0.00    +0.000 C 
ATOM     26  C   UNL     1      35.631 -20.831 -19.697  0.00  0.00    +0.000 C 
ENDBRANCH  15  18
ENDBRANCH   1  15
TORSDOF 4
ENDMDL
MODEL 6
REMARK VINA RESULT:      -9.8      1.973      5.916
REMARK  Name = 6719
REMARK  4 active torsions:
REMARK  status: ('A' for Active; 'I' for Inactive)
REMARK    1  A    between atoms: C_1  and  C_2
REMARK    2  A    between atoms: C_1  and  C_8
REMARK    3  A    between atoms: C_1  and  C_15
REMARK    4  A    between atoms: C_15  and  C_18
REMARK                            x       y       z     vdW  Elec       q    Type
REMARK                         _______ _______ _______ _____ _____    ______ ____
ROOT
ATOM      1  C   UNL     1      34.411 -21.997 -16.585  0.00  0.00    +0.103 C 
ENDROOT
BRANCH   1   2
ATOM      2  C   UNL     1      35.688 -22.586 -15.999  0.00  0.00    -0.011 C 
ATOM      3  C   UNL     1      35.603 -23.729 -15.232  0.00  0.00    -0.004 C 
ATOM      4  C   UNL     1      36.890 -21.959 -16.255  0.00  0.00    -0.004 C 
ATOM      5  C   UNL     1      36.772 -24.268 -14.695  0.00  0.00    -0.000 C 
ATOM      6  C   UNL     1      38.058 -22.498 -15.719  0.00  0.00    -0.000 C 
ATOM      7  C   UNL     1      38.000 -23.653 -14.939  0.00  0.00    -0.000 C 
ENDBRANCH   1   2
BRANCH   1   8
ATOM      8  C   UNL     1      34.611 -21.420 -17.978  0.00  0.00    -0.011 C 
ATOM      9  C   UNL     1      35.895 -21.175 -18.421  0.00  0.00    -0.004 C 
ATOM     10  C   UNL     1      33.502 -21.159 -18.759  0.00  0.00    -0.004 C 
ATOM     11  C   UNL     1      36.078 -20.645 -19.698  0.00  0.00    -0.000 C 
ATOM     12  C   UNL     1      33.686 -20.630 -20.036  0.00  0.00    -0.000 C 
ATOM     13  C   UNL     1      34.974 -20.373 -20.506  0.00  0.00    -0.000 C 
ENDBRANCH   1   8
BRANCH   1  15
ATOM     14  O   UNL     1      33.149 -24.001 -17.138  0.00  0.00    -0.294 OA
ATOM     15  C   UNL     1      33.221 -22.955 -16.491  0.00  0.00    +0.173 C 
BRANCH  15  18
ATOM     16  O   UNL     1      32.729 -23.867 -13.571  0.00  0.00    -0.290 OA
ATOM     17  O   UNL     1      30.427 -21.796 -17.157  0.00  0.00    -0.290 OA
ATOM     18  C   UNL     1      32.121 -22.570 -15.562  0.00  0.00    +0.181 C 
ATOM     19  C   UNL     1      31.915 -23.543 -14.415  0.00  0.00    +0.187 C 
ATOM     20  C   UNL     1      30.755 -22.500 -16.221  0.00  0.00    +0.187 C 
ATOM     21  C   UNL     1      30.542 -24.046 -14.481  0.00  0.00    +0.038 C 
ATOM     22  C   UNL     1      29.866 -23.437 -15.534  0.00  0.00    +0.038 C 
ATOM     23  C   UNL     1      29.926 -24.970 -13.661  0.00  0.00    +0.003 C 
ATOM     24  C   UNL     1      28.544 -23.727 -15.813  0.00  0.00    +0.003 C 
ATOM     25  C   UNL     1      28.590 -25.279 -13.928  0.00  0.00    +0.000 C 
ATOM     26  C   UNL     1      27.906 -24.663 -14.994  0.00  0.00    +0.000 C 
ENDBRANCH  15  18
ENDBRANCH   1  15
TORSDOF 4
ENDMDL
MODEL 7
REMARK VINA RESULT:      -9.8     10.739     15.232
REMARK  Name = 6719
REMARK  4 active torsions:
REMARK  status: ('A' for Active; 'I' for Inactive)
REMARK    1  A    between atoms: C_1  and  C_2
REMARK    2  A    between atoms: C_1  and  C_8
REMARK    3  A    between atoms: C_1  and  C_15
REMARK    4  A    between atoms: C_15  and  C_18
REMARK                            x       y       z     vdW  Elec       q    Type
REMARK                         _______ _______ _______ _____ _____    ______ ____
ROOT
ATOM      1  C   UNL     1      31.726  -9.250 -22.934  0.00  0.00    +0.103 C 
ENDROOT
BRANCH   1   2
ATOM      2  C   UNL     1      31.528  -8.890 -21.467  0.00  0.00    -0.011 C 
ATOM      3  C   UNL     1      32.115  -7.742 -20.978  0.00  0.00    -0.004 C 
ATOM      4  C   UNL     1      30.765  -9.723 -20.674  0.00  0.00    -0.004 C 
ATOM      5  C   UNL     1      31.934  -7.413 -19.635  0.00  0.00    -0.000 C 
ATOM      6  C   UNL     1      30.584  -9.394 -19.332  0.00  0.00    -0.000 C 
ATOM      7  C   UNL     1      31.168  -8.239 -18.811  0.00  0.00    -0.000 C 
ENDBRANCH   1   2
BRANCH   1   8
ATOM      8  C   UNL     1      32.021  -8.038 -23.805  0.00  0.00    -0.011 C 
ATOM      9  C   UNL     1      31.002  -7.497 -24.563  0.00  0.00    -0.004 C 
ATOM     10  C   UNL     1      33.299  -7.515 -23.813  0.00  0.00    -0.004 C 
ATOM     11  C   UNL     1      31.272  -6.387 -25.363  0.00  0.00    -0.000 C 
ATOM     12  C   UNL     1      33.568  -6.405 -24.612  0.00  0.00    -0.000 C 
ATOM     13  C   UNL     1      32.555  -5.840 -25.387  0.00  0.00    -0.000 C 
ENDBRANCH   1   8
BRANCH   1  15
ATOM     14  O   UNL     1      33.919 -10.210 -23.364  0.00  0.00    -0.294 OA
ATOM     15  C   UNL     1      32.723 -10.394 -23.132  0.00  0.00    +0.173 C 
BRANCH  15  18
ATOM     16  O   UNL     1      32.300 -12.135 -20.604  0.00  0.00    -0.290 OA
ATOM     17  O   UNL     1      32.555 -12.587 -25.314  0.00  0.00    -0.290 OA
ATOM     18  C   UNL     1      32.183 -11.780 -23.028  0.00  0.00    +0.181 C 
ATOM     19  C   UNL     1      32.556 -12.491 -21.739  0.00  0.00    +0.187 C 
ATOM     20  C   UNL     1      32.684 -12.718 -24.111  0.00  0.00    +0.187 C 
ATOM     21  C   UNL     1      33.291 -13.709 -22.083  0.00  0.00    +0.038 C 
ATOM     22  C   UNL     1      33.365 -13.841 -23.467  0.00  0.00    +0.038 C 
ATOM     23  C   UNL     1      33.848 -14.644 -21.233  0.00  0.00    +0.003 C 
ATOM     24  C   UNL     1      34.001 -14.915 -24.060  0.00  0.00    +0.003 C 
ATOM     25  C   UNL     1      34.497 -15.736 -21.815  0.00  0.00    +0.000 C 
ATOM     26  C   UNL     1      34.572 -15.870 -23.215  0.00  0.00    +0.000 C 
ENDBRANCH  15  18
ENDBRANCH   1  15
TORSDOF 4
ENDMDL
MODEL 8
REMARK VINA RESULT:      -9.7      1.743      6.211
REMARK  Name = 6719
REMARK  4 active torsions:
REMARK  status: ('A' for Active; 'I' for Inactive)
REMARK    1  A    between atoms: C_1  and  C_2
REMARK    2  A    between atoms: C_1  and  C_8
REMARK    3  A    between atoms: C_1  and  C_15
REMARK    4  A    between atoms: C_15  and  C_18
REMARK                            x       y       z     vdW  Elec       q    Type
REMARK                         _______ _______ _______ _____ _____    ______ ____
ROOT
ATOM      1  C   UNL     1      33.431 -23.036 -16.024  0.00  0.00    +0.103 C 
ENDROOT
BRANCH   1   2
ATOM      2  C   UNL     1      32.011 -22.963 -15.476  0.00  0.00    -0.011 C 
ATOM      3  C   UNL     1      30.973 -23.433 -16.253  0.00  0.00    -0.004 C 
ATOM      4  C   UNL     1      31.808 -22.430 -14.220  0.00  0.00    -0.004 C 
ATOM      5  C   UNL     1      29.673 -23.366 -15.752  0.00  0.00    -0.000 C 
ATOM      6  C   UNL     1      30.509 -22.364 -13.719  0.00  0.00    -0.000 C 
ATOM      7  C   UNL     1      29.441 -22.831 -14.485  0.00  0.00    -0.000 C 
ENDBRANCH   1   2
BRANCH   1   8
ATOM      8  C   UNL     1      33.603 -22.262 -17.323  0.00  0.00    -0.011 C 
ATOM      9  C   UNL     1      32.479 -21.851 -18.009  0.00  0.00    -0.004 C 
ATOM     10  C   UNL     1      34.880 -21.995 -17.777  0.00  0.00    -0.004 C 
ATOM     11  C   UNL     1      32.637 -21.143 -19.201  0.00  0.00    -0.000 C 
ATOM     12  C   UNL     1      35.037 -21.287 -18.968  0.00  0.00    -0.000 C 
ATOM     13  C   UNL     1      33.916 -20.861 -19.680  0.00  0.00    -0.000 C 
ENDBRANCH   1   8
BRANCH   1  15
ATOM     14  O   UNL     1      34.960 -21.564 -14.836  0.00  0.00    -0.294 OA
ATOM     15  C   UNL     1      34.488 -22.694 -14.972  0.00  0.00    +0.173 C 
BRANCH  15  18
ATOM     16  O   UNL     1      35.905 -22.547 -12.220  0.00  0.00    -0.290 OA
ATOM     17  O   UNL     1      35.074 -25.646 -15.707  0.00  0.00    -0.290 OA
ATOM     18  C   UNL     1      34.939 -23.807 -14.088  0.00  0.00    +0.181 C 
ATOM     19  C   UNL     1      35.998 -23.403 -13.080  0.00  0.00    +0.187 C 
ATOM     20  C   UNL     1      35.579 -24.964 -14.836  0.00  0.00    +0.187 C 
ATOM     21  C   UNL     1      37.186 -24.228 -13.305  0.00  0.00    +0.038 C 
ATOM     22  C   UNL     1      36.941 -25.139 -14.329  0.00  0.00    +0.038 C 
ATOM     23  C   UNL     1      38.398 -24.187 -12.645  0.00  0.00    +0.003 C 
ATOM     24  C   UNL     1      37.898 -26.047 -14.737  0.00  0.00    +0.003 C 
ATOM     25  C   UNL     1      39.380 -25.097 -13.045  0.00  0.00    +0.000 C 
ATOM     26  C   UNL     1      39.132 -26.018 -14.081  0.00  0.00    +0.000 C 
ENDBRANCH  15  18
ENDBRANCH   1  15
TORSDOF 4
ENDMDL
MODEL 9
REMARK VINA RESULT:      -9.7      1.991      5.883
REMARK  Name = 6719
REMARK  4 active torsions:
REMARK  status: ('A' for Active; 'I' for Inactive)
REMARK    1  A    between atoms: C_1  and  C_2
REMARK    2  A    between atoms: C_1  and  C_8
REMARK    3  A    between atoms: C_1  and  C_15
REMARK    4  A    between atoms: C_15  and  C_18
REMARK                            x       y       z     vdW  Elec       q    Type
REMARK                         _______ _______ _______ _____ _____    ______ ____
ROOT
ATOM      1  C   UNL     1      33.732 -22.419 -15.687  0.00  0.00    +0.103 C 
ENDROOT
BRANCH   1   2
ATOM      2  C   UNL     1      33.820 -21.992 -17.147  0.00  0.00    -0.011 C 
ATOM      3  C   UNL     1      35.057 -21.701 -17.682  0.00  0.00    -0.004 C 
ATOM      4  C   UNL     1      32.659 -21.911 -17.888  0.00  0.00    -0.004 C 
ATOM      5  C   UNL     1      35.137 -21.309 -19.018  0.00  0.00    -0.000 C 
ATOM      6  C   UNL     1      32.739 -21.521 -19.224  0.00  0.00    -0.000 C 
ATOM      7  C   UNL     1      33.978 -21.219 -19.790  0.00  0.00    -0.000 C 
ENDBRANCH   1   2
BRANCH   1   8
ATOM      8  C   UNL     1      32.307 -22.716 -15.242  0.00  0.00    -0.011 C 
ATOM      9  C   UNL     1      31.980 -22.567 -13.910  0.00  0.00    -0.004 C 
ATOM     10  C   UNL     1      31.385 -23.125 -16.185  0.00  0.00    -0.004 C 
ATOM     11  C   UNL     1      30.674 -22.840 -13.502  0.00  0.00    -0.000 C 
ATOM     12  C   UNL     1      30.080 -23.398 -15.777  0.00  0.00    -0.000 C 
ATOM     13  C   UNL     1      29.724 -23.255 -14.436  0.00  0.00    -0.000 C 
ENDBRANCH   1   8
BRANCH   1  15
ATOM     14  O   UNL     1      34.607 -24.687 -15.756  0.00  0.00    -0.294 OA
ATOM     15  C   UNL     1      34.720 -23.535 -15.337  0.00  0.00    +0.173 C 
BRANCH  15  18
ATOM     16  O   UNL     1      37.425 -22.218 -16.081  0.00  0.00    -0.290 OA
ATOM     17  O   UNL     1      35.420 -24.619 -12.521  0.00  0.00    -0.290 OA
ATOM     18  C   UNL     1      35.859 -23.167 -14.449  0.00  0.00    +0.181 C 
ATOM     19  C   UNL     1      37.179 -22.997 -15.178  0.00  0.00    +0.187 C 
ATOM     20  C   UNL     1      36.170 -24.206 -13.385  0.00  0.00    +0.187 C 
ATOM     21  C   UNL     1      38.142 -23.941 -14.611  0.00  0.00    +0.038 C 
ATOM     22  C   UNL     1      37.554 -24.646 -13.565  0.00  0.00    +0.038 C 
ATOM     23  C   UNL     1      39.455 -24.157 -14.984  0.00  0.00    +0.003 C 
ATOM     24  C   UNL     1      38.251 -25.598 -12.847  0.00  0.00    +0.003 C 
ATOM     25  C   UNL     1      40.176 -25.118 -14.271  0.00  0.00    +0.000 C 
ATOM     26  C   UNL     1      39.580 -25.832 -13.213  0.00  0.00    +0.000 C 
ENDBRANCH  15  18
ENDBRANCH   1  15
TORSDOF 4
ENDMDL
