MODEL 1
REMARK VINA RESULT:     -11.2      0.000      0.000
REMARK  Name = 122335
REMARK  7 active torsions:
REMARK  status: ('A' for Active; 'I' for Inactive)
REMARK    1  A    between atoms: C_1  and  C_15
REMARK    2  A    between atoms: C_2  and  O_7
REMARK    3  A    between atoms: O_7  and  C_8
REMARK    4  A    between atoms: C_8  and  C_12
REMARK    5  A    between atoms: C_12  and  O_13
REMARK    6  A    between atoms: C_15  and  C_18
REMARK    7  A    between atoms: N_17  and  C_20
REMARK                            x       y       z     vdW  Elec       q    Type
REMARK                         _______ _______ _______ _____ _____    ______ ____
ROOT
ATOM      1  C   UNL     1      35.416 -21.298 -18.620  0.00  0.00    -0.013 C 
ATOM      2  C   UNL     1      35.268 -21.958 -15.921  0.00  0.00    +0.139 C 
ATOM      3  C   UNL     1      34.335 -22.037 -18.142  0.00  0.00    -0.001 C 
ATOM      4  C   UNL     1      36.423 -20.890 -17.747  0.00  0.00    -0.001 C 
ATOM      5  C   UNL     1      34.261 -22.368 -16.789  0.00  0.00    +0.037 C 
ATOM      6  C   UNL     1      36.349 -21.221 -16.393  0.00  0.00    +0.037 C 
ENDROOT
BRANCH   2   7
ATOM      7  O   UNL     1      35.195 -22.283 -14.595  0.00  0.00    -0.472 OA
BRANCH   7   8
ATOM      8  C   UNL     1      35.954 -23.417 -14.173  0.00  0.00    +0.221 C 
ATOM      9  C   UNL     1      36.107 -23.345 -12.657  0.00  0.00    +0.055 C 
ATOM     10  C   UNL     1      37.299 -23.381 -14.894  0.00  0.00    +0.055 C 
BRANCH   8  12
ATOM     11  O   UNL     1      35.534 -25.506 -15.351  0.00  0.00    -0.246 OA
ATOM     12  C   UNL     1      35.138 -24.634 -14.588  0.00  0.00    +0.350 C 
BRANCH  12  13
ATOM     13  O   UNL     1      33.903 -24.670 -14.026  0.00  0.00    -0.478 OA
ATOM     14  H   UNL     1      33.611 -25.443 -13.584  0.00  0.00    +0.295 HD
ENDBRANCH  12  13
ENDBRANCH   8  12
ENDBRANCH   7   8
ENDBRANCH   2   7
BRANCH   1  15
ATOM     15  C   UNL     1      35.495 -20.944 -20.067  0.00  0.00    +0.112 C 
BRANCH  15  18
ATOM     16  O   UNL     1      33.394 -19.776 -20.237  0.00  0.00    -0.274 OA
ATOM     17  N   UNL     1      35.335 -18.775 -21.098  0.00  0.00    -0.284 N 
ATOM     18  C   UNL     1      34.598 -19.775 -20.469  0.00  0.00    +0.231 C 
ATOM     19  H   UNL     1      36.300 -18.944 -21.200  0.00  0.00    +0.155 HD
BRANCH  17  20
ATOM     20  C   UNL     1      34.858 -17.544 -21.609  0.00  0.00    +0.050 C 
ATOM     21  C   UNL     1      34.204 -16.191 -23.478  0.00  0.00    -0.021 C 
ATOM     22  C   UNL     1      34.119 -15.293 -21.237  0.00  0.00    -0.021 C 
ATOM     23  C   UNL     1      34.588 -16.507 -20.733  0.00  0.00    +0.010 C 
ATOM     24  C   UNL     1      34.674 -17.404 -22.974  0.00  0.00    +0.010 C 
ATOM     25  C   UNL     1      33.928 -15.136 -22.610  0.00  0.00    -0.008 C 
ATOM     26  C   UNL     1      33.998 -16.022 -24.946  0.00  0.00    +0.031 C 
ATOM     27  C   UNL     1      33.824 -14.164 -20.309  0.00  0.00    +0.031 C 
ENDBRANCH  17  20
ENDBRANCH  15  18
ENDBRANCH   1  15
TORSDOF 7
ENDMDL
MODEL 2
REMARK VINA RESULT:     -11.2      0.037      1.713
REMARK  Name = 122335
REMARK  7 active torsions:
REMARK  status: ('A' for Active; 'I' for Inactive)
REMARK    1  A    between atoms: C_1  and  C_15
REMARK    2  A    between atoms: C_2  and  O_7
REMARK    3  A    between atoms: O_7  and  C_8
REMARK    4  A    between atoms: C_8  and  C_12
REMARK    5  A    between atoms: C_12  and  O_13
REMARK    6  A    between atoms: C_15  and  C_18
REMARK    7  A    between atoms: N_17  and  C_20
REMARK                            x       y       z     vdW  Elec       q    Type
REMARK                         _______ _______ _______ _____ _____    ______ ____
ROOT
ATOM      1  C   UNL     1      35.418 -21.285 -18.646  0.00  0.00    -0.013 C 
ATOM      2  C   UNL     1      35.241 -21.960 -15.953  0.00  0.00    +0.139 C 
ATOM      3  C   UNL     1      34.326 -22.016 -18.182  0.00  0.00    -0.001 C 
ATOM      4  C   UNL     1      36.422 -20.892 -17.762  0.00  0.00    -0.001 C 
ATOM      5  C   UNL     1      34.237 -22.354 -16.831  0.00  0.00    +0.037 C 
ATOM      6  C   UNL     1      36.333 -21.231 -16.411  0.00  0.00    +0.037 C 
ENDROOT
BRANCH   2   7
ATOM      7  O   UNL     1      35.153 -22.293 -14.630  0.00  0.00    -0.472 OA
BRANCH   7   8
ATOM      8  C   UNL     1      35.926 -23.414 -14.200  0.00  0.00    +0.221 C 
ATOM      9  C   UNL     1      36.084 -23.328 -12.686  0.00  0.00    +0.055 C 
ATOM     10  C   UNL     1      37.267 -23.370 -14.927  0.00  0.00    +0.055 C 
BRANCH   8  12
ATOM     11  O   UNL     1      35.534 -25.532 -15.338  0.00  0.00    -0.246 OA
ATOM     12  C   UNL     1      35.122 -24.644 -14.602  0.00  0.00    +0.350 C 
BRANCH  12  13
ATOM     13  O   UNL     1      33.877 -24.673 -14.060  0.00  0.00    -0.478 OA
ATOM     14  H   UNL     1      33.161 -24.268 -14.509  0.00  0.00    +0.295 HD
ENDBRANCH  12  13
ENDBRANCH   8  12
ENDBRANCH   7   8
ENDBRANCH   2   7
BRANCH   1  15
ATOM     15  C   UNL     1      35.513 -20.922 -20.090  0.00  0.00    +0.112 C 
BRANCH  15  18
ATOM     16  O   UNL     1      33.400 -19.782 -20.294  0.00  0.00    -0.274 OA
ATOM     17  N   UNL     1      35.345 -18.744 -21.100  0.00  0.00    -0.284 N 
ATOM     18  C   UNL     1      34.609 -19.762 -20.499  0.00  0.00    +0.231 C 
ATOM     19  H   UNL     1      36.315 -18.899 -21.181  0.00  0.00    +0.155 HD
BRANCH  17  20
ATOM     20  C   UNL     1      34.862 -17.515 -21.607  0.00  0.00    +0.050 C 
ATOM     21  C   UNL     1      34.107 -15.270 -21.229  0.00  0.00    -0.021 C 
ATOM     22  C   UNL     1      34.203 -16.159 -23.473  0.00  0.00    -0.021 C 
ATOM     23  C   UNL     1      34.680 -17.371 -22.973  0.00  0.00    +0.010 C 
ATOM     24  C   UNL     1      34.583 -16.482 -20.729  0.00  0.00    +0.010 C 
ATOM     25  C   UNL     1      33.917 -15.109 -22.601  0.00  0.00    -0.008 C 
ATOM     26  C   UNL     1      33.801 -14.146 -20.297  0.00  0.00    +0.031 C 
ATOM     27  C   UNL     1      33.999 -15.986 -24.940  0.00  0.00    +0.031 C 
ENDBRANCH  17  20
ENDBRANCH  15  18
ENDBRANCH   1  15
TORSDOF 7
ENDMDL
MODEL 3
REMARK VINA RESULT:     -11.2      3.554     10.094
REMARK  Name = 122335
REMARK  7 active torsions:
REMARK  status: ('A' for Active; 'I' for Inactive)
REMARK    1  A    between atoms: C_1  and  C_15
REMARK    2  A    between atoms: C_2  and  O_7
REMARK    3  A    between atoms: O_7  and  C_8
REMARK    4  A    between atoms: C_8  and  C_12
REMARK    5  A    between atoms: C_12  and  O_13
REMARK    6  A    between atoms: C_15  and  C_18
REMARK    7  A    between atoms: N_17  and  C_20
REMARK                            x       y       z     vdW  Elec       q    Type
REMARK                         _______ _______ _______ _____ _____    ______ ____
ROOT
ATOM      1  C   UNL     1      34.618 -17.118 -22.300  0.00  0.00    -0.013 C 
ATOM      2  C   UNL     1      34.194 -14.370 -22.399  0.00  0.00    +0.139 C 
ATOM      3  C   UNL     1      34.635 -16.454 -23.526  0.00  0.00    -0.001 C 
ATOM      4  C   UNL     1      34.389 -16.405 -21.124  0.00  0.00    -0.001 C 
ATOM      5  C   UNL     1      34.422 -15.076 -23.576  0.00  0.00    +0.037 C 
ATOM      6  C   UNL     1      34.176 -15.027 -21.173  0.00  0.00    +0.037 C 
ENDROOT
BRANCH   2   7
ATOM      7  O   UNL     1      33.985 -13.019 -22.449  0.00  0.00    -0.472 OA
BRANCH   7   8
ATOM      8  C   UNL     1      32.710 -12.587 -22.924  0.00  0.00    +0.221 C 
ATOM      9  C   UNL     1      31.682 -12.849 -21.828  0.00  0.00    +0.055 C 
ATOM     10  C   UNL     1      32.399 -13.355 -24.206  0.00  0.00    +0.055 C 
BRANCH   8  12
ATOM     11  O   UNL     1      31.982 -10.264 -22.994  0.00  0.00    -0.246 OA
ATOM     12  C   UNL     1      32.858 -11.096 -23.197  0.00  0.00    +0.350 C 
BRANCH  12  13
ATOM     13  O   UNL     1      34.075 -10.759 -23.696  0.00  0.00    -0.478 OA
ATOM     14  H   UNL     1      34.788 -11.364 -23.641  0.00  0.00    +0.295 HD
ENDBRANCH  12  13
ENDBRANCH   8  12
ENDBRANCH   7   8
ENDBRANCH   2   7
BRANCH   1  15
ATOM     15  C   UNL     1      34.846 -18.591 -22.247  0.00  0.00    +0.112 C 
BRANCH  15  18
ATOM     16  O   UNL     1      36.228 -18.614 -20.273  0.00  0.00    -0.274 OA
ATOM     17  N   UNL     1      34.459 -20.147 -20.452  0.00  0.00    -0.284 N 
ATOM     18  C   UNL     1      35.278 -19.103 -20.874  0.00  0.00    +0.231 C 
ATOM     19  H   UNL     1      33.737 -20.410 -21.069  0.00  0.00    +0.155 HD
BRANCH  17  20
ATOM     20  C   UNL     1      34.543 -20.873 -19.241  0.00  0.00    +0.050 C 
ATOM     21  C   UNL     1      35.832 -21.637 -17.368  0.00  0.00    -0.021 C 
ATOM     22  C   UNL     1      33.501 -22.239 -17.567  0.00  0.00    -0.021 C 
ATOM     23  C   UNL     1      33.418 -21.521 -18.760  0.00  0.00    +0.010 C 
ATOM     24  C   UNL     1      35.749 -20.921 -18.562  0.00  0.00    +0.010 C 
ATOM     25  C   UNL     1      34.709 -22.297 -16.871  0.00  0.00    -0.008 C 
ATOM     26  C   UNL     1      37.123 -21.699 -16.623  0.00  0.00    +0.031 C 
ATOM     27  C   UNL     1      32.300 -22.944 -17.035  0.00  0.00    +0.031 C 
ENDBRANCH  17  20
ENDBRANCH  15  18
ENDBRANCH   1  15
TORSDOF 7
ENDMDL
MODEL 4
REMARK VINA RESULT:     -11.2      3.507     10.040
REMARK  Name = 122335
REMARK  7 active torsions:
REMARK  status: ('A' for Active; 'I' for Inactive)
REMARK    1  A    between atoms: C_1  and  C_15
REMARK    2  A    between atoms: C_2  and  O_7
REMARK    3  A    between atoms: O_7  and  C_8
REMARK    4  A    between atoms: C_8  and  C_12
REMARK    5  A    between atoms: C_12  and  O_13
REMARK    6  A    between atoms: C_15  and  C_18
REMARK    7  A    between atoms: N_17  and  C_20
REMARK                            x       y       z     vdW  Elec       q    Type
REMARK                         _______ _______ _______ _____ _____    ______ ____
ROOT
ATOM      1  C   UNL     1      34.581 -17.225 -22.250  0.00  0.00    -0.013 C 
ATOM      2  C   UNL     1      34.190 -14.473 -22.366  0.00  0.00    +0.139 C 
ATOM      3  C   UNL     1      34.375 -16.501 -21.077  0.00  0.00    -0.001 C 
ATOM      4  C   UNL     1      34.591 -16.571 -23.482  0.00  0.00    -0.001 C 
ATOM      5  C   UNL     1      34.179 -15.121 -21.135  0.00  0.00    +0.037 C 
ATOM      6  C   UNL     1      34.395 -15.191 -23.540  0.00  0.00    +0.037 C 
ENDROOT
BRANCH   2   7
ATOM      7  O   UNL     1      33.999 -13.120 -22.423  0.00  0.00    -0.472 OA
BRANCH   7   8
ATOM      8  C   UNL     1      32.718 -12.675 -22.872  0.00  0.00    +0.221 C 
ATOM      9  C   UNL     1      31.707 -12.950 -21.764  0.00  0.00    +0.055 C 
ATOM     10  C   UNL     1      32.385 -13.420 -24.161  0.00  0.00    +0.055 C 
BRANCH   8  12
ATOM     11  O   UNL     1      32.005 -10.346 -22.881  0.00  0.00    -0.246 OA
ATOM     12  C   UNL     1      32.870 -11.180 -23.122  0.00  0.00    +0.350 C 
BRANCH  12  13
ATOM     13  O   UNL     1      34.075 -10.841 -23.648  0.00  0.00    -0.478 OA
ATOM     14  H   UNL     1      34.761 -10.533 -23.089  0.00  0.00    +0.295 HD
ENDBRANCH  12  13
ENDBRANCH   8  12
ENDBRANCH   7   8
ENDBRANCH   2   7
BRANCH   1  15
ATOM     15  C   UNL     1      34.790 -18.701 -22.188  0.00  0.00    +0.112 C 
BRANCH  15  18
ATOM     16  O   UNL     1      36.242 -18.732 -20.265  0.00  0.00    -0.274 OA
ATOM     17  N   UNL     1      34.428 -20.220 -20.356  0.00  0.00    -0.284 N 
ATOM     18  C   UNL     1      35.257 -19.204 -20.824  0.00  0.00    +0.231 C 
ATOM     19  H   UNL     1      33.677 -20.473 -20.942  0.00  0.00    +0.155 HD
BRANCH  17  20
ATOM     20  C   UNL     1      34.538 -20.931 -19.138  0.00  0.00    +0.050 C 
ATOM     21  C   UNL     1      33.532 -22.278 -17.427  0.00  0.00    -0.021 C 
ATOM     22  C   UNL     1      35.864 -21.664 -17.279  0.00  0.00    -0.021 C 
ATOM     23  C   UNL     1      35.756 -20.965 -18.481  0.00  0.00    +0.010 C 
ATOM     24  C   UNL     1      33.424 -21.577 -18.628  0.00  0.00    +0.010 C 
ATOM     25  C   UNL     1      34.752 -22.321 -16.752  0.00  0.00    -0.008 C 
ATOM     26  C   UNL     1      32.344 -22.981 -16.863  0.00  0.00    +0.031 C 
ATOM     27  C   UNL     1      37.168 -21.711 -16.557  0.00  0.00    +0.031 C 
ENDBRANCH  17  20
ENDBRANCH  15  18
ENDBRANCH   1  15
TORSDOF 7
ENDMDL
MODEL 5
REMARK VINA RESULT:     -11.1      3.694      9.185
REMARK  Name = 122335
REMARK  7 active torsions:
REMARK  status: ('A' for Active; 'I' for Inactive)
REMARK    1  A    between atoms: C_1  and  C_15
REMARK    2  A    between atoms: C_2  and  O_7
REMARK    3  A    between atoms: O_7  and  C_8
REMARK    4  A    between atoms: C_8  and  C_12
REMARK    5  A    between atoms: C_12  and  O_13
REMARK    6  A    between atoms: C_15  and  C_18
REMARK    7  A    between atoms: N_17  and  C_20
REMARK                            x       y       z     vdW  Elec       q    Type
REMARK                         _______ _______ _______ _____ _____    ______ ____
ROOT
ATOM      1  C   UNL     1      34.404 -21.183 -18.874  0.00  0.00    -0.013 C 
ATOM      2  C   UNL     1      34.216 -19.493 -21.077  0.00  0.00    +0.139 C 
ATOM      3  C   UNL     1      35.561 -20.739 -19.513  0.00  0.00    -0.001 C 
ATOM      4  C   UNL     1      33.152 -20.779 -19.338  0.00  0.00    -0.001 C 
ATOM      5  C   UNL     1      35.467 -19.892 -20.617  0.00  0.00    +0.037 C 
ATOM      6  C   UNL     1      33.058 -19.932 -20.443  0.00  0.00    +0.037 C 
ENDROOT
BRANCH   2   7
ATOM      7  O   UNL     1      34.124 -18.663 -22.159  0.00  0.00    -0.472 OA
BRANCH   7   8
ATOM      8  C   UNL     1      34.929 -17.483 -22.129  0.00  0.00    +0.221 C 
ATOM      9  C   UNL     1      36.393 -17.908 -22.183  0.00  0.00    +0.055 C 
ATOM     10  C   UNL     1      34.594 -16.715 -20.854  0.00  0.00    +0.055 C 
BRANCH   8  12
ATOM     11  O   UNL     1      33.865 -17.133 -24.292  0.00  0.00    -0.246 OA
ATOM     12  C   UNL     1      34.538 -16.690 -23.370  0.00  0.00    +0.350 C 
BRANCH  12  13
ATOM     13  O   UNL     1      35.013 -15.417 -23.366  0.00  0.00    -0.478 OA
ATOM     14  H   UNL     1      34.671 -14.787 -23.970  0.00  0.00    +0.295 HD
ENDBRANCH  12  13
ENDBRANCH   8  12
ENDBRANCH   7   8
ENDBRANCH   2   7
BRANCH   1  15
ATOM     15  C   UNL     1      34.504 -22.088 -17.693  0.00  0.00    +0.112 C 
BRANCH  15  18
ATOM     16  O   UNL     1      32.935 -23.881 -18.054  0.00  0.00    -0.274 OA
ATOM     17  N   UNL     1      32.513 -22.311 -16.361  0.00  0.00    -0.284 N 
ATOM     18  C   UNL     1      33.230 -22.881 -17.409  0.00  0.00    +0.231 C 
ATOM     19  H   UNL     1      32.903 -21.503 -15.954  0.00  0.00    +0.155 HD
BRANCH  17  20
ATOM     20  C   UNL     1      31.287 -22.758 -15.811  0.00  0.00    +0.050 C 
ATOM     21  C   UNL     1      30.088 -23.890 -14.071  0.00  0.00    -0.021 C 
ATOM     22  C   UNL     1      28.899 -22.933 -15.943  0.00  0.00    -0.021 C 
ATOM     23  C   UNL     1      30.107 -22.492 -16.484  0.00  0.00    +0.010 C 
ATOM     24  C   UNL     1      31.295 -23.451 -14.613  0.00  0.00    +0.010 C 
ATOM     25  C   UNL     1      28.890 -23.633 -14.737  0.00  0.00    -0.008 C 
ATOM     26  C   UNL     1      30.077 -24.638 -12.780  0.00  0.00    +0.031 C 
ATOM     27  C   UNL     1      27.618 -22.658 -16.655  0.00  0.00    +0.031 C 
ENDBRANCH  17  20
ENDBRANCH  15  18
ENDBRANCH   1  15
TORSDOF 7
ENDMDL
MODEL 6
REMARK VINA RESULT:     -10.6      2.405      9.519
REMARK  Name = 122335
REMARK  7 active torsions:
REMARK  status: ('A' for Active; 'I' for Inactive)
REMARK    1  A    between atoms: C_1  and  C_15
REMARK    2  A    between atoms: C_2  and  O_7
REMARK    3  A    between atoms: O_7  and  C_8
REMARK    4  A    between atoms: C_8  and  C_12
REMARK    5  A    between atoms: C_12  and  O_13
REMARK    6  A    between atoms: C_15  and  C_18
REMARK    7  A    between atoms: N_17  and  C_20
REMARK                            x       y       z     vdW  Elec       q    Type
REMARK                         _______ _______ _______ _____ _____    ______ ____
ROOT
ATOM      1  C   UNL     1      33.945 -21.332 -18.776  0.00  0.00    -0.013 C 
ATOM      2  C   UNL     1      34.097 -19.668 -21.001  0.00  0.00    +0.139 C 
ATOM      3  C   UNL     1      35.182 -21.058 -19.359  0.00  0.00    -0.001 C 
ATOM      4  C   UNL     1      32.784 -20.771 -19.309  0.00  0.00    -0.001 C 
ATOM      5  C   UNL     1      35.258 -20.224 -20.474  0.00  0.00    +0.037 C 
ATOM      6  C   UNL     1      32.861 -19.937 -20.424  0.00  0.00    +0.037 C 
ENDROOT
BRANCH   2   7
ATOM      7  O   UNL     1      34.173 -18.850 -22.095  0.00  0.00    -0.472 OA
BRANCH   7   8
ATOM      8  C   UNL     1      34.981 -17.680 -21.963  0.00  0.00    +0.221 C 
ATOM      9  C   UNL     1      36.444 -18.111 -21.976  0.00  0.00    +0.055 C 
ATOM     10  C   UNL     1      34.593 -16.983 -20.662  0.00  0.00    +0.055 C 
BRANCH   8  12
ATOM     11  O   UNL     1      34.023 -17.204 -24.151  0.00  0.00    -0.246 OA
ATOM     12  C   UNL     1      34.649 -16.815 -23.172  0.00  0.00    +0.350 C 
BRANCH  12  13
ATOM     13  O   UNL     1      35.117 -15.545 -23.069  0.00  0.00    -0.478 OA
ATOM     14  H   UNL     1      34.823 -14.991 -22.373  0.00  0.00    +0.295 HD
ENDBRANCH  12  13
ENDBRANCH   8  12
ENDBRANCH   7   8
ENDBRANCH   2   7
BRANCH   1  15
ATOM     15  C   UNL     1      33.863 -22.223 -17.583  0.00  0.00    +0.112 C 
BRANCH  15  18
ATOM     16  O   UNL     1      35.971 -21.321 -16.842  0.00  0.00    -0.274 OA
ATOM     17  N   UNL     1      35.028 -23.133 -15.684  0.00  0.00    -0.284 N 
ATOM     18  C   UNL     1      35.087 -22.154 -16.673  0.00  0.00    +0.231 C 
ATOM     19  H   UNL     1      34.237 -23.719 -15.699  0.00  0.00    +0.155 HD
BRANCH  17  20
ATOM     20  C   UNL     1      35.973 -23.383 -14.660  0.00  0.00    +0.050 C 
ATOM     21  C   UNL     1      36.592 -23.291 -12.345  0.00  0.00    -0.021 C 
ATOM     22  C   UNL     1      38.121 -24.204 -13.979  0.00  0.00    -0.021 C 
ATOM     23  C   UNL     1      37.189 -23.959 -14.987  0.00  0.00    +0.010 C 
ATOM     24  C   UNL     1      35.662 -23.045 -13.354  0.00  0.00    +0.010 C 
ATOM     25  C   UNL     1      37.822 -23.870 -12.657  0.00  0.00    -0.008 C 
ATOM     26  C   UNL     1      36.273 -22.935 -10.932  0.00  0.00    +0.031 C 
ATOM     27  C   UNL     1      39.436 -24.823 -14.312  0.00  0.00    +0.031 C 
ENDBRANCH  17  20
ENDBRANCH  15  18
ENDBRANCH   1  15
TORSDOF 7
ENDMDL
MODEL 7
REMARK VINA RESULT:     -10.4      5.509      9.267
REMARK  Name = 122335
REMARK  7 active torsions:
REMARK  status: ('A' for Active; 'I' for Inactive)
REMARK    1  A    between atoms: C_1  and  C_15
REMARK    2  A    between atoms: C_2  and  O_7
REMARK    3  A    between atoms: O_7  and  C_8
REMARK    4  A    between atoms: C_8  and  C_12
REMARK    5  A    between atoms: C_12  and  O_13
REMARK    6  A    between atoms: C_15  and  C_18
REMARK    7  A    between atoms: N_17  and  C_20
REMARK                            x       y       z     vdW  Elec       q    Type
REMARK                         _______ _______ _______ _____ _____    ______ ____
ROOT
ATOM      1  C   UNL     1      32.803 -13.477 -22.462  0.00  0.00    -0.013 C 
ATOM      2  C   UNL     1      34.270 -15.517 -21.267  0.00  0.00    +0.139 C 
ATOM      3  C   UNL     1      32.774 -13.637 -21.078  0.00  0.00    -0.001 C 
ATOM      4  C   UNL     1      33.567 -14.339 -23.248  0.00  0.00    -0.001 C 
ATOM      5  C   UNL     1      33.509 -14.660 -20.479  0.00  0.00    +0.037 C 
ATOM      6  C   UNL     1      34.303 -15.361 -22.649  0.00  0.00    +0.037 C 
ENDROOT
BRANCH   2   7
ATOM      7  O   UNL     1      34.990 -16.520 -20.679  0.00  0.00    -0.472 OA
BRANCH   7   8
ATOM      8  C   UNL     1      35.066 -17.755 -21.393  0.00  0.00    +0.221 C 
ATOM      9  C   UNL     1      35.027 -17.441 -22.886  0.00  0.00    +0.055 C 
ATOM     10  C   UNL     1      33.894 -18.628 -20.953  0.00  0.00    +0.055 C 
BRANCH   8  12
ATOM     11  O   UNL     1      36.574 -19.049 -19.986  0.00  0.00    -0.246 OA
ATOM     12  C   UNL     1      36.398 -18.377 -20.994  0.00  0.00    +0.350 C 
BRANCH  12  13
ATOM     13  O   UNL     1      37.398 -18.116 -21.875  0.00  0.00    -0.478 OA
ATOM     14  H   UNL     1      37.956 -18.809 -22.169  0.00  0.00    +0.295 HD
ENDBRANCH  12  13
ENDBRANCH   8  12
ENDBRANCH   7   8
ENDBRANCH   2   7
BRANCH   1  15
ATOM     15  C   UNL     1      32.018 -12.382 -23.103  0.00  0.00    +0.112 C 
BRANCH  15  18
ATOM     16  O   UNL     1      33.870 -10.910 -23.559  0.00  0.00    -0.274 OA
ATOM     17  N   UNL     1      31.923 -10.034 -22.583  0.00  0.00    -0.284 N 
ATOM     18  C   UNL     1      32.733 -11.033 -23.118  0.00  0.00    +0.231 C 
ATOM     19  H   UNL     1      31.030 -10.316 -22.276  0.00  0.00    +0.155 HD
BRANCH  17  20
ATOM     20  C   UNL     1      32.234  -8.662 -22.429  0.00  0.00    +0.050 C 
ATOM     21  C   UNL     1      33.144  -6.631 -23.321  0.00  0.00    -0.021 C 
ATOM     22  C   UNL     1      32.235  -6.677 -21.083  0.00  0.00    -0.021 C 
ATOM     23  C   UNL     1      31.927  -8.029 -21.236  0.00  0.00    +0.010 C 
ATOM     24  C   UNL     1      32.838  -7.983 -23.473  0.00  0.00    +0.010 C 
ATOM     25  C   UNL     1      32.843  -5.978 -22.126  0.00  0.00    -0.008 C 
ATOM     26  C   UNL     1      33.794  -5.883 -24.436  0.00  0.00    +0.031 C 
ATOM     27  C   UNL     1      31.913  -5.978 -19.806  0.00  0.00    +0.031 C 
ENDBRANCH  17  20
ENDBRANCH  15  18
ENDBRANCH   1  15
TORSDOF 7
ENDMDL
MODEL 8
REMARK VINA RESULT:     -10.4      5.508      9.403
REMARK  Name = 122335
REMARK  7 active torsions:
REMARK  status: ('A' for Active; 'I' for Inactive)
REMARK    1  A    between atoms: C_1  and  C_15
REMARK    2  A    between atoms: C_2  and  O_7
REMARK    3  A    between atoms: O_7  and  C_8
REMARK    4  A    between atoms: C_8  and  C_12
REMARK    5  A    between atoms: C_12  and  O_13
REMARK    6  A    between atoms: C_15  and  C_18
REMARK    7  A    between atoms: N_17  and  C_20
REMARK                            x       y       z     vdW  Elec       q    Type
REMARK                         _______ _______ _______ _____ _____    ______ ____
ROOT
ATOM      1  C   UNL     1      32.803 -13.475 -22.464  0.00  0.00    -0.013 C 
ATOM      2  C   UNL     1      34.261 -15.520 -21.265  0.00  0.00    +0.139 C 
ATOM      3  C   UNL     1      32.763 -13.641 -21.080  0.00  0.00    -0.001 C 
ATOM      4  C   UNL     1      33.574 -14.333 -23.247  0.00  0.00    -0.001 C 
ATOM      5  C   UNL     1      33.494 -14.666 -20.479  0.00  0.00    +0.037 C 
ATOM      6  C   UNL     1      34.305 -15.358 -22.646  0.00  0.00    +0.037 C 
ENDROOT
BRANCH   2   7
ATOM      7  O   UNL     1      34.977 -16.524 -20.676  0.00  0.00    -0.472 OA
BRANCH   7   8
ATOM      8  C   UNL     1      35.063 -17.754 -21.396  0.00  0.00    +0.221 C 
ATOM      9  C   UNL     1      35.039 -17.432 -22.887  0.00  0.00    +0.055 C 
ATOM     10  C   UNL     1      33.889 -18.632 -20.973  0.00  0.00    +0.055 C 
BRANCH   8  12
ATOM     11  O   UNL     1      36.558 -19.060 -19.985  0.00  0.00    -0.246 OA
ATOM     12  C   UNL     1      36.393 -18.376 -20.988  0.00  0.00    +0.350 C 
BRANCH  12  13
ATOM     13  O   UNL     1      37.403 -18.100 -21.852  0.00  0.00    -0.478 OA
ATOM     14  H   UNL     1      37.751 -17.232 -21.905  0.00  0.00    +0.295 HD
ENDBRANCH  12  13
ENDBRANCH   8  12
ENDBRANCH   7   8
ENDBRANCH   2   7
BRANCH   1  15
ATOM     15  C   UNL     1      32.021 -12.378 -23.106  0.00  0.00    +0.112 C 
BRANCH  15  18
ATOM     16  O   UNL     1      33.879 -10.913 -23.561  0.00  0.00    -0.274 OA
ATOM     17  N   UNL     1      31.934 -10.030 -22.588  0.00  0.00    -0.284 N 
ATOM     18  C   UNL     1      32.741 -11.032 -23.121  0.00  0.00    +0.231 C 
ATOM     19  H   UNL     1      31.040 -10.308 -22.282  0.00  0.00    +0.155 HD
BRANCH  17  20
ATOM     20  C   UNL     1      32.249  -8.659 -22.435  0.00  0.00    +0.050 C 
ATOM     21  C   UNL     1      32.252  -6.671 -21.093  0.00  0.00    -0.021 C 
ATOM     22  C   UNL     1      33.168  -6.632 -23.328  0.00  0.00    -0.021 C 
ATOM     23  C   UNL     1      32.859  -7.983 -23.479  0.00  0.00    +0.010 C 
ATOM     24  C   UNL     1      31.941  -8.022 -21.245  0.00  0.00    +0.010 C 
ATOM     25  C   UNL     1      32.864  -5.975 -22.135  0.00  0.00    -0.008 C 
ATOM     26  C   UNL     1      31.927  -5.969 -19.818  0.00  0.00    +0.031 C 
ATOM     27  C   UNL     1      33.824  -5.887 -24.442  0.00  0.00    +0.031 C 
ENDBRANCH  17  20
ENDBRANCH  15  18
ENDBRANCH   1  15
TORSDOF 7
ENDMDL
MODEL 9
REMARK VINA RESULT:     -10.4      4.597      8.297
REMARK  Name = 122335
REMARK  7 active torsions:
REMARK  status: ('A' for Active; 'I' for Inactive)
REMARK    1  A    between atoms: C_1  and  C_15
REMARK    2  A    between atoms: C_2  and  O_7
REMARK    3  A    between atoms: O_7  and  C_8
REMARK    4  A    between atoms: C_8  and  C_12
REMARK    5  A    between atoms: C_12  and  O_13
REMARK    6  A    between atoms: C_15  and  C_18
REMARK    7  A    between atoms: N_17  and  C_20
REMARK                            x       y       z     vdW  Elec       q    Type
REMARK                         _______ _______ _______ _____ _____    ______ ____
ROOT
ATOM      1  C   UNL     1      33.499 -14.379 -23.162  0.00  0.00    -0.013 C 
ATOM      2  C   UNL     1      34.634 -16.296 -21.494  0.00  0.00    +0.139 C 
ATOM      3  C   UNL     1      34.061 -15.533 -23.707  0.00  0.00    -0.001 C 
ATOM      4  C   UNL     1      33.506 -14.185 -21.781  0.00  0.00    -0.001 C 
ATOM      5  C   UNL     1      34.629 -16.494 -22.871  0.00  0.00    +0.037 C 
ATOM      6  C   UNL     1      34.075 -15.146 -20.945  0.00  0.00    +0.037 C 
ENDROOT
BRANCH   2   7
ATOM      7  O   UNL     1      35.192 -17.238 -20.675  0.00  0.00    -0.472 OA
BRANCH   7   8
ATOM      8  C   UNL     1      35.547 -18.481 -21.281  0.00  0.00    +0.221 C 
ATOM      9  C   UNL     1      36.800 -18.257 -22.121  0.00  0.00    +0.055 C 
ATOM     10  C   UNL     1      34.362 -18.953 -22.119  0.00  0.00    +0.055 C 
BRANCH   8  12
ATOM     11  O   UNL     1      35.188 -20.463 -19.911  0.00  0.00    -0.246 OA
ATOM     12  C   UNL     1      35.820 -19.436 -20.126  0.00  0.00    +0.350 C 
BRANCH  12  13
ATOM     13  O   UNL     1      36.851 -19.042 -19.335  0.00  0.00    -0.478 OA
ATOM     14  H   UNL     1      36.834 -18.197 -18.928  0.00  0.00    +0.295 HD
ENDBRANCH  12  13
ENDBRANCH   8  12
ENDBRANCH   7   8
ENDBRANCH   2   7
BRANCH   1  15
ATOM     15  C   UNL     1      32.891 -13.352 -24.057  0.00  0.00    +0.112 C 
BRANCH  15  18
ATOM     16  O   UNL     1      33.825 -11.143 -23.819  0.00  0.00    -0.274 OA
ATOM     17  N   UNL     1      31.888 -11.705 -22.617  0.00  0.00    -0.284 N 
ATOM     18  C   UNL     1      32.943 -11.933 -23.496  0.00  0.00    +0.231 C 
ATOM     19  H   UNL     1      31.269 -12.458 -22.476  0.00  0.00    +0.155 HD
BRANCH  17  20
ATOM     20  C   UNL     1      31.601 -10.517 -21.903  0.00  0.00    +0.050 C 
ATOM     21  C   UNL     1      31.152  -8.161 -21.896  0.00  0.00    -0.021 C 
ATOM     22  C   UNL     1      31.210  -9.395 -19.820  0.00  0.00    -0.021 C 
ATOM     23  C   UNL     1      31.492 -10.566 -20.523  0.00  0.00    +0.010 C 
ATOM     24  C   UNL     1      31.435  -9.332 -22.599  0.00  0.00    +0.010 C 
ATOM     25  C   UNL     1      31.041  -8.193 -20.506  0.00  0.00    -0.008 C 
ATOM     26  C   UNL     1      30.969  -6.875 -22.629  0.00  0.00    +0.031 C 
ATOM     27  C   UNL     1      31.091  -9.428 -18.333  0.00  0.00    +0.031 C 
ENDBRANCH  17  20
ENDBRANCH  15  18
ENDBRANCH   1  15
TORSDOF 7
ENDMDL
