MODEL 1
REMARK VINA RESULT:     -12.7      0.000      0.000
REMARK  Name = 3168
REMARK  6 active torsions:
REMARK  status: ('A' for Active; 'I' for Inactive)
REMARK    1  A    between atoms: N_1  and  C_19
REMARK    2  A    between atoms: C_5  and  N_9
REMARK    3  A    between atoms: C_19  and  C_20
REMARK    4  A    between atoms: C_20  and  C_21
REMARK    5  A    between atoms: C_21  and  C_23
REMARK    6  A    between atoms: C_23  and  C_25
REMARK                            x       y       z     vdW  Elec       q    Type
REMARK                         _______ _______ _______ _____ _____    ______ ____
ROOT
ATOM      1  N   UNL     1      35.285 -19.580 -20.071  0.00  0.00    +0.390 N 
ATOM      2  C   UNL     1      36.361 -19.003 -20.887  0.00  0.00    -0.071 C 
ATOM      3  C   UNL     1      35.915 -17.658 -21.482  0.00  0.00    +0.021 C 
ATOM      4  C   UNL     1      34.100 -19.869 -20.896  0.00  0.00    -0.049 C 
ATOM      5  C   UNL     1      34.531 -17.713 -22.065  0.00  0.00    +0.037 C 
ATOM      6  C   UNL     1      33.705 -18.738 -21.806  0.00  0.00    -0.036 C 
ATOM      7  H   UNL     1      35.024 -18.891 -19.366  0.00  0.00    -0.079 HD
ENDROOT
BRANCH   5   9
ATOM      8  O   UNL     1      33.978 -17.770 -25.005  0.00  0.00    -0.246 OA
ATOM      9  N   UNL     1      34.158 -16.684 -22.881  0.00  0.00    -0.263 N 
ATOM     10  N   UNL     1      33.549 -15.467 -24.710  0.00  0.00    -0.305 N 
ATOM     11  C   UNL     1      33.952 -15.349 -22.485  0.00  0.00    +0.083 A 
ATOM     12  C   UNL     1      33.907 -16.779 -24.290  0.00  0.00    +0.332 A 
ATOM     13  C   UNL     1      33.581 -14.614 -23.609  0.00  0.00    +0.076 A 
ATOM     14  C   UNL     1      34.064 -14.751 -21.246  0.00  0.00    +0.019 C 
ATOM     15  C   UNL     1      33.307 -13.265 -23.557  0.00  0.00    +0.019 C 
ATOM     16  C   UNL     1      33.790 -13.380 -21.167  0.00  0.00    +0.002 C 
ATOM     17  C   UNL     1      33.416 -12.646 -22.311  0.00  0.00    +0.002 C 
ATOM     18  H   UNL     1      33.317 -15.205 -25.631  0.00  0.00    +0.170 HD
ENDBRANCH   5   9
BRANCH   1  19
ATOM     19  C   UNL     1      35.740 -20.784 -19.378  0.00  0.00    -0.076 C 
BRANCH  19  20
ATOM     20  C   UNL     1      34.622 -21.828 -19.345  0.00  0.00    -0.015 C 
BRANCH  20  21
ATOM     21  C   UNL     1      34.136 -22.115 -17.921  0.00  0.00    +0.067 C 
BRANCH  21  23
ATOM     22  O   UNL     1      31.880 -21.799 -18.718  0.00  0.00    -0.291 OA
ATOM     23  C   UNL     1      32.620 -22.108 -17.787  0.00  0.00    +0.173 C 
BRANCH  23  25
ATOM     24  F   UNL     1      30.363 -23.616 -12.908  0.00  0.00    -0.204 F 
ATOM     25  C   UNL     1      32.017 -22.509 -16.484  0.00  0.00    +0.035 C 
ATOM     26  C   UNL     1      32.853 -22.884 -15.457  0.00  0.00    +0.005 C 
ATOM     27  C   UNL     1      30.646 -22.491 -16.356  0.00  0.00    +0.005 C 
ATOM     28  C   UNL     1      32.289 -23.262 -14.238  0.00  0.00    +0.030 C 
ATOM     29  C   UNL     1      30.082 -22.869 -15.138  0.00  0.00    +0.030 C 
ATOM     30  C   UNL     1      30.904 -23.254 -14.078  0.00  0.00    +0.140 C 
ENDBRANCH  23  25
ENDBRANCH  21  23
ENDBRANCH  20  21
ENDBRANCH  19  20
ENDBRANCH   1  19
TORSDOF 6
ENDMDL
MODEL 2
REMARK VINA RESULT:     -12.6      4.034     10.215
REMARK  Name = 3168
REMARK  6 active torsions:
REMARK  status: ('A' for Active; 'I' for Inactive)
REMARK    1  A    between atoms: N_1  and  C_19
REMARK    2  A    between atoms: C_5  and  N_9
REMARK    3  A    between atoms: C_19  and  C_20
REMARK    4  A    between atoms: C_20  and  C_21
REMARK    5  A    between atoms: C_21  and  C_23
REMARK    6  A    between atoms: C_23  and  C_25
REMARK                            x       y       z     vdW  Elec       q    Type
REMARK                         _______ _______ _______ _____ _____    ______ ____
ROOT
ATOM      1  N   UNL     1      35.050 -20.849 -18.827  0.00  0.00    +0.390 N 
ATOM      2  C   UNL     1      34.185 -21.987 -19.158  0.00  0.00    -0.071 C 
ATOM      3  C   UNL     1      33.435 -22.468 -17.905  0.00  0.00    +0.021 C 
ATOM      4  C   UNL     1      36.085 -21.242 -17.856  0.00  0.00    -0.049 C 
ATOM      5  C   UNL     1      34.330 -22.579 -16.702  0.00  0.00    +0.037 C 
ATOM      6  C   UNL     1      35.552 -22.028 -16.689  0.00  0.00    -0.036 C 
ATOM      7  H   UNL     1      34.468 -20.128 -18.401  0.00  0.00    -0.079 HD
ENDROOT
BRANCH   5   9
ATOM      8  O   UNL     1      35.729 -24.635 -15.038  0.00  0.00    -0.246 OA
ATOM      9  N   UNL     1      33.851 -23.279 -15.632  0.00  0.00    -0.263 N 
ATOM     10  N   UNL     1      33.681 -24.712 -13.868  0.00  0.00    -0.305 N 
ATOM     11  C   UNL     1      32.559 -23.166 -15.083  0.00  0.00    +0.083 A 
ATOM     12  C   UNL     1      34.577 -24.256 -14.874  0.00  0.00    +0.332 A 
ATOM     13  C   UNL     1      32.466 -24.045 -14.007  0.00  0.00    +0.076 A 
ATOM     14  C   UNL     1      31.492 -22.371 -15.450  0.00  0.00    +0.019 C 
ATOM     15  C   UNL     1      31.321 -24.175 -13.251  0.00  0.00    +0.019 C 
ATOM     16  C   UNL     1      30.317 -22.484 -14.698  0.00  0.00    +0.002 C 
ATOM     17  C   UNL     1      30.233 -23.377 -13.610  0.00  0.00    +0.002 C 
ATOM     18  H   UNL     1      33.886 -25.390 -13.183  0.00  0.00    +0.170 HD
ENDBRANCH   5   9
BRANCH   1  19
ATOM     19  C   UNL     1      35.658 -20.284 -20.031  0.00  0.00    -0.076 C 
BRANCH  19  20
ATOM     20  C   UNL     1      34.606 -19.540 -20.854  0.00  0.00    -0.015 C 
BRANCH  20  21
ATOM     21  C   UNL     1      35.228 -18.492 -21.782  0.00  0.00    +0.067 C 
BRANCH  21  23
ATOM     22  O   UNL     1      34.921 -16.613 -20.298  0.00  0.00    -0.291 OA
ATOM     23  C   UNL     1      34.826 -17.065 -21.437  0.00  0.00    +0.173 C 
BRANCH  23  25
ATOM     24  F   UNL     1      32.927 -13.764 -25.520  0.00  0.00    -0.204 F 
ATOM     25  C   UNL     1      34.317 -16.183 -22.526  0.00  0.00    +0.035 C 
ATOM     26  C   UNL     1      34.101 -16.730 -23.772  0.00  0.00    +0.005 C 
ATOM     27  C   UNL     1      34.084 -14.856 -22.248  0.00  0.00    +0.005 C 
ATOM     28  C   UNL     1      33.627 -15.905 -24.792  0.00  0.00    +0.030 C 
ATOM     29  C   UNL     1      33.611 -14.030 -23.268  0.00  0.00    +0.030 C 
ATOM     30  C   UNL     1      33.382 -14.556 -24.541  0.00  0.00    +0.140 C 
ENDBRANCH  23  25
ENDBRANCH  21  23
ENDBRANCH  20  21
ENDBRANCH  19  20
ENDBRANCH   1  19
TORSDOF 6
ENDMDL
MODEL 3
REMARK VINA RESULT:     -12.6      4.467      9.687
REMARK  Name = 3168
REMARK  6 active torsions:
REMARK  status: ('A' for Active; 'I' for Inactive)
REMARK    1  A    between atoms: N_1  and  C_19
REMARK    2  A    between atoms: C_5  and  N_9
REMARK    3  A    between atoms: C_19  and  C_20
REMARK    4  A    between atoms: C_20  and  C_21
REMARK    5  A    between atoms: C_21  and  C_23
REMARK    6  A    between atoms: C_23  and  C_25
REMARK                            x       y       z     vdW  Elec       q    Type
REMARK                         _______ _______ _______ _____ _____    ______ ____
ROOT
ATOM      1  N   UNL     1      33.354 -15.231 -23.426  0.00  0.00    +0.390 N 
ATOM      2  C   UNL     1      34.103 -16.246 -24.177  0.00  0.00    -0.071 C 
ATOM      3  C   UNL     1      34.196 -17.548 -23.366  0.00  0.00    +0.021 C 
ATOM      4  C   UNL     1      34.049 -14.886 -22.175  0.00  0.00    -0.049 C 
ATOM      5  C   UNL     1      34.565 -17.309 -21.928  0.00  0.00    +0.037 C 
ATOM      6  C   UNL     1      34.511 -16.082 -21.389  0.00  0.00    -0.036 C 
ATOM      7  H   UNL     1      32.445 -15.627 -23.189  0.00  0.00    -0.079 HD
ENDROOT
BRANCH   5   9
ATOM      8  O   UNL     1      37.350 -18.132 -21.206  0.00  0.00    -0.246 OA
ATOM      9  N   UNL     1      34.972 -18.391 -21.202  0.00  0.00    -0.263 N 
ATOM     10  N   UNL     1      36.265 -19.926 -20.121  0.00  0.00    -0.305 N 
ATOM     11  C   UNL     1      34.131 -19.365 -20.630  0.00  0.00    +0.083 A 
ATOM     12  C   UNL     1      36.330 -18.730 -20.890  0.00  0.00    +0.332 A 
ATOM     13  C   UNL     1      34.931 -20.298 -19.973  0.00  0.00    +0.076 A 
ATOM     14  C   UNL     1      32.757 -19.489 -20.645  0.00  0.00    +0.019 C 
ATOM     15  C   UNL     1      34.409 -21.385 -19.306  0.00  0.00    +0.019 C 
ATOM     16  C   UNL     1      32.202 -20.585 -19.975  0.00  0.00    +0.002 C 
ATOM     17  C   UNL     1      33.020 -21.523 -19.313  0.00  0.00    +0.002 C 
ATOM     18  H   UNL     1      37.039 -20.413 -19.754  0.00  0.00    +0.170 HD
ENDBRANCH   5   9
BRANCH   1  19
ATOM     19  C   UNL     1      33.128 -14.037 -24.239  0.00  0.00    -0.076 C 
BRANCH  19  20
ATOM     20  C   UNL     1      33.229 -12.781 -23.372  0.00  0.00    -0.015 C 
BRANCH  20  21
ATOM     21  C   UNL     1      31.853 -12.220 -23.000  0.00  0.00    +0.067 C 
BRANCH  21  23
ATOM     22  O   UNL     1      31.615 -12.989 -20.724  0.00  0.00    -0.291 OA
ATOM     23  C   UNL     1      31.661 -12.038 -21.501  0.00  0.00    +0.173 C 
BRANCH  23  25
ATOM     24  F   UNL     1      31.229  -6.854 -19.473  0.00  0.00    -0.204 F 
ATOM     25  C   UNL     1      31.544 -10.654 -20.958  0.00  0.00    +0.035 C 
ATOM     26  C   UNL     1      31.502  -9.600 -21.843  0.00  0.00    +0.005 C 
ATOM     27  C   UNL     1      31.484 -10.481 -19.594  0.00  0.00    +0.005 C 
ATOM     28  C   UNL     1      31.395  -8.305 -21.337  0.00  0.00    +0.030 C 
ATOM     29  C   UNL     1      31.377  -9.186 -19.087  0.00  0.00    +0.030 C 
ATOM     30  C   UNL     1      31.332  -8.097 -19.959  0.00  0.00    +0.140 C 
ENDBRANCH  23  25
ENDBRANCH  21  23
ENDBRANCH  20  21
ENDBRANCH  19  20
ENDBRANCH   1  19
TORSDOF 6
ENDMDL
MODEL 4
REMARK VINA RESULT:     -12.3      3.660      6.250
REMARK  Name = 3168
REMARK  6 active torsions:
REMARK  status: ('A' for Active; 'I' for Inactive)
REMARK    1  A    between atoms: N_1  and  C_19
REMARK    2  A    between atoms: C_5  and  N_9
REMARK    3  A    between atoms: C_19  and  C_20
REMARK    4  A    between atoms: C_20  and  C_21
REMARK    5  A    between atoms: C_21  and  C_23
REMARK    6  A    between atoms: C_23  and  C_25
REMARK                            x       y       z     vdW  Elec       q    Type
REMARK                         _______ _______ _______ _____ _____    ______ ____
ROOT
ATOM      1  N   UNL     1      34.027 -14.536 -23.482  0.00  0.00    +0.390 N 
ATOM      2  C   UNL     1      32.911 -14.104 -24.332  0.00  0.00    -0.071 C 
ATOM      3  C   UNL     1      32.762 -12.575 -24.279  0.00  0.00    +0.021 C 
ATOM      4  C   UNL     1      33.773 -14.198 -22.072  0.00  0.00    -0.049 C 
ATOM      5  C   UNL     1      32.841 -12.035 -22.879  0.00  0.00    +0.037 C 
ATOM      6  C   UNL     1      33.292 -12.788 -21.865  0.00  0.00    -0.036 C 
ATOM      7  H   UNL     1      34.862 -14.036 -23.786  0.00  0.00    -0.079 HD
ENDROOT
BRANCH   5   9
ATOM      8  O   UNL     1      30.327 -11.075 -21.570  0.00  0.00    -0.246 OA
ATOM      9  N   UNL     1      32.420 -10.751 -22.682  0.00  0.00    -0.263 N 
ATOM     10  N   UNL     1      31.188  -8.934 -22.067  0.00  0.00    -0.305 N 
ATOM     11  C   UNL     1      33.111  -9.587 -23.069  0.00  0.00    +0.083 A 
ATOM     12  C   UNL     1      31.198 -10.357 -22.044  0.00  0.00    +0.332 A 
ATOM     13  C   UNL     1      32.350  -8.483 -22.689  0.00  0.00    +0.076 A 
ATOM     14  C   UNL     1      34.323  -9.431 -23.712  0.00  0.00    +0.019 C 
ATOM     15  C   UNL     1      32.752  -7.187 -22.927  0.00  0.00    +0.019 C 
ATOM     16  C   UNL     1      34.753  -8.124 -23.966  0.00  0.00    +0.002 C 
ATOM     17  C   UNL     1      33.976  -7.014 -23.577  0.00  0.00    +0.002 C 
ATOM     18  H   UNL     1      30.476  -8.360 -21.702  0.00  0.00    +0.170 HD
ENDBRANCH   5   9
BRANCH   1  19
ATOM     19  C   UNL     1      34.279 -15.968 -23.634  0.00  0.00    -0.076 C 
BRANCH  19  20
ATOM     20  C   UNL     1      34.912 -16.531 -22.361  0.00  0.00    -0.015 C 
BRANCH  20  21
ATOM     21  C   UNL     1      34.682 -18.038 -22.214  0.00  0.00    +0.067 C 
BRANCH  21  23
ATOM     22  O   UNL     1      36.484 -18.233 -20.619  0.00  0.00    -0.291 OA
ATOM     23  C   UNL     1      35.394 -18.643 -21.013  0.00  0.00    +0.173 C 
BRANCH  23  25
ATOM     24  F   UNL     1      32.919 -22.826 -18.265  0.00  0.00    -0.204 F 
ATOM     25  C   UNL     1      34.734 -19.762 -20.280  0.00  0.00    +0.035 C 
ATOM     26  C   UNL     1      33.363 -19.870 -20.338  0.00  0.00    +0.005 C 
ATOM     27  C   UNL     1      35.519 -20.643 -19.572  0.00  0.00    +0.005 C 
ATOM     28  C   UNL     1      32.744 -20.914 -19.650  0.00  0.00    +0.030 C 
ATOM     29  C   UNL     1      34.901 -21.688 -18.884  0.00  0.00    +0.030 C 
ATOM     30  C   UNL     1      33.513 -21.823 -18.924  0.00  0.00    +0.140 C 
ENDBRANCH  23  25
ENDBRANCH  21  23
ENDBRANCH  20  21
ENDBRANCH  19  20
ENDBRANCH   1  19
TORSDOF 6
ENDMDL
MODEL 5
REMARK VINA RESULT:     -12.0      2.716      3.207
REMARK  Name = 3168
REMARK  6 active torsions:
REMARK  status: ('A' for Active; 'I' for Inactive)
REMARK    1  A    between atoms: N_1  and  C_19
REMARK    2  A    between atoms: C_5  and  N_9
REMARK    3  A    between atoms: C_19  and  C_20
REMARK    4  A    between atoms: C_20  and  C_21
REMARK    5  A    between atoms: C_21  and  C_23
REMARK    6  A    between atoms: C_23  and  C_25
REMARK                            x       y       z     vdW  Elec       q    Type
REMARK                         _______ _______ _______ _____ _____    ______ ____
ROOT
ATOM      1  N   UNL     1      35.488 -19.707 -20.143  0.00  0.00    +0.390 N 
ATOM      2  C   UNL     1      36.504 -19.141 -21.040  0.00  0.00    -0.071 C 
ATOM      3  C   UNL     1      36.039 -17.779 -21.580  0.00  0.00    +0.021 C 
ATOM      4  C   UNL     1      34.232 -19.960 -20.868  0.00  0.00    -0.049 C 
ATOM      5  C   UNL     1      34.609 -17.798 -22.044  0.00  0.00    +0.037 C 
ATOM      6  C   UNL     1      33.787 -18.809 -21.728  0.00  0.00    -0.036 C 
ATOM      7  H   UNL     1      35.303 -19.022 -19.411  0.00  0.00    -0.079 HD
ENDROOT
BRANCH   5   9
ATOM      8  O   UNL     1      33.966 -17.770 -24.966  0.00  0.00    -0.246 OA
ATOM      9  N   UNL     1      34.191 -16.751 -22.814  0.00  0.00    -0.263 N 
ATOM     10  N   UNL     1      33.503 -15.487 -24.582  0.00  0.00    -0.305 N 
ATOM     11  C   UNL     1      33.972 -15.434 -22.367  0.00  0.00    +0.083 A 
ATOM     12  C   UNL     1      33.898 -16.804 -24.217  0.00  0.00    +0.332 A 
ATOM     13  C   UNL     1      33.552 -14.670 -23.455  0.00  0.00    +0.076 A 
ATOM     14  C   UNL     1      34.111 -14.874 -21.113  0.00  0.00    +0.019 C 
ATOM     15  C   UNL     1      33.254 -13.329 -23.349  0.00  0.00    +0.019 C 
ATOM     16  C   UNL     1      33.814 -13.513 -20.980  0.00  0.00    +0.002 C 
ATOM     17  C   UNL     1      33.390 -12.749 -22.087  0.00  0.00    +0.002 C 
ATOM     18  H   UNL     1      33.237 -15.199 -25.486  0.00  0.00    +0.170 HD
ENDBRANCH   5   9
BRANCH   1  19
ATOM     19  C   UNL     1      35.973 -20.929 -19.506  0.00  0.00    -0.076 C 
BRANCH  19  20
ATOM     20  C   UNL     1      35.110 -21.269 -18.289  0.00  0.00    -0.015 C 
BRANCH  20  21
ATOM     21  C   UNL     1      35.952 -21.597 -17.053  0.00  0.00    +0.067 C 
BRANCH  21  23
ATOM     22  O   UNL     1      33.989 -22.496 -15.973  0.00  0.00    -0.291 OA
ATOM     23  C   UNL     1      35.216 -22.450 -16.030  0.00  0.00    +0.173 C 
BRANCH  23  25
ATOM     24  F   UNL     1      38.212 -25.532 -12.466  0.00  0.00    -0.204 F 
ATOM     25  C   UNL     1      36.015 -23.272 -15.077  0.00  0.00    +0.035 C 
ATOM     26  C   UNL     1      37.388 -23.259 -15.184  0.00  0.00    +0.005 C 
ATOM     27  C   UNL     1      35.352 -24.015 -14.127  0.00  0.00    +0.005 C 
ATOM     28  C   UNL     1      38.137 -24.029 -14.294  0.00  0.00    +0.030 C 
ATOM     29  C   UNL     1      36.100 -24.786 -13.237  0.00  0.00    +0.030 C 
ATOM     30  C   UNL     1      37.493 -24.793 -13.321  0.00  0.00    +0.140 C 
ENDBRANCH  23  25
ENDBRANCH  21  23
ENDBRANCH  20  21
ENDBRANCH  19  20
ENDBRANCH   1  19
TORSDOF 6
ENDMDL
MODEL 6
REMARK VINA RESULT:     -11.9      5.941      9.729
REMARK  Name = 3168
REMARK  6 active torsions:
REMARK  status: ('A' for Active; 'I' for Inactive)
REMARK    1  A    between atoms: N_1  and  C_19
REMARK    2  A    between atoms: C_5  and  N_9
REMARK    3  A    between atoms: C_19  and  C_20
REMARK    4  A    between atoms: C_20  and  C_21
REMARK    5  A    between atoms: C_21  and  C_23
REMARK    6  A    between atoms: C_23  and  C_25
REMARK                            x       y       z     vdW  Elec       q    Type
REMARK                         _______ _______ _______ _____ _____    ______ ____
ROOT
ATOM      1  N   UNL     1      32.045 -11.449 -22.111  0.00  0.00    +0.390 N 
ATOM      2  C   UNL     1      32.351 -10.591 -23.261  0.00  0.00    -0.071 C 
ATOM      3  C   UNL     1      32.657  -9.160 -22.791  0.00  0.00    +0.021 C 
ATOM      4  C   UNL     1      30.836 -10.980 -21.413  0.00  0.00    -0.049 C 
ATOM      5  C   UNL     1      31.670  -8.661 -21.773  0.00  0.00    +0.037 C 
ATOM      6  C   UNL     1      30.824  -9.498 -21.154  0.00  0.00    -0.036 C 
ATOM      7  H   UNL     1      32.830 -11.395 -21.462  0.00  0.00    -0.079 HD
ENDROOT
BRANCH   5   9
ATOM      8  O   UNL     1      32.314  -7.239 -19.221  0.00  0.00    -0.246 OA
ATOM      9  N   UNL     1      31.660  -7.320 -21.520  0.00  0.00    -0.263 N 
ATOM     10  N   UNL     1      31.836  -5.300 -20.479  0.00  0.00    -0.305 N 
ATOM     11  C   UNL     1      31.335  -6.308 -22.443  0.00  0.00    +0.083 A 
ATOM     12  C   UNL     1      31.981  -6.699 -20.268  0.00  0.00    +0.332 A 
ATOM     13  C   UNL     1      31.445  -5.078 -21.797  0.00  0.00    +0.076 A 
ATOM     14  C   UNL     1      30.959  -6.386 -23.769  0.00  0.00    +0.019 C 
ATOM     15  C   UNL     1      31.190  -3.881 -22.431  0.00  0.00    +0.019 C 
ATOM     16  C   UNL     1      30.695  -5.184 -24.435  0.00  0.00    +0.002 C 
ATOM     17  C   UNL     1      30.810  -3.945 -23.772  0.00  0.00    +0.002 C 
ATOM     18  H   UNL     1      31.987  -4.600 -19.802  0.00  0.00    +0.170 HD
ENDBRANCH   5   9
BRANCH   1  19
ATOM     19  C   UNL     1      31.896 -12.845 -22.521  0.00  0.00    -0.076 C 
BRANCH  19  20
ATOM     20  C   UNL     1      32.831 -13.153 -23.692  0.00  0.00    -0.015 C 
BRANCH  20  21
ATOM     21  C   UNL     1      34.019 -14.025 -23.273  0.00  0.00    +0.067 C 
BRANCH  21  23
ATOM     22  O   UNL     1      33.915 -15.484 -25.193  0.00  0.00    -0.291 OA
ATOM     23  C   UNL     1      34.057 -15.373 -23.977  0.00  0.00    +0.173 C 
BRANCH  23  25
ATOM     24  F   UNL     1      34.933 -19.964 -20.922  0.00  0.00    -0.204 F 
ATOM     25  C   UNL     1      34.292 -16.599 -23.161  0.00  0.00    +0.035 C 
ATOM     26  C   UNL     1      33.978 -17.824 -23.705  0.00  0.00    +0.005 C 
ATOM     27  C   UNL     1      34.814 -16.461 -21.895  0.00  0.00    +0.005 C 
ATOM     28  C   UNL     1      34.196 -18.972 -22.942  0.00  0.00    +0.030 C 
ATOM     29  C   UNL     1      35.032 -17.607 -21.131  0.00  0.00    +0.030 C 
ATOM     30  C   UNL     1      34.723 -18.863 -21.655  0.00  0.00    +0.140 C 
ENDBRANCH  23  25
ENDBRANCH  21  23
ENDBRANCH  20  21
ENDBRANCH  19  20
ENDBRANCH   1  19
TORSDOF 6
ENDMDL
MODEL 7
REMARK VINA RESULT:     -11.9      5.145     10.955
REMARK  Name = 3168
REMARK  6 active torsions:
REMARK  status: ('A' for Active; 'I' for Inactive)
REMARK    1  A    between atoms: N_1  and  C_19
REMARK    2  A    between atoms: C_5  and  N_9
REMARK    3  A    between atoms: C_19  and  C_20
REMARK    4  A    between atoms: C_20  and  C_21
REMARK    5  A    between atoms: C_21  and  C_23
REMARK    6  A    between atoms: C_23  and  C_25
REMARK                            x       y       z     vdW  Elec       q    Type
REMARK                         _______ _______ _______ _____ _____    ______ ____
ROOT
ATOM      1  N   UNL     1      33.396 -15.188 -23.385  0.00  0.00    +0.390 N 
ATOM      2  C   UNL     1      34.188 -16.176 -24.128  0.00  0.00    -0.071 C 
ATOM      3  C   UNL     1      34.270 -17.493 -23.340  0.00  0.00    +0.021 C 
ATOM      4  C   UNL     1      34.039 -14.859 -22.101  0.00  0.00    -0.049 C 
ATOM      5  C   UNL     1      34.582 -17.279 -21.886  0.00  0.00    +0.037 C 
ATOM      6  C   UNL     1      34.489 -16.065 -21.324  0.00  0.00    -0.036 C 
ATOM      7  H   UNL     1      32.485 -15.601 -23.189  0.00  0.00    -0.079 HD
ENDROOT
BRANCH   5   9
ATOM      8  O   UNL     1      37.358 -18.133 -21.167  0.00  0.00    -0.246 OA
ATOM      9  N   UNL     1      34.978 -18.371 -21.167  0.00  0.00    -0.263 N 
ATOM     10  N   UNL     1      36.256 -19.925 -20.097  0.00  0.00    -0.305 N 
ATOM     11  C   UNL     1      34.128 -19.340 -20.603  0.00  0.00    +0.083 A 
ATOM     12  C   UNL     1      36.332 -18.724 -20.856  0.00  0.00    +0.332 A 
ATOM     13  C   UNL     1      34.918 -20.286 -19.952  0.00  0.00    +0.076 A 
ATOM     14  C   UNL     1      32.752 -19.451 -20.620  0.00  0.00    +0.019 C 
ATOM     15  C   UNL     1      34.385 -21.373 -19.294  0.00  0.00    +0.019 C 
ATOM     16  C   UNL     1      32.186 -20.547 -19.959  0.00  0.00    +0.002 C 
ATOM     17  C   UNL     1      32.995 -21.497 -19.303  0.00  0.00    +0.002 C 
ATOM     18  H   UNL     1      37.025 -20.422 -19.732  0.00  0.00    +0.170 HD
ENDBRANCH   5   9
BRANCH   1  19
ATOM     19  C   UNL     1      33.182 -13.980 -24.181  0.00  0.00    -0.076 C 
BRANCH  19  20
ATOM     20  C   UNL     1      32.425 -12.934 -23.360  0.00  0.00    -0.015 C 
BRANCH  20  21
ATOM     21  C   UNL     1      33.047 -11.540 -23.481  0.00  0.00    +0.067 C 
BRANCH  21  23
ATOM     22  O   UNL     1      31.162 -10.688 -22.237  0.00  0.00    -0.291 OA
ATOM     23  C   UNL     1      32.209 -10.447 -22.832  0.00  0.00    +0.173 C 
BRANCH  23  25
ATOM     24  F   UNL     1      34.020  -5.173 -23.110  0.00  0.00    -0.204 F 
ATOM     25  C   UNL     1      32.691  -9.038 -22.907  0.00  0.00    +0.035 C 
ATOM     26  C   UNL     1      33.867  -8.778 -23.574  0.00  0.00    +0.005 C 
ATOM     27  C   UNL     1      31.945  -8.051 -22.306  0.00  0.00    +0.005 C 
ATOM     28  C   UNL     1      34.320  -7.460 -23.643  0.00  0.00    +0.030 C 
ATOM     29  C   UNL     1      32.397  -6.733 -22.374  0.00  0.00    +0.030 C 
ATOM     30  C   UNL     1      33.585  -6.437 -23.044  0.00  0.00    +0.140 C 
ENDBRANCH  23  25
ENDBRANCH  21  23
ENDBRANCH  20  21
ENDBRANCH  19  20
ENDBRANCH   1  19
TORSDOF 6
ENDMDL
MODEL 8
REMARK VINA RESULT:     -11.9      4.543     10.506
REMARK  Name = 3168
REMARK  6 active torsions:
REMARK  status: ('A' for Active; 'I' for Inactive)
REMARK    1  A    between atoms: N_1  and  C_19
REMARK    2  A    between atoms: C_5  and  N_9
REMARK    3  A    between atoms: C_19  and  C_20
REMARK    4  A    between atoms: C_20  and  C_21
REMARK    5  A    between atoms: C_21  and  C_23
REMARK    6  A    between atoms: C_23  and  C_25
REMARK                            x       y       z     vdW  Elec       q    Type
REMARK                         _______ _______ _______ _____ _____    ______ ____
ROOT
ATOM      1  N   UNL     1      35.746 -21.407 -18.699  0.00  0.00    +0.390 N 
ATOM      2  C   UNL     1      36.418 -20.769 -17.560  0.00  0.00    -0.071 C 
ATOM      3  C   UNL     1      36.528 -21.755 -16.386  0.00  0.00    +0.021 C 
ATOM      4  C   UNL     1      34.366 -21.783 -18.349  0.00  0.00    -0.049 C 
ATOM      5  C   UNL     1      35.246 -22.497 -16.132  0.00  0.00    +0.037 C 
ATOM      6  C   UNL     1      34.249 -22.495 -17.029  0.00  0.00    -0.036 C 
ATOM      7  H   UNL     1      36.261 -22.256 -18.929  0.00  0.00    -0.079 HD
ENDROOT
BRANCH   5   9
ATOM      8  O   UNL     1      32.824 -22.845 -14.409  0.00  0.00    -0.246 OA
ATOM      9  N   UNL     1      35.134 -23.158 -14.942  0.00  0.00    -0.263 N 
ATOM     10  N   UNL     1      34.301 -24.052 -13.018  0.00  0.00    -0.305 N 
ATOM     11  C   UNL     1      36.174 -23.830 -14.271  0.00  0.00    +0.083 A 
ATOM     12  C   UNL     1      33.938 -23.288 -14.163  0.00  0.00    +0.332 A 
ATOM     13  C   UNL     1      35.655 -24.372 -13.097  0.00  0.00    +0.076 A 
ATOM     14  C   UNL     1      37.503 -23.994 -14.606  0.00  0.00    +0.019 C 
ATOM     15  C   UNL     1      36.422 -25.095 -12.210  0.00  0.00    +0.019 C 
ATOM     16  C   UNL     1      38.304 -24.725 -13.721  0.00  0.00    +0.002 C 
ATOM     17  C   UNL     1      37.768 -25.269 -12.536  0.00  0.00    +0.002 C 
ATOM     18  H   UNL     1      33.693 -24.313 -12.288  0.00  0.00    +0.170 HD
ENDBRANCH   5   9
BRANCH   1  19
ATOM     19  C   UNL     1      35.763 -20.537 -19.873  0.00  0.00    -0.076 C 
BRANCH  19  20
ATOM     20  C   UNL     1      34.345 -20.070 -20.206  0.00  0.00    -0.015 C 
BRANCH  20  21
ATOM     21  C   UNL     1      34.300 -19.197 -21.463  0.00  0.00    +0.067 C 
BRANCH  21  23
ATOM     22  O   UNL     1      35.878 -17.660 -20.477  0.00  0.00    -0.291 OA
ATOM     23  C   UNL     1      34.967 -17.841 -21.281  0.00  0.00    +0.173 C 
BRANCH  23  25
ATOM     24  F   UNL     1      33.244 -13.570 -24.438  0.00  0.00    -0.204 F 
ATOM     25  C   UNL     1      34.508 -16.701 -22.125  0.00  0.00    +0.035 C 
ATOM     26  C   UNL     1      34.277 -15.485 -21.522  0.00  0.00    +0.005 C 
ATOM     27  C   UNL     1      34.332 -16.905 -23.475  0.00  0.00    +0.005 C 
ATOM     28  C   UNL     1      33.846 -14.418 -22.310  0.00  0.00    +0.030 C 
ATOM     29  C   UNL     1      33.901 -15.839 -24.264  0.00  0.00    +0.030 C 
ATOM     30  C   UNL     1      33.658 -14.594 -23.681  0.00  0.00    +0.140 C 
ENDBRANCH  23  25
ENDBRANCH  21  23
ENDBRANCH  20  21
ENDBRANCH  19  20
ENDBRANCH   1  19
TORSDOF 6
ENDMDL
MODEL 9
REMARK VINA RESULT:     -11.8      4.765     10.762
REMARK  Name = 3168
REMARK  6 active torsions:
REMARK  status: ('A' for Active; 'I' for Inactive)
REMARK    1  A    between atoms: N_1  and  C_19
REMARK    2  A    between atoms: C_5  and  N_9
REMARK    3  A    between atoms: C_19  and  C_20
REMARK    4  A    between atoms: C_20  and  C_21
REMARK    5  A    between atoms: C_21  and  C_23
REMARK    6  A    between atoms: C_23  and  C_25
REMARK                            x       y       z     vdW  Elec       q    Type
REMARK                         _______ _______ _______ _____ _____    ______ ____
ROOT
ATOM      1  N   UNL     1      34.327 -22.044 -18.022  0.00  0.00    +0.390 N 
ATOM      2  C   UNL     1      35.392 -21.457 -17.201  0.00  0.00    -0.071 C 
ATOM      3  C   UNL     1      36.092 -22.549 -16.376  0.00  0.00    +0.021 C 
ATOM      4  C   UNL     1      33.285 -22.649 -17.175  0.00  0.00    -0.049 C 
ATOM      5  C   UNL     1      35.121 -23.488 -15.718  0.00  0.00    +0.037 C 
ATOM      6  C   UNL     1      33.829 -23.520 -16.076  0.00  0.00    -0.036 C 
ATOM      7  H   UNL     1      34.742 -22.780 -18.593  0.00  0.00    -0.079 HD
ENDROOT
BRANCH   5   9
ATOM      8  O   UNL     1      35.769 -26.407 -15.837  0.00  0.00    -0.246 OA
ATOM      9  N   UNL     1      35.608 -24.294 -14.728  0.00  0.00    -0.263 N 
ATOM     10  N   UNL     1      36.379 -26.103 -13.577  0.00  0.00    -0.305 N 
ATOM     11  C   UNL     1      35.911 -23.894 -13.413  0.00  0.00    +0.083 A 
ATOM     12  C   UNL     1      35.898 -25.693 -14.852  0.00  0.00    +0.332 A 
ATOM     13  C   UNL     1      36.381 -25.007 -12.718  0.00  0.00    +0.076 A 
ATOM     14  C   UNL     1      35.807 -22.662 -12.800  0.00  0.00    +0.019 C 
ATOM     15  C   UNL     1      36.766 -24.948 -11.397  0.00  0.00    +0.019 C 
ATOM     16  C   UNL     1      36.191 -22.576 -11.458  0.00  0.00    +0.002 C 
ATOM     17  C   UNL     1      36.666 -23.708 -10.763  0.00  0.00    +0.002 C 
ATOM     18  H   UNL     1      36.665 -27.016 -13.340  0.00  0.00    +0.170 HD
ENDBRANCH   5   9
BRANCH   1  19
ATOM     19  C   UNL     1      33.748 -21.048 -18.922  0.00  0.00    -0.076 C 
BRANCH  19  20
ATOM     20  C   UNL     1      34.822 -20.498 -19.862  0.00  0.00    -0.015 C 
BRANCH  20  21
ATOM     21  C   UNL     1      34.237 -19.575 -20.935  0.00  0.00    +0.067 C 
BRANCH  21  23
ATOM     22  O   UNL     1      36.088 -18.079 -20.531  0.00  0.00    -0.291 OA
ATOM     23  C   UNL     1      35.066 -18.320 -21.170  0.00  0.00    +0.173 C 
BRANCH  23  25
ATOM     24  F   UNL     1      33.435 -14.734 -25.126  0.00  0.00    -0.204 F 
ATOM     25  C   UNL     1      34.629 -17.362 -22.225  0.00  0.00    +0.035 C 
ATOM     26  C   UNL     1      34.209 -17.862 -23.437  0.00  0.00    +0.005 C 
ATOM     27  C   UNL     1      34.664 -16.014 -21.950  0.00  0.00    +0.005 C 
ATOM     28  C   UNL     1      33.802 -16.966 -24.426  0.00  0.00    +0.030 C 
ATOM     29  C   UNL     1      34.258 -15.117 -22.938  0.00  0.00    +0.030 C 
ATOM     30  C   UNL     1      33.826 -15.594 -24.177  0.00  0.00    +0.140 C 
ENDBRANCH  23  25
ENDBRANCH  21  23
ENDBRANCH  20  21
ENDBRANCH  19  20
ENDBRANCH   1  19
TORSDOF 6
ENDMDL
