MODEL 1
REMARK VINA RESULT:     -10.4      0.000      0.000
REMARK  Name = 16750074
REMARK  3 active torsions:
REMARK  status: ('A' for Active; 'I' for Inactive)
REMARK    1  A    between atoms: C_7  and  C_14
REMARK    2  A    between atoms: C_10  and  O_22
REMARK    3  A    between atoms: C_19  and  O_20
REMARK                            x       y       z     vdW  Elec       q    Type
REMARK                         _______ _______ _______ _____ _____    ______ ____
ROOT
ATOM      1  O   UNL     1      32.762 -22.855 -16.842  0.00  0.00    -0.475 OA
ATOM      2  C   UNL     1      33.834 -23.097 -14.645  0.00  0.00    +0.049 C 
ATOM      3  C   UNL     1      35.031 -22.234 -15.069  0.00  0.00    +0.032 C 
ATOM      4  C   UNL     1      34.302 -24.549 -14.860  0.00  0.00    +0.004 C 
ATOM      5  C   UNL     1      36.216 -23.072 -14.579  0.00  0.00    +0.005 C 
ATOM      6  C   UNL     1      35.828 -24.511 -14.893  0.00  0.00    +0.000 C 
ATOM      7  C   UNL     1      32.582 -22.688 -15.428  0.00  0.00    +0.188 C 
ATOM      8  C   UNL     1      35.017 -21.956 -16.555  0.00  0.00    +0.045 C 
ATOM      9  C   UNL     1      33.900 -22.276 -17.341  0.00  0.00    +0.138 C 
ATOM     10  C   UNL     1      36.116 -21.337 -17.171  0.00  0.00    +0.133 C 
ATOM     11  C   UNL     1      33.911 -22.042 -18.719  0.00  0.00    +0.037 C 
ATOM     12  C   UNL     1      36.117 -21.089 -18.545  0.00  0.00    +0.036 C 
ATOM     13  C   UNL     1      35.019 -21.448 -19.319  0.00  0.00    +0.006 C 
ENDROOT
BRANCH   7  14
ATOM     14  C   UNL     1      31.349 -23.441 -14.963  0.00  0.00    +0.017 C 
ATOM     15  C   UNL     1      31.281 -23.932 -13.659  0.00  0.00    +0.002 C 
ATOM     16  C   UNL     1      30.284 -23.643 -15.841  0.00  0.00    +0.002 C 
ATOM     17  C   UNL     1      30.148 -24.624 -13.233  0.00  0.00    +0.036 C 
ATOM     18  C   UNL     1      29.150 -24.335 -15.414  0.00  0.00    +0.036 C 
ATOM     19  C   UNL     1      29.083 -24.826 -14.110  0.00  0.00    +0.134 C 
BRANCH  19  20
ATOM     20  O   UNL     1      27.977 -25.502 -13.694  0.00  0.00    -0.506 OA
ATOM     21  H   UNL     1      27.140 -25.308 -14.070  0.00  0.00    +0.292 HD
ENDBRANCH  19  20
ENDBRANCH   7  14
BRANCH  10  22
ATOM     22  O   UNL     1      37.192 -20.904 -16.452  0.00  0.00    -0.506 OA
ATOM     23  H   UNL     1      37.097 -20.193 -15.849  0.00  0.00    +0.292 HD
ENDBRANCH  10  22
TORSDOF 3
ENDMDL
MODEL 2
REMARK VINA RESULT:      -9.7     11.461     14.198
REMARK  Name = 16750074
REMARK  3 active torsions:
REMARK  status: ('A' for Active; 'I' for Inactive)
REMARK    1  A    between atoms: C_7  and  C_14
REMARK    2  A    between atoms: C_10  and  O_22
REMARK    3  A    between atoms: C_19  and  O_20
REMARK                            x       y       z     vdW  Elec       q    Type
REMARK                         _______ _______ _______ _____ _____    ______ ____
ROOT
ATOM      1  O   UNL     1      33.728 -11.103 -23.309  0.00  0.00    -0.475 OA
ATOM      2  C   UNL     1      31.629 -11.811 -22.249  0.00  0.00    +0.049 C 
ATOM      3  C   UNL     1      31.027 -10.403 -22.365  0.00  0.00    +0.032 C 
ATOM      4  C   UNL     1      32.194 -11.878 -20.816  0.00  0.00    +0.004 C 
ATOM      5  C   UNL     1      30.448 -10.188 -20.964  0.00  0.00    +0.005 C 
ATOM      6  C   UNL     1      31.486 -10.784 -20.021  0.00  0.00    +0.000 C 
ATOM      7  C   UNL     1      32.648 -12.046 -23.368  0.00  0.00    +0.188 C 
ATOM      8  C   UNL     1      32.064  -9.389 -22.790  0.00  0.00    +0.045 C 
ATOM      9  C   UNL     1      33.333  -9.792 -23.232  0.00  0.00    +0.138 C 
ATOM     10  C   UNL     1      31.760  -8.018 -22.783  0.00  0.00    +0.133 C 
ATOM     11  C   UNL     1      34.294  -8.844 -23.594  0.00  0.00    +0.037 C 
ATOM     12  C   UNL     1      32.716  -7.074 -23.160  0.00  0.00    +0.036 C 
ATOM     13  C   UNL     1      33.984  -7.486 -23.559  0.00  0.00    +0.006 C 
ENDROOT
BRANCH   7  14
ATOM     14  C   UNL     1      33.189 -13.465 -23.356  0.00  0.00    +0.017 C 
ATOM     15  C   UNL     1      33.810 -13.965 -22.212  0.00  0.00    +0.002 C 
ATOM     16  C   UNL     1      33.065 -14.267 -24.490  0.00  0.00    +0.002 C 
ATOM     17  C   UNL     1      34.307 -15.268 -22.202  0.00  0.00    +0.036 C 
ATOM     18  C   UNL     1      33.562 -15.570 -24.480  0.00  0.00    +0.036 C 
ATOM     19  C   UNL     1      34.183 -16.071 -23.336  0.00  0.00    +0.134 C 
BRANCH  19  20
ATOM     20  O   UNL     1      34.668 -17.343 -23.326  0.00  0.00    -0.506 OA
ATOM     21  H   UNL     1      34.702 -17.825 -22.523  0.00  0.00    +0.292 HD
ENDBRANCH  19  20
ENDBRANCH   7  14
BRANCH  10  22
ATOM     22  O   UNL     1      30.514  -7.562 -22.465  0.00  0.00    -0.506 OA
ATOM     23  H   UNL     1      29.773  -8.129 -22.545  0.00  0.00    +0.292 HD
ENDBRANCH  10  22
TORSDOF 3
ENDMDL
MODEL 3
REMARK VINA RESULT:      -9.6      1.948      6.138
REMARK  Name = 16750074
REMARK  3 active torsions:
REMARK  status: ('A' for Active; 'I' for Inactive)
REMARK    1  A    between atoms: C_7  and  C_14
REMARK    2  A    between atoms: C_10  and  O_22
REMARK    3  A    between atoms: C_19  and  O_20
REMARK                            x       y       z     vdW  Elec       q    Type
REMARK                         _______ _______ _______ _____ _____    ______ ____
ROOT
ATOM      1  O   UNL     1      31.829 -21.909 -16.868  0.00  0.00    -0.475 OA
ATOM      2  C   UNL     1      34.013 -22.968 -16.485  0.00  0.00    +0.049 C 
ATOM      3  C   UNL     1      33.419 -23.966 -15.481  0.00  0.00    +0.032 C 
ATOM      4  C   UNL     1      34.585 -21.831 -15.615  0.00  0.00    +0.004 C 
ATOM      5  C   UNL     1      34.422 -23.889 -14.326  0.00  0.00    +0.005 C 
ATOM      6  C   UNL     1      34.771 -22.411 -14.215  0.00  0.00    +0.000 C 
ATOM      7  C   UNL     1      32.950 -22.543 -17.503  0.00  0.00    +0.188 C 
ATOM      8  C   UNL     1      31.997 -23.608 -15.117  0.00  0.00    +0.045 C 
ATOM      9  C   UNL     1      31.296 -22.618 -15.822  0.00  0.00    +0.138 C 
ATOM     10  C   UNL     1      31.336 -24.289 -14.082  0.00  0.00    +0.133 C 
ATOM     11  C   UNL     1      29.991 -22.274 -15.457  0.00  0.00    +0.037 C 
ATOM     12  C   UNL     1      30.027 -23.956 -13.731  0.00  0.00    +0.036 C 
ATOM     13  C   UNL     1      29.358 -22.944 -14.412  0.00  0.00    +0.006 C 
ENDROOT
BRANCH   7  14
ATOM     14  C   UNL     1      33.522 -21.639 -18.580  0.00  0.00    +0.017 C 
ATOM     15  C   UNL     1      34.898 -21.612 -18.810  0.00  0.00    +0.002 C 
ATOM     16  C   UNL     1      32.672 -20.837 -19.341  0.00  0.00    +0.002 C 
ATOM     17  C   UNL     1      35.423 -20.781 -19.799  0.00  0.00    +0.036 C 
ATOM     18  C   UNL     1      33.197 -20.006 -20.331  0.00  0.00    +0.036 C 
ATOM     19  C   UNL     1      34.573 -19.978 -20.560  0.00  0.00    +0.134 C 
BRANCH  19  20
ATOM     20  O   UNL     1      35.086 -19.168 -21.526  0.00  0.00    -0.506 OA
ATOM     21  H   UNL     1      35.648 -18.456 -21.290  0.00  0.00    +0.292 HD
ENDBRANCH  19  20
ENDBRANCH   7  14
BRANCH  10  22
ATOM     22  O   UNL     1      31.919 -25.333 -13.424  0.00  0.00    -0.506 OA
ATOM     23  H   UNL     1      31.909 -25.360 -12.488  0.00  0.00    +0.292 HD
ENDBRANCH  10  22
TORSDOF 3
ENDMDL
MODEL 4
REMARK VINA RESULT:      -9.5     10.460     13.333
REMARK  Name = 16750074
REMARK  3 active torsions:
REMARK  status: ('A' for Active; 'I' for Inactive)
REMARK    1  A    between atoms: C_7  and  C_14
REMARK    2  A    between atoms: C_10  and  O_22
REMARK    3  A    between atoms: C_19  and  O_20
REMARK                            x       y       z     vdW  Elec       q    Type
REMARK                         _______ _______ _______ _____ _____    ______ ____
ROOT
ATOM      1  O   UNL     1      32.708 -12.826 -23.694  0.00  0.00    -0.475 OA
ATOM      2  C   UNL     1      33.258 -12.542 -21.317  0.00  0.00    +0.049 C 
ATOM      3  C   UNL     1      34.062 -13.850 -21.286  0.00  0.00    +0.032 C 
ATOM      4  C   UNL     1      31.863 -12.927 -20.788  0.00  0.00    +0.004 C 
ATOM      5  C   UNL     1      33.535 -14.516 -20.012  0.00  0.00    +0.005 C 
ATOM      6  C   UNL     1      32.038 -14.234 -20.018  0.00  0.00    +0.000 C 
ATOM      7  C   UNL     1      33.283 -11.938 -22.725  0.00  0.00    +0.188 C 
ATOM      8  C   UNL     1      33.868 -14.651 -22.553  0.00  0.00    +0.045 C 
ATOM      9  C   UNL     1      33.215 -14.101 -23.665  0.00  0.00    +0.138 C 
ATOM     10  C   UNL     1      34.373 -15.958 -22.650  0.00  0.00    +0.133 C 
ATOM     11  C   UNL     1      33.015 -14.861 -24.821  0.00  0.00    +0.037 C 
ATOM     12  C   UNL     1      34.186 -16.710 -23.811  0.00  0.00    +0.036 C 
ATOM     13  C   UNL     1      33.502 -16.165 -24.893  0.00  0.00    +0.006 C 
ENDROOT
BRANCH   7  14
ATOM     14  C   UNL     1      32.592 -10.587 -22.776  0.00  0.00    +0.017 C 
ATOM     15  C   UNL     1      33.269  -9.475 -23.275  0.00  0.00    +0.002 C 
ATOM     16  C   UNL     1      31.279 -10.458 -22.323  0.00  0.00    +0.002 C 
ATOM     17  C   UNL     1      32.634  -8.234 -23.323  0.00  0.00    +0.036 C 
ATOM     18  C   UNL     1      30.644  -9.218 -22.371  0.00  0.00    +0.036 C 
ATOM     19  C   UNL     1      31.321  -8.106 -22.870  0.00  0.00    +0.134 C 
BRANCH  19  20
ATOM     20  O   UNL     1      30.701  -6.895 -22.916  0.00  0.00    -0.506 OA
ATOM     21  H   UNL     1      31.206  -6.114 -23.034  0.00  0.00    +0.292 HD
ENDBRANCH  19  20
ENDBRANCH   7  14
BRANCH  10  22
ATOM     22  O   UNL     1      35.108 -16.519 -21.647  0.00  0.00    -0.506 OA
ATOM     23  H   UNL     1      35.898 -16.980 -21.848  0.00  0.00    +0.292 HD
ENDBRANCH  10  22
TORSDOF 3
ENDMDL
MODEL 5
REMARK VINA RESULT:      -9.5      7.175     10.389
REMARK  Name = 16750074
REMARK  3 active torsions:
REMARK  status: ('A' for Active; 'I' for Inactive)
REMARK    1  A    between atoms: C_7  and  C_14
REMARK    2  A    between atoms: C_10  and  O_22
REMARK    3  A    between atoms: C_19  and  O_20
REMARK                            x       y       z     vdW  Elec       q    Type
REMARK                         _______ _______ _______ _____ _____    ______ ____
ROOT
ATOM      1  O   UNL     1      33.591 -15.725 -20.898  0.00  0.00    -0.475 OA
ATOM      2  C   UNL     1      34.666 -16.183 -23.059  0.00  0.00    +0.049 C 
ATOM      3  C   UNL     1      34.559 -14.712 -23.490  0.00  0.00    +0.032 C 
ATOM      4  C   UNL     1      33.441 -16.867 -23.698  0.00  0.00    +0.004 C 
ATOM      5  C   UNL     1      34.011 -14.838 -24.915  0.00  0.00    +0.005 C 
ATOM      6  C   UNL     1      32.984 -15.959 -24.837  0.00  0.00    +0.000 C 
ATOM      7  C   UNL     1      34.751 -16.283 -21.533  0.00  0.00    +0.188 C 
ATOM      8  C   UNL     1      33.692 -13.917 -22.541  0.00  0.00    +0.045 C 
ATOM      9  C   UNL     1      33.268 -14.461 -21.319  0.00  0.00    +0.138 C 
ATOM     10  C   UNL     1      33.323 -12.599 -22.852  0.00  0.00    +0.133 C 
ATOM     11  C   UNL     1      32.442 -13.727 -20.463  0.00  0.00    +0.037 C 
ATOM     12  C   UNL     1      32.512 -11.862 -21.987  0.00  0.00    +0.036 C 
ATOM     13  C   UNL     1      32.066 -12.428 -20.797  0.00  0.00    +0.006 C 
ENDROOT
BRANCH   7  14
ATOM     14  C   UNL     1      34.968 -17.712 -21.068  0.00  0.00    +0.017 C 
ATOM     15  C   UNL     1      36.261 -18.190 -20.861  0.00  0.00    +0.002 C 
ATOM     16  C   UNL     1      33.872 -18.547 -20.850  0.00  0.00    +0.002 C 
ATOM     17  C   UNL     1      36.460 -19.503 -20.434  0.00  0.00    +0.036 C 
ATOM     18  C   UNL     1      34.071 -19.860 -20.423  0.00  0.00    +0.036 C 
ATOM     19  C   UNL     1      35.365 -20.338 -20.216  0.00  0.00    +0.134 C 
BRANCH  19  20
ATOM     20  O   UNL     1      35.558 -21.620 -19.799  0.00  0.00    -0.506 OA
ATOM     21  H   UNL     1      36.098 -22.199 -20.300  0.00  0.00    +0.292 HD
ENDBRANCH  19  20
ENDBRANCH   7  14
BRANCH  10  22
ATOM     22  O   UNL     1      33.785 -11.971 -23.972  0.00  0.00    -0.506 OA
ATOM     23  H   UNL     1      34.468 -11.333 -23.903  0.00  0.00    +0.292 HD
ENDBRANCH  10  22
TORSDOF 3
ENDMDL
MODEL 6
REMARK VINA RESULT:      -9.4      2.405      4.446
REMARK  Name = 16750074
REMARK  3 active torsions:
REMARK  status: ('A' for Active; 'I' for Inactive)
REMARK    1  A    between atoms: C_7  and  C_14
REMARK    2  A    between atoms: C_10  and  O_22
REMARK    3  A    between atoms: C_19  and  O_20
REMARK                            x       y       z     vdW  Elec       q    Type
REMARK                         _______ _______ _______ _____ _____    ______ ____
ROOT
ATOM      1  O   UNL     1      34.114 -23.127 -13.340  0.00  0.00    -0.475 OA
ATOM      2  C   UNL     1      35.130 -23.119 -15.577  0.00  0.00    +0.049 C 
ATOM      3  C   UNL     1      36.460 -23.666 -15.039  0.00  0.00    +0.032 C 
ATOM      4  C   UNL     1      35.335 -21.593 -15.648  0.00  0.00    +0.004 C 
ATOM      5  C   UNL     1      37.479 -22.743 -15.713  0.00  0.00    +0.005 C 
ATOM      6  C   UNL     1      36.843 -21.359 -15.657  0.00  0.00    +0.000 C 
ATOM      7  C   UNL     1      33.968 -23.584 -14.693  0.00  0.00    +0.188 C 
ATOM      8  C   UNL     1      36.493 -23.659 -13.528  0.00  0.00    +0.045 C 
ATOM      9  C   UNL     1      35.336 -23.396 -12.779  0.00  0.00    +0.138 C 
ATOM     10  C   UNL     1      37.683 -23.953 -12.843  0.00  0.00    +0.133 C 
ATOM     11  C   UNL     1      35.385 -23.363 -11.383  0.00  0.00    +0.037 C 
ATOM     12  C   UNL     1      37.726 -23.935 -11.448  0.00  0.00    +0.036 C 
ATOM     13  C   UNL     1      36.580 -23.634 -10.719  0.00  0.00    +0.006 C 
ENDROOT
BRANCH   7  14
ATOM     14  C   UNL     1      32.622 -23.156 -15.249  0.00  0.00    +0.017 C 
ATOM     15  C   UNL     1      32.506 -22.792 -16.591  0.00  0.00    +0.002 C 
ATOM     16  C   UNL     1      31.503 -23.126 -14.419  0.00  0.00    +0.002 C 
ATOM     17  C   UNL     1      31.269 -22.399 -17.102  0.00  0.00    +0.036 C 
ATOM     18  C   UNL     1      30.266 -22.733 -14.930  0.00  0.00    +0.036 C 
ATOM     19  C   UNL     1      30.149 -22.369 -16.271  0.00  0.00    +0.134 C 
BRANCH  19  20
ATOM     20  O   UNL     1      28.942 -21.985 -16.770  0.00  0.00    -0.506 OA
ATOM     21  H   UNL     1      28.644 -21.105 -16.650  0.00  0.00    +0.292 HD
ENDBRANCH  19  20
ENDBRANCH   7  14
BRANCH  10  22
ATOM     22  O   UNL     1      38.819 -24.319 -13.504  0.00  0.00    -0.506 OA
ATOM     23  H   UNL     1      39.658 -24.085 -13.159  0.00  0.00    +0.292 HD
ENDBRANCH  10  22
TORSDOF 3
ENDMDL
MODEL 7
REMARK VINA RESULT:      -9.4      5.533      8.588
REMARK  Name = 16750074
REMARK  3 active torsions:
REMARK  status: ('A' for Active; 'I' for Inactive)
REMARK    1  A    between atoms: C_7  and  C_14
REMARK    2  A    between atoms: C_10  and  O_22
REMARK    3  A    between atoms: C_19  and  O_20
REMARK                            x       y       z     vdW  Elec       q    Type
REMARK                         _______ _______ _______ _____ _____    ______ ____
ROOT
ATOM      1  O   UNL     1      34.130 -17.328 -20.656  0.00  0.00    -0.475 OA
ATOM      2  C   UNL     1      34.545 -18.792 -22.585  0.00  0.00    +0.049 C 
ATOM      3  C   UNL     1      34.822 -17.596 -23.508  0.00  0.00    +0.032 C 
ATOM      4  C   UNL     1      33.065 -19.144 -22.833  0.00  0.00    +0.004 C 
ATOM      5  C   UNL     1      33.987 -17.947 -24.742  0.00  0.00    +0.005 C 
ATOM      6  C   UNL     1      32.696 -18.532 -24.183  0.00  0.00    +0.000 C 
ATOM      7  C   UNL     1      34.902 -18.439 -21.138  0.00  0.00    +0.188 C 
ATOM      8  C   UNL     1      34.460 -16.287 -22.844  0.00  0.00    +0.045 C 
ATOM      9  C   UNL     1      34.143 -16.231 -21.478  0.00  0.00    +0.138 C 
ATOM     10  C   UNL     1      34.470 -15.091 -23.579  0.00  0.00    +0.133 C 
ATOM     11  C   UNL     1      33.781 -15.020 -20.882  0.00  0.00    +0.037 C 
ATOM     12  C   UNL     1      34.124 -13.880 -22.978  0.00  0.00    +0.036 C 
ATOM     13  C   UNL     1      33.773 -13.846 -21.632  0.00  0.00    +0.006 C 
ENDROOT
BRANCH   7  14
ATOM     14  C   UNL     1      34.747 -19.628 -20.207  0.00  0.00    +0.017 C 
ATOM     15  C   UNL     1      35.871 -20.196 -19.608  0.00  0.00    +0.002 C 
ATOM     16  C   UNL     1      33.481 -20.154 -19.953  0.00  0.00    +0.002 C 
ATOM     17  C   UNL     1      35.728 -21.289 -18.753  0.00  0.00    +0.036 C 
ATOM     18  C   UNL     1      33.338 -21.246 -19.098  0.00  0.00    +0.036 C 
ATOM     19  C   UNL     1      34.462 -21.814 -18.498  0.00  0.00    +0.134 C 
BRANCH  19  20
ATOM     20  O   UNL     1      34.322 -22.881 -17.664  0.00  0.00    -0.506 OA
ATOM     21  H   UNL     1      35.078 -23.260 -17.258  0.00  0.00    +0.292 HD
ENDBRANCH  19  20
ENDBRANCH   7  14
BRANCH  10  22
ATOM     22  O   UNL     1      34.869 -15.056 -24.884  0.00  0.00    -0.506 OA
ATOM     23  H   UNL     1      34.251 -15.225 -25.568  0.00  0.00    +0.292 HD
ENDBRANCH  10  22
TORSDOF 3
ENDMDL
MODEL 8
REMARK VINA RESULT:      -9.3     15.219     17.462
REMARK  Name = 16750074
REMARK  3 active torsions:
REMARK  status: ('A' for Active; 'I' for Inactive)
REMARK    1  A    between atoms: C_7  and  C_14
REMARK    2  A    between atoms: C_10  and  O_22
REMARK    3  A    between atoms: C_19  and  O_20
REMARK                            x       y       z     vdW  Elec       q    Type
REMARK                         _______ _______ _______ _____ _____    ______ ____
ROOT
ATOM      1  O   UNL     1      31.941  -7.713 -23.875  0.00  0.00    -0.475 OA
ATOM      2  C   UNL     1      30.959  -7.328 -21.657  0.00  0.00    +0.049 C 
ATOM      3  C   UNL     1      30.429  -5.947 -22.067  0.00  0.00    +0.032 C 
ATOM      4  C   UNL     1      32.295  -7.038 -20.945  0.00  0.00    +0.004 C 
ATOM      5  C   UNL     1      30.855  -5.077 -20.880  0.00  0.00    +0.005 C 
ATOM      6  C   UNL     1      32.249  -5.573 -20.519  0.00  0.00    +0.000 C 
ATOM      7  C   UNL     1      31.053  -8.245 -22.881  0.00  0.00    +0.188 C 
ATOM      8  C   UNL     1      30.981  -5.514 -23.406  0.00  0.00    +0.045 C 
ATOM      9  C   UNL     1      31.692  -6.409 -24.220  0.00  0.00    +0.138 C 
ATOM     10  C   UNL     1      30.761  -4.210 -23.877  0.00  0.00    +0.133 C 
ATOM     11  C   UNL     1      32.224  -5.990 -25.442  0.00  0.00    +0.037 C 
ATOM     12  C   UNL     1      31.279  -3.799 -25.106  0.00  0.00    +0.036 C 
ATOM     13  C   UNL     1      32.016  -4.685 -25.884  0.00  0.00    +0.006 C 
ENDROOT
BRANCH   7  14
ATOM     14  C   UNL     1      31.470  -9.655 -22.504  0.00  0.00    +0.017 C 
ATOM     15  C   UNL     1      32.416 -10.332 -23.274  0.00  0.00    +0.002 C 
ATOM     16  C   UNL     1      30.907 -10.274 -21.389  0.00  0.00    +0.002 C 
ATOM     17  C   UNL     1      32.799 -11.628 -22.928  0.00  0.00    +0.036 C 
ATOM     18  C   UNL     1      31.289 -11.570 -21.043  0.00  0.00    +0.036 C 
ATOM     19  C   UNL     1      32.235 -12.247 -21.813  0.00  0.00    +0.134 C 
BRANCH  19  20
ATOM     20  O   UNL     1      32.609 -13.511 -21.475  0.00  0.00    -0.506 OA
ATOM     21  H   UNL     1      32.002 -14.220 -21.567  0.00  0.00    +0.292 HD
ENDBRANCH  19  20
ENDBRANCH   7  14
BRANCH  10  22
ATOM     22  O   UNL     1      29.991  -3.319 -23.187  0.00  0.00    -0.506 OA
ATOM     23  H   UNL     1      30.332  -2.901 -22.421  0.00  0.00    +0.292 HD
ENDBRANCH  10  22
TORSDOF 3
ENDMDL
MODEL 9
REMARK VINA RESULT:      -9.2     16.025     18.965
REMARK  Name = 16750074
REMARK  3 active torsions:
REMARK  status: ('A' for Active; 'I' for Inactive)
REMARK    1  A    between atoms: C_7  and  C_14
REMARK    2  A    between atoms: C_10  and  O_22
REMARK    3  A    between atoms: C_19  and  O_20
REMARK                            x       y       z     vdW  Elec       q    Type
REMARK                         _______ _______ _______ _____ _____    ______ ____
ROOT
ATOM      1  O   UNL     1      31.959  -7.549 -23.493  0.00  0.00    -0.475 OA
ATOM      2  C   UNL     1      32.745  -5.698 -22.082  0.00  0.00    +0.049 C 
ATOM      3  C   UNL     1      32.620  -6.542 -20.805  0.00  0.00    +0.032 C 
ATOM      4  C   UNL     1      31.436  -4.888 -22.146  0.00  0.00    +0.004 C 
ATOM      5  C   UNL     1      31.898  -5.579 -19.858  0.00  0.00    +0.005 C 
ATOM      6  C   UNL     1      30.862  -4.882 -20.731  0.00  0.00    +0.000 C 
ATOM      7  C   UNL     1      33.017  -6.602 -23.290  0.00  0.00    +0.188 C 
ATOM      8  C   UNL     1      31.897  -7.843 -21.067  0.00  0.00    +0.045 C 
ATOM      9  C   UNL     1      31.615  -8.264 -22.375  0.00  0.00    +0.138 C 
ATOM     10  C   UNL     1      31.523  -8.674 -19.999  0.00  0.00    +0.133 C 
ATOM     11  C   UNL     1      30.919  -9.454 -22.604  0.00  0.00    +0.037 C 
ATOM     12  C   UNL     1      30.843  -9.871 -20.231  0.00  0.00    +0.036 C 
ATOM     13  C   UNL     1      30.534 -10.257 -21.532  0.00  0.00    +0.006 C 
ENDROOT
BRANCH   7  14
ATOM     14  C   UNL     1      33.256  -5.801 -24.557  0.00  0.00    +0.017 C 
ATOM     15  C   UNL     1      34.231  -4.804 -24.579  0.00  0.00    +0.002 C 
ATOM     16  C   UNL     1      32.500  -6.062 -25.699  0.00  0.00    +0.002 C 
ATOM     17  C   UNL     1      34.450  -4.068 -25.744  0.00  0.00    +0.036 C 
ATOM     18  C   UNL     1      32.719  -5.326 -26.864  0.00  0.00    +0.036 C 
ATOM     19  C   UNL     1      33.694  -4.329 -26.886  0.00  0.00    +0.134 C 
BRANCH  19  20
ATOM     20  O   UNL     1      33.908  -3.611 -28.023  0.00  0.00    -0.506 OA
ATOM     21  H   UNL     1      34.633  -3.820 -28.579  0.00  0.00    +0.292 HD
ENDBRANCH  19  20
ENDBRANCH   7  14
BRANCH  10  22
ATOM     22  O   UNL     1      31.857  -8.378 -18.709  0.00  0.00    -0.506 OA
ATOM     23  H   UNL     1      31.214  -8.020 -18.130  0.00  0.00    +0.292 HD
ENDBRANCH  10  22
TORSDOF 3
ENDMDL
