MODEL 1
REMARK VINA RESULT:     -11.3      0.000      0.000
REMARK  Name = 24941258
REMARK  4 active torsions:
REMARK  status: ('A' for Active; 'I' for Inactive)
REMARK    1  A    between atoms: C_6  and  C_17
REMARK    2  A    between atoms: C_17  and  C_18
REMARK    3  A    between atoms: C_18  and  N_20
REMARK    4  A    between atoms: C_21  and  C_24
REMARK                            x       y       z     vdW  Elec       q    Type
REMARK                         _______ _______ _______ _____ _____    ______ ____
ROOT
ATOM      1  F   UNL     1      33.923 -14.879 -19.972  0.00  0.00    -0.203 F 
ATOM      2  F   UNL     1      32.506 -11.650 -24.148  0.00  0.00    -0.204 F 
ATOM      3  N   UNL     1      33.972 -15.945 -22.526  0.00  0.00    -0.314 N 
ATOM      4  N   UNL     1      33.663 -15.590 -24.988  0.00  0.00    -0.238 NA
ATOM      5  N   UNL     1      32.609 -13.697 -25.783  0.00  0.00    -0.343 N 
ATOM      6  C   UNL     1      34.287 -16.330 -23.886  0.00  0.00    +0.178 C 
ATOM      7  C   UNL     1      33.608 -14.625 -22.314  0.00  0.00    +0.079 C 
ATOM      8  C   UNL     1      33.220 -13.803 -23.383  0.00  0.00    +0.074 C 
ATOM      9  C   UNL     1      33.183 -14.405 -24.753  0.00  0.00    +0.126 C 
ATOM     10  C   UNL     1      33.582 -14.105 -21.011  0.00  0.00    +0.153 C 
ATOM     11  C   UNL     1      32.859 -12.469 -23.148  0.00  0.00    +0.144 C 
ATOM     12  C   UNL     1      33.214 -12.779 -20.779  0.00  0.00    +0.033 C 
ATOM     13  C   UNL     1      32.860 -11.962 -21.848  0.00  0.00    +0.032 C 
ATOM     14  H   UNL     1      34.012 -16.592 -21.786  0.00  0.00    +0.149 HD
ATOM     15  H   UNL     1      32.578 -14.082 -26.689  0.00  0.00    +0.144 HD
ATOM     16  H   UNL     1      32.230 -12.805 -25.615  0.00  0.00    +0.144 HD
ENDROOT
BRANCH   6  17
ATOM     17  C   UNL     1      33.920 -17.802 -24.067  0.00  0.00    +0.066 C 
BRANCH  17  18
ATOM     18  C   UNL     1      34.902 -18.736 -23.375  0.00  0.00    +0.093 C 
BRANCH  18  20
ATOM     19  O   UNL     1      34.907 -18.278 -20.541  0.00  0.00    -0.270 OA
ATOM     20  N   UNL     1      34.272 -19.551 -22.373  0.00  0.00    -0.301 N 
ATOM     21  C   UNL     1      34.326 -19.251 -21.017  0.00  0.00    +0.249 C 
ATOM     22  H   UNL     1      33.780 -20.355 -22.659  0.00  0.00    +0.150 HD
BRANCH  21  24
ATOM     23  O   UNL     1      31.988 -21.281 -19.036  0.00  0.00    -0.447 OA
ATOM     24  C   UNL     1      33.646 -20.206 -20.106  0.00  0.00    +0.094 C 
ATOM     25  C   UNL     1      34.223 -21.169 -19.243  0.00  0.00    +0.048 C 
ATOM     26  C   UNL     1      32.284 -20.313 -19.942  0.00  0.00    +0.184 C 
ATOM     27  C   UNL     1      33.172 -21.797 -18.615  0.00  0.00    +0.180 C 
ENDBRANCH  21  24
ENDBRANCH  18  20
ENDBRANCH  17  18
ENDBRANCH   6  17
TORSDOF 4
ENDMDL
MODEL 2
REMARK VINA RESULT:     -11.2      4.449      9.168
REMARK  Name = 24941258
REMARK  4 active torsions:
REMARK  status: ('A' for Active; 'I' for Inactive)
REMARK    1  A    between atoms: C_6  and  C_17
REMARK    2  A    between atoms: C_17  and  C_18
REMARK    3  A    between atoms: C_18  and  N_20
REMARK    4  A    between atoms: C_21  and  C_24
REMARK                            x       y       z     vdW  Elec       q    Type
REMARK                         _______ _______ _______ _____ _____    ______ ____
ROOT
ATOM      1  F   UNL     1      29.921 -22.732 -16.491  0.00  0.00    -0.203 F 
ATOM      2  F   UNL     1      34.982 -23.422 -14.545  0.00  0.00    -0.204 F 
ATOM      3  N   UNL     1      32.050 -21.917 -18.061  0.00  0.00    -0.314 N 
ATOM      4  N   UNL     1      34.533 -21.740 -18.357  0.00  0.00    -0.238 NA
ATOM      5  N   UNL     1      35.960 -22.085 -16.576  0.00  0.00    -0.343 N 
ATOM      6  C   UNL     1      33.192 -21.821 -18.946  0.00  0.00    +0.178 C 
ATOM      7  C   UNL     1      32.262 -22.495 -16.820  0.00  0.00    +0.079 C 
ATOM      8  C   UNL     1      33.560 -22.649 -16.309  0.00  0.00    +0.074 C 
ATOM      9  C   UNL     1      34.703 -22.143 -17.133  0.00  0.00    +0.126 C 
ATOM     10  C   UNL     1      31.171 -22.894 -16.035  0.00  0.00    +0.153 C 
ATOM     11  C   UNL     1      33.755 -23.238 -15.052  0.00  0.00    +0.144 C 
ATOM     12  C   UNL     1      31.367 -23.474 -14.781  0.00  0.00    +0.033 C 
ATOM     13  C   UNL     1      32.658 -23.650 -14.295  0.00  0.00    +0.032 C 
ATOM     14  H   UNL     1      31.163 -21.585 -18.328  0.00  0.00    +0.149 HD
ATOM     15  H   UNL     1      36.720 -21.754 -17.108  0.00  0.00    +0.144 HD
ATOM     16  H   UNL     1      36.100 -22.375 -15.647  0.00  0.00    +0.144 HD
ENDROOT
BRANCH   6  17
ATOM     17  C   UNL     1      33.013 -20.588 -19.831  0.00  0.00    +0.066 C 
BRANCH  17  18
ATOM     18  C   UNL     1      34.337 -20.041 -20.342  0.00  0.00    +0.093 C 
BRANCH  18  20
ATOM     19  O   UNL     1      35.585 -17.462 -20.525  0.00  0.00    -0.270 OA
ATOM     20  N   UNL     1      34.164 -19.077 -21.393  0.00  0.00    -0.301 N 
ATOM     21  C   UNL     1      34.812 -17.847 -21.399  0.00  0.00    +0.249 C 
ATOM     22  H   UNL     1      33.561 -19.296 -22.140  0.00  0.00    +0.150 HD
BRANCH  21  24
ATOM     23  O   UNL     1      33.974 -16.302 -24.628  0.00  0.00    -0.447 OA
ATOM     24  C   UNL     1      34.508 -16.951 -22.544  0.00  0.00    +0.094 C 
ATOM     25  C   UNL     1      34.474 -15.536 -22.575  0.00  0.00    +0.048 C 
ATOM     26  C   UNL     1      34.197 -17.368 -23.818  0.00  0.00    +0.184 C 
ATOM     27  C   UNL     1      34.144 -15.190 -23.865  0.00  0.00    +0.180 C 
ENDBRANCH  21  24
ENDBRANCH  18  20
ENDBRANCH  17  18
ENDBRANCH   6  17
TORSDOF 4
ENDMDL
MODEL 3
REMARK VINA RESULT:     -10.9      5.403      8.021
REMARK  Name = 24941258
REMARK  4 active torsions:
REMARK  status: ('A' for Active; 'I' for Inactive)
REMARK    1  A    between atoms: C_6  and  C_17
REMARK    2  A    between atoms: C_17  and  C_18
REMARK    3  A    between atoms: C_18  and  N_20
REMARK    4  A    between atoms: C_21  and  C_24
REMARK                            x       y       z     vdW  Elec       q    Type
REMARK                         _______ _______ _______ _____ _____    ______ ____
ROOT
ATOM      1  F   UNL     1      36.959 -18.415 -21.198  0.00  0.00    -0.203 F 
ATOM      2  F   UNL     1      31.798 -20.217 -21.159  0.00  0.00    -0.204 F 
ATOM      3  N   UNL     1      36.190 -20.144 -19.177  0.00  0.00    -0.314 N 
ATOM      4  N   UNL     1      34.397 -21.571 -18.162  0.00  0.00    -0.238 NA
ATOM      5  N   UNL     1      32.198 -21.354 -18.831  0.00  0.00    -0.343 N 
ATOM      6  C   UNL     1      35.821 -21.282 -18.362  0.00  0.00    +0.178 C 
ATOM      7  C   UNL     1      35.293 -19.755 -20.159  0.00  0.00    +0.079 C 
ATOM      8  C   UNL     1      33.962 -20.197 -20.135  0.00  0.00    +0.074 C 
ATOM      9  C   UNL     1      33.535 -21.077 -19.001  0.00  0.00    +0.126 C 
ATOM     10  C   UNL     1      35.698 -18.871 -21.170  0.00  0.00    +0.153 C 
ATOM     11  C   UNL     1      33.070 -19.794 -21.139  0.00  0.00    +0.144 C 
ATOM     12  C   UNL     1      34.807 -18.466 -22.163  0.00  0.00    +0.033 C 
ATOM     13  C   UNL     1      33.497 -18.933 -22.150  0.00  0.00    +0.032 C 
ATOM     14  H   UNL     1      37.040 -19.667 -19.040  0.00  0.00    +0.149 HD
ATOM     15  H   UNL     1      31.905 -21.931 -18.089  0.00  0.00    +0.144 HD
ATOM     16  H   UNL     1      31.535 -20.975 -19.451  0.00  0.00    +0.144 HD
ENDROOT
BRANCH   6  17
ATOM     17  C   UNL     1      36.444 -21.105 -16.978  0.00  0.00    +0.066 C 
BRANCH  17  18
ATOM     18  C   UNL     1      35.877 -22.080 -15.956  0.00  0.00    +0.093 C 
BRANCH  18  20
ATOM     19  O   UNL     1      37.383 -22.534 -13.555  0.00  0.00    -0.270 OA
ATOM     20  N   UNL     1      36.764 -23.179 -15.696  0.00  0.00    -0.301 N 
ATOM     21  C   UNL     1      37.456 -23.319 -14.498  0.00  0.00    +0.249 C 
ATOM     22  H   UNL     1      36.889 -23.863 -16.394  0.00  0.00    +0.150 HD
BRANCH  21  24
ATOM     23  O   UNL     1      39.017 -26.643 -14.325  0.00  0.00    -0.447 OA
ATOM     24  C   UNL     1      38.355 -24.497 -14.393  0.00  0.00    +0.094 C 
ATOM     25  C   UNL     1      39.759 -24.525 -14.213  0.00  0.00    +0.048 C 
ATOM     26  C   UNL     1      37.952 -25.811 -14.454  0.00  0.00    +0.184 C 
ATOM     27  C   UNL     1      40.113 -25.854 -14.178  0.00  0.00    +0.180 C 
ENDBRANCH  21  24
ENDBRANCH  18  20
ENDBRANCH  17  18
ENDBRANCH   6  17
TORSDOF 4
ENDMDL
MODEL 4
REMARK VINA RESULT:     -10.9      2.423      3.178
REMARK  Name = 24941258
REMARK  4 active torsions:
REMARK  status: ('A' for Active; 'I' for Inactive)
REMARK    1  A    between atoms: C_6  and  C_17
REMARK    2  A    between atoms: C_17  and  C_18
REMARK    3  A    between atoms: C_18  and  N_20
REMARK    4  A    between atoms: C_21  and  C_24
REMARK                            x       y       z     vdW  Elec       q    Type
REMARK                         _______ _______ _______ _____ _____    ______ ____
ROOT
ATOM      1  F   UNL     1      34.218 -13.615 -20.226  0.00  0.00    -0.203 F 
ATOM      2  F   UNL     1      33.091 -14.728 -25.459  0.00  0.00    -0.204 F 
ATOM      3  N   UNL     1      34.547 -16.217 -21.113  0.00  0.00    -0.314 N 
ATOM      4  N   UNL     1      34.462 -17.845 -23.017  0.00  0.00    -0.238 NA
ATOM      5  N   UNL     1      33.422 -17.287 -25.000  0.00  0.00    -0.343 N 
ATOM      6  C   UNL     1      35.004 -17.454 -21.711  0.00  0.00    +0.178 C 
ATOM      7  C   UNL     1      34.119 -15.222 -21.976  0.00  0.00    +0.079 C 
ATOM      8  C   UNL     1      33.805 -15.511 -23.313  0.00  0.00    +0.074 C 
ATOM      9  C   UNL     1      33.920 -16.933 -23.767  0.00  0.00    +0.126 C 
ATOM     10  C   UNL     1      33.950 -13.910 -21.507  0.00  0.00    +0.153 C 
ATOM     11  C   UNL     1      33.376 -14.490 -24.171  0.00  0.00    +0.144 C 
ATOM     12  C   UNL     1      33.515 -12.897 -22.361  0.00  0.00    +0.033 C 
ATOM     13  C   UNL     1      33.235 -13.187 -23.692  0.00  0.00    +0.032 C 
ATOM     14  H   UNL     1      34.540 -16.089 -20.137  0.00  0.00    +0.149 HD
ATOM     15  H   UNL     1      33.492 -18.219 -25.310  0.00  0.00    +0.144 HD
ATOM     16  H   UNL     1      32.998 -16.609 -25.572  0.00  0.00    +0.144 HD
ENDROOT
BRANCH   6  17
ATOM     17  C   UNL     1      34.708 -18.596 -20.740  0.00  0.00    +0.066 C 
BRANCH  17  18
ATOM     18  C   UNL     1      35.857 -19.589 -20.641  0.00  0.00    +0.093 C 
BRANCH  18  20
ATOM     19  O   UNL     1      34.783 -21.972 -19.455  0.00  0.00    -0.270 OA
ATOM     20  N   UNL     1      36.071 -20.049 -19.297  0.00  0.00    -0.301 N 
ATOM     21  C   UNL     1      35.507 -21.222 -18.805  0.00  0.00    +0.249 C 
ATOM     22  H   UNL     1      36.639 -19.512 -18.697  0.00  0.00    +0.150 HD
BRANCH  21  24
ATOM     23  O   UNL     1      35.540 -22.387 -15.319  0.00  0.00    -0.447 OA
ATOM     24  C   UNL     1      35.802 -21.546 -17.387  0.00  0.00    +0.094 C 
ATOM     25  C   UNL     1      36.938 -21.197 -16.617  0.00  0.00    +0.048 C 
ATOM     26  C   UNL     1      34.982 -22.269 -16.551  0.00  0.00    +0.184 C 
ATOM     27  C   UNL     1      36.730 -21.732 -15.366  0.00  0.00    +0.180 C 
ENDBRANCH  21  24
ENDBRANCH  18  20
ENDBRANCH  17  18
ENDBRANCH   6  17
TORSDOF 4
ENDMDL
MODEL 5
REMARK VINA RESULT:     -10.6      1.811      2.746
REMARK  Name = 24941258
REMARK  4 active torsions:
REMARK  status: ('A' for Active; 'I' for Inactive)
REMARK    1  A    between atoms: C_6  and  C_17
REMARK    2  A    between atoms: C_17  and  C_18
REMARK    3  A    between atoms: C_18  and  N_20
REMARK    4  A    between atoms: C_21  and  C_24
REMARK                            x       y       z     vdW  Elec       q    Type
REMARK                         _______ _______ _______ _____ _____    ______ ____
ROOT
ATOM      1  F   UNL     1      34.227 -13.468 -20.466  0.00  0.00    -0.203 F 
ATOM      2  F   UNL     1      32.857 -15.045 -25.518  0.00  0.00    -0.204 F 
ATOM      3  N   UNL     1      34.753 -16.082 -21.210  0.00  0.00    -0.314 N 
ATOM      4  N   UNL     1      34.700 -17.840 -22.996  0.00  0.00    -0.238 NA
ATOM      5  N   UNL     1      33.474 -17.524 -24.926  0.00  0.00    -0.343 N 
ATOM      6  C   UNL     1      35.289 -17.309 -21.762  0.00  0.00    +0.178 C 
ATOM      7  C   UNL     1      34.168 -15.195 -22.098  0.00  0.00    +0.079 C 
ATOM      8  C   UNL     1      33.793 -15.606 -23.387  0.00  0.00    +0.074 C 
ATOM      9  C   UNL     1      34.018 -17.039 -23.759  0.00  0.00    +0.126 C 
ATOM     10  C   UNL     1      33.902 -13.876 -21.701  0.00  0.00    +0.153 C 
ATOM     11  C   UNL     1      33.205 -14.692 -24.272  0.00  0.00    +0.144 C 
ATOM     12  C   UNL     1      33.309 -12.971 -22.581  0.00  0.00    +0.033 C 
ATOM     13  C   UNL     1      32.968 -13.378 -23.867  0.00  0.00    +0.032 C 
ATOM     14  H   UNL     1      34.801 -15.888 -20.246  0.00  0.00    +0.149 HD
ATOM     15  H   UNL     1      33.615 -18.464 -25.181  0.00  0.00    +0.144 HD
ATOM     16  H   UNL     1      32.945 -16.930 -25.505  0.00  0.00    +0.144 HD
ENDROOT
BRANCH   6  17
ATOM     17  C   UNL     1      35.177 -18.403 -20.702  0.00  0.00    +0.066 C 
BRANCH  17  18
ATOM     18  C   UNL     1      34.088 -19.416 -21.023  0.00  0.00    +0.093 C 
BRANCH  18  20
ATOM     19  O   UNL     1      31.675 -20.081 -19.618  0.00  0.00    -0.270 OA
ATOM     20  N   UNL     1      33.940 -20.408 -19.995  0.00  0.00    -0.301 N 
ATOM     21  C   UNL     1      32.727 -20.664 -19.366  0.00  0.00    +0.249 C 
ATOM     22  H   UNL     1      34.731 -20.929 -19.723  0.00  0.00    +0.150 HD
BRANCH  21  24
ATOM     23  O   UNL     1      33.506 -23.353 -16.983  0.00  0.00    -0.447 OA
ATOM     24  C   UNL     1      32.744 -21.702 -18.304  0.00  0.00    +0.094 C 
ATOM     25  C   UNL     1      31.709 -22.072 -17.412  0.00  0.00    +0.048 C 
ATOM     26  C   UNL     1      33.815 -22.511 -18.003  0.00  0.00    +0.184 C 
ATOM     27  C   UNL     1      32.223 -23.080 -16.629  0.00  0.00    +0.180 C 
ENDBRANCH  21  24
ENDBRANCH  18  20
ENDBRANCH  17  18
ENDBRANCH   6  17
TORSDOF 4
ENDMDL
MODEL 6
REMARK VINA RESULT:     -10.3      6.334     10.999
REMARK  Name = 24941258
REMARK  4 active torsions:
REMARK  status: ('A' for Active; 'I' for Inactive)
REMARK    1  A    between atoms: C_6  and  C_17
REMARK    2  A    between atoms: C_17  and  C_18
REMARK    3  A    between atoms: C_18  and  N_20
REMARK    4  A    between atoms: C_21  and  C_24
REMARK                            x       y       z     vdW  Elec       q    Type
REMARK                         _______ _______ _______ _____ _____    ______ ____
ROOT
ATOM      1  F   UNL     1      39.462 -24.565 -14.106  0.00  0.00    -0.203 F 
ATOM      2  F   UNL     1      34.396 -24.354 -12.062  0.00  0.00    -0.204 F 
ATOM      3  N   UNL     1      37.607 -22.942 -15.367  0.00  0.00    -0.314 N 
ATOM      4  N   UNL     1      35.282 -22.007 -15.420  0.00  0.00    -0.238 NA
ATOM      5  N   UNL     1      33.613 -22.922 -14.114  0.00  0.00    -0.343 N 
ATOM      6  C   UNL     1      36.702 -21.885 -15.768  0.00  0.00    +0.178 C 
ATOM      7  C   UNL     1      37.263 -23.672 -14.241  0.00  0.00    +0.079 C 
ATOM      8  C   UNL     1      35.956 -23.638 -13.731  0.00  0.00    +0.074 C 
ATOM      9  C   UNL     1      34.941 -22.812 -14.458  0.00  0.00    +0.126 C 
ATOM     10  C   UNL     1      38.214 -24.496 -13.620  0.00  0.00    +0.153 C 
ATOM     11  C   UNL     1      35.628 -24.382 -12.589  0.00  0.00    +0.144 C 
ATOM     12  C   UNL     1      37.883 -25.241 -12.489  0.00  0.00    +0.033 C 
ATOM     13  C   UNL     1      36.593 -25.178 -11.972  0.00  0.00    +0.032 C 
ATOM     14  H   UNL     1      38.430 -23.134 -15.872  0.00  0.00    +0.149 HD
ATOM     15  H   UNL     1      32.937 -22.385 -14.585  0.00  0.00    +0.144 HD
ATOM     16  H   UNL     1      33.341 -23.538 -13.397  0.00  0.00    +0.144 HD
ENDROOT
BRANCH   6  17
ATOM     17  C   UNL     1      36.783 -21.733 -17.286  0.00  0.00    +0.066 C 
BRANCH  17  18
ATOM     18  C   UNL     1      35.428 -21.440 -17.914  0.00  0.00    +0.093 C 
BRANCH  18  20
ATOM     19  O   UNL     1      33.369 -20.837 -19.821  0.00  0.00    -0.270 OA
ATOM     20  N   UNL     1      35.521 -20.523 -19.016  0.00  0.00    -0.301 N 
ATOM     21  C   UNL     1      34.467 -20.292 -19.893  0.00  0.00    +0.249 C 
ATOM     22  H   UNL     1      36.366 -20.037 -19.157  0.00  0.00    +0.150 HD
BRANCH  21  24
ATOM     23  O   UNL     1      34.439 -18.192 -22.910  0.00  0.00    -0.447 OA
ATOM     24  C   UNL     1      34.730 -19.335 -20.997  0.00  0.00    +0.094 C 
ATOM     25  C   UNL     1      35.831 -18.460 -21.166  0.00  0.00    +0.048 C 
ATOM     26  C   UNL     1      33.913 -19.134 -22.086  0.00  0.00    +0.184 C 
ATOM     27  C   UNL     1      35.607 -17.787 -22.344  0.00  0.00    +0.180 C 
ENDBRANCH  21  24
ENDBRANCH  18  20
ENDBRANCH  17  18
ENDBRANCH   6  17
TORSDOF 4
ENDMDL
MODEL 7
REMARK VINA RESULT:     -10.2      5.661      8.224
REMARK  Name = 24941258
REMARK  4 active torsions:
REMARK  status: ('A' for Active; 'I' for Inactive)
REMARK    1  A    between atoms: C_6  and  C_17
REMARK    2  A    between atoms: C_17  and  C_18
REMARK    3  A    between atoms: C_18  and  N_20
REMARK    4  A    between atoms: C_21  and  C_24
REMARK                            x       y       z     vdW  Elec       q    Type
REMARK                         _______ _______ _______ _____ _____    ______ ____
ROOT
ATOM      1  F   UNL     1      36.905 -18.485 -20.892  0.00  0.00    -0.203 F 
ATOM      2  F   UNL     1      31.868 -20.604 -20.772  0.00  0.00    -0.204 F 
ATOM      3  N   UNL     1      36.278 -20.256 -18.860  0.00  0.00    -0.314 N 
ATOM      4  N   UNL     1      34.593 -21.791 -17.817  0.00  0.00    -0.238 NA
ATOM      5  N   UNL     1      32.375 -21.712 -18.450  0.00  0.00    -0.343 N 
ATOM      6  C   UNL     1      35.993 -21.415 -18.039  0.00  0.00    +0.178 C 
ATOM      7  C   UNL     1      35.343 -19.925 -19.827  0.00  0.00    +0.079 C 
ATOM      8  C   UNL     1      34.042 -20.449 -19.782  0.00  0.00    +0.074 C 
ATOM      9  C   UNL     1      33.689 -21.352 -18.641  0.00  0.00    +0.126 C 
ATOM     10  C   UNL     1      35.676 -19.019 -20.845  0.00  0.00    +0.153 C 
ATOM     11  C   UNL     1      33.111 -20.103 -20.771  0.00  0.00    +0.144 C 
ATOM     12  C   UNL     1      34.746 -18.671 -21.823  0.00  0.00    +0.033 C 
ATOM     13  C   UNL     1      33.468 -19.218 -21.789  0.00  0.00    +0.032 C 
ATOM     14  H   UNL     1      37.098 -19.727 -18.736  0.00  0.00    +0.149 HD
ATOM     15  H   UNL     1      32.130 -22.305 -17.704  0.00  0.00    +0.144 HD
ATOM     16  H   UNL     1      31.680 -21.376 -19.060  0.00  0.00    +0.144 HD
ENDROOT
BRANCH   6  17
ATOM     17  C   UNL     1      36.626 -21.198 -16.665  0.00  0.00    +0.066 C 
BRANCH  17  18
ATOM     18  C   UNL     1      37.052 -22.503 -16.008  0.00  0.00    +0.093 C 
BRANCH  18  20
ATOM     19  O   UNL     1      38.191 -23.763 -13.694  0.00  0.00    -0.270 OA
ATOM     20  N   UNL     1      36.406 -22.717 -14.743  0.00  0.00    -0.301 N 
ATOM     21  C   UNL     1      37.038 -23.339 -13.672  0.00  0.00    +0.249 C 
ATOM     22  H   UNL     1      35.476 -22.410 -14.628  0.00  0.00    +0.150 HD
BRANCH  21  24
ATOM     23  O   UNL     1      34.428 -23.806 -11.125  0.00  0.00    -0.447 OA
ATOM     24  C   UNL     1      36.226 -23.508 -12.440  0.00  0.00    +0.094 C 
ATOM     25  C   UNL     1      36.657 -23.523 -11.091  0.00  0.00    +0.048 C 
ATOM     26  C   UNL     1      34.862 -23.683 -12.406  0.00  0.00    +0.184 C 
ATOM     27  C   UNL     1      35.526 -23.707 -10.331  0.00  0.00    +0.180 C 
ENDBRANCH  21  24
ENDBRANCH  18  20
ENDBRANCH  17  18
ENDBRANCH   6  17
TORSDOF 4
ENDMDL
MODEL 8
REMARK VINA RESULT:     -10.2      1.966      3.101
REMARK  Name = 24941258
REMARK  4 active torsions:
REMARK  status: ('A' for Active; 'I' for Inactive)
REMARK    1  A    between atoms: C_6  and  C_17
REMARK    2  A    between atoms: C_17  and  C_18
REMARK    3  A    between atoms: C_18  and  N_20
REMARK    4  A    between atoms: C_21  and  C_24
REMARK                            x       y       z     vdW  Elec       q    Type
REMARK                         _______ _______ _______ _____ _____    ______ ____
ROOT
ATOM      1  F   UNL     1      33.775 -16.268 -25.542  0.00  0.00    -0.203 F 
ATOM      2  F   UNL     1      32.777 -11.988 -22.291  0.00  0.00    -0.204 F 
ATOM      3  N   UNL     1      34.332 -16.516 -22.841  0.00  0.00    -0.314 N 
ATOM      4  N   UNL     1      34.291 -15.490 -20.555  0.00  0.00    -0.238 NA
ATOM      5  N   UNL     1      33.923 -13.227 -20.285  0.00  0.00    -0.343 N 
ATOM      6  C   UNL     1      34.289 -16.686 -21.404  0.00  0.00    +0.178 C 
ATOM      7  C   UNL     1      33.804 -15.342 -23.353  0.00  0.00    +0.079 C 
ATOM      8  C   UNL     1      33.571 -14.234 -22.523  0.00  0.00    +0.074 C 
ATOM      9  C   UNL     1      33.939 -14.352 -21.076  0.00  0.00    +0.126 C 
ATOM     10  C   UNL     1      33.536 -15.232 -24.725  0.00  0.00    +0.153 C 
ATOM     11  C   UNL     1      33.034 -13.056 -23.059  0.00  0.00    +0.144 C 
ATOM     12  C   UNL     1      33.008 -14.055 -25.257  0.00  0.00    +0.033 C 
ATOM     13  C   UNL     1      32.752 -12.972 -24.423  0.00  0.00    +0.032 C 
ATOM     14  H   UNL     1      34.721 -17.203 -23.429  0.00  0.00    +0.149 HD
ATOM     15  H   UNL     1      34.163 -13.292 -19.332  0.00  0.00    +0.144 HD
ATOM     16  H   UNL     1      33.671 -12.358 -20.671  0.00  0.00    +0.144 HD
ENDROOT
BRANCH   6  17
ATOM     17  C   UNL     1      35.485 -17.539 -20.983  0.00  0.00    +0.066 C 
BRANCH  17  18
ATOM     18  C   UNL     1      35.363 -18.982 -21.450  0.00  0.00    +0.093 C 
BRANCH  18  20
ATOM     19  O   UNL     1      32.846 -20.068 -20.600  0.00  0.00    -0.270 OA
ATOM     20  N   UNL     1      35.147 -19.894 -20.361  0.00  0.00    -0.301 N 
ATOM     21  C   UNL     1      33.886 -20.370 -20.019  0.00  0.00    +0.249 C 
ATOM     22  H   UNL     1      35.923 -20.194 -19.834  0.00  0.00    +0.150 HD
BRANCH  21  24
ATOM     23  O   UNL     1      34.512 -22.520 -17.103  0.00  0.00    -0.447 OA
ATOM     24  C   UNL     1      33.825 -21.286 -18.852  0.00  0.00    +0.094 C 
ATOM     25  C   UNL     1      32.696 -21.929 -18.289  0.00  0.00    +0.048 C 
ATOM     26  C   UNL     1      34.905 -21.680 -18.095  0.00  0.00    +0.184 C 
ATOM     27  C   UNL     1      33.167 -22.667 -17.228  0.00  0.00    +0.180 C 
ENDBRANCH  21  24
ENDBRANCH  18  20
ENDBRANCH  17  18
ENDBRANCH   6  17
TORSDOF 4
ENDMDL
MODEL 9
REMARK VINA RESULT:     -10.1      5.285      7.982
REMARK  Name = 24941258
REMARK  4 active torsions:
REMARK  status: ('A' for Active; 'I' for Inactive)
REMARK    1  A    between atoms: C_6  and  C_17
REMARK    2  A    between atoms: C_17  and  C_18
REMARK    3  A    between atoms: C_18  and  N_20
REMARK    4  A    between atoms: C_21  and  C_24
REMARK                            x       y       z     vdW  Elec       q    Type
REMARK                         _______ _______ _______ _____ _____    ______ ____
ROOT
ATOM      1  F   UNL     1      30.073  -6.966 -25.003  0.00  0.00    -0.203 F 
ATOM      2  F   UNL     1      32.027  -4.650 -20.453  0.00  0.00    -0.204 F 
ATOM      3  N   UNL     1      30.701  -8.607 -22.863  0.00  0.00    -0.314 N 
ATOM      4  N   UNL     1      31.504  -8.808 -20.497  0.00  0.00    -0.238 NA
ATOM      5  N   UNL     1      32.502  -7.019 -19.435  0.00  0.00    -0.343 N 
ATOM      6  C   UNL     1      30.734  -9.351 -21.622  0.00  0.00    +0.178 C 
ATOM      7  C   UNL     1      30.867  -7.234 -22.779  0.00  0.00    +0.079 C 
ATOM      8  C   UNL     1      31.392  -6.641 -21.620  0.00  0.00    +0.074 C 
ATOM      9  C   UNL     1      31.793  -7.541 -20.492  0.00  0.00    +0.126 C 
ATOM     10  C   UNL     1      30.552  -6.419 -23.876  0.00  0.00    +0.153 C 
ATOM     11  C   UNL     1      31.551  -5.250 -21.553  0.00  0.00    +0.144 C 
ATOM     12  C   UNL     1      30.718  -5.036 -23.809  0.00  0.00    +0.033 C 
ATOM     13  C   UNL     1      31.210  -4.453 -22.646  0.00  0.00    +0.032 C 
ATOM     14  H   UNL     1      30.566  -9.055 -23.728  0.00  0.00    +0.149 HD
ATOM     15  H   UNL     1      32.771  -7.600 -18.687  0.00  0.00    +0.144 HD
ATOM     16  H   UNL     1      32.739  -6.064 -19.426  0.00  0.00    +0.144 HD
ENDROOT
BRANCH   6  17
ATOM     17  C   UNL     1      31.285 -10.747 -21.912  0.00  0.00    +0.066 C 
BRANCH  17  18
ATOM     18  C   UNL     1      32.427 -10.724 -22.917  0.00  0.00    +0.093 C 
BRANCH  18  20
ATOM     19  O   UNL     1      33.910 -12.900 -21.775  0.00  0.00    -0.270 OA
ATOM     20  N   UNL     1      32.659 -12.010 -23.514  0.00  0.00    -0.301 N 
ATOM     21  C   UNL     1      33.393 -13.010 -22.884  0.00  0.00    +0.249 C 
ATOM     22  H   UNL     1      32.283 -12.192 -24.405  0.00  0.00    +0.150 HD
BRANCH  21  24
ATOM     23  O   UNL     1      33.423 -15.759 -25.325  0.00  0.00    -0.447 OA
ATOM     24  C   UNL     1      33.565 -14.274 -23.644  0.00  0.00    +0.094 C 
ATOM     25  C   UNL     1      34.210 -15.468 -23.240  0.00  0.00    +0.048 C 
ATOM     26  C   UNL     1      33.103 -14.503 -24.919  0.00  0.00    +0.184 C 
ATOM     27  C   UNL     1      34.096 -16.340 -24.298  0.00  0.00    +0.180 C 
ENDBRANCH  21  24
ENDBRANCH  18  20
ENDBRANCH  17  18
ENDBRANCH   6  17
TORSDOF 4
ENDMDL
