MODEL 1
REMARK VINA RESULT:     -11.0      0.000      0.000
REMARK  Name = 24764441
REMARK  4 active torsions:
REMARK  status: ('A' for Active; 'I' for Inactive)
REMARK    1  A    between atoms: C_3  and  C_18
REMARK    2  A    between atoms: C_7  and  C_9
REMARK    3  A    between atoms: C_10  and  N_15
REMARK    4  A    between atoms: C_18  and  C_20
REMARK                            x       y       z     vdW  Elec       q    Type
REMARK                         _______ _______ _______ _____ _____    ______ ____
ROOT
ATOM      1  O   UNL     1      34.677 -16.040 -20.873  0.00  0.00    -0.270 OA
ATOM      2  N   UNL     1      34.081 -17.079 -22.870  0.00  0.00    -0.277 N 
ATOM      3  C   UNL     1      34.492 -18.433 -22.492  0.00  0.00    +0.080 C 
ATOM      4  C   UNL     1      34.501 -19.194 -23.820  0.00  0.00    +0.022 C 
ATOM      5  C   UNL     1      33.402 -18.511 -24.625  0.00  0.00    +0.023 C 
ATOM      6  C   UNL     1      33.555 -17.049 -24.235  0.00  0.00    +0.094 C 
ATOM      7  C   UNL     1      34.233 -15.994 -22.019  0.00  0.00    +0.250 C 
ENDROOT
BRANCH   7   9
ATOM      8 BR   UNL     1      32.755 -13.118 -26.233  0.00  0.00    -0.049 Br
ATOM      9  C   UNL     1      33.816 -14.678 -22.523  0.00  0.00    +0.067 C 
ATOM     10  C   UNL     1      33.699 -13.579 -21.673  0.00  0.00    +0.046 C 
ATOM     11  C   UNL     1      33.534 -14.541 -23.882  0.00  0.00    +0.012 C 
ATOM     12  C   UNL     1      33.301 -12.343 -22.181  0.00  0.00    +0.015 C 
ATOM     13  C   UNL     1      33.136 -13.305 -24.391  0.00  0.00    +0.035 C 
ATOM     14  C   UNL     1      33.020 -12.206 -23.541  0.00  0.00    +0.008 C 
BRANCH  10  15
ATOM     15  N   UNL     1      33.980 -13.696 -20.293  0.00  0.00    -0.357 N 
ATOM     16  H   UNL     1      34.553 -13.029 -19.849  0.00  0.00    +0.142 HD
ATOM     17  H   UNL     1      33.602 -14.443 -19.775  0.00  0.00    +0.142 HD
ENDBRANCH  10  15
ENDBRANCH   7   9
BRANCH   3  18
ATOM     18  C   UNL     1      33.527 -19.051 -21.482  0.00  0.00    +0.047 C 
BRANCH  18  20
ATOM     19 CL   UNL     1      31.860 -20.872 -19.629  0.00  0.00    -0.083 Cl
ATOM     20  C   UNL     1      34.255 -19.860 -20.444  0.00  0.00    -0.010 C 
ATOM     21  C   UNL     1      33.577 -20.707 -19.569  0.00  0.00    +0.054 C 
ATOM     22  C   UNL     1      35.644 -19.748 -20.371  0.00  0.00    -0.003 C 
ATOM     23  C   UNL     1      34.288 -21.442 -18.619  0.00  0.00    +0.011 C 
ATOM     24  C   UNL     1      36.354 -20.483 -19.422  0.00  0.00    -0.000 C 
ATOM     25  C   UNL     1      35.676 -21.330 -18.546  0.00  0.00    +0.001 C 
ENDBRANCH  18  20
ENDBRANCH   3  18
TORSDOF 4
ENDMDL
MODEL 2
REMARK VINA RESULT:     -10.6      5.317     10.074
REMARK  Name = 24764441
REMARK  4 active torsions:
REMARK  status: ('A' for Active; 'I' for Inactive)
REMARK    1  A    between atoms: C_3  and  C_18
REMARK    2  A    between atoms: C_7  and  C_9
REMARK    3  A    between atoms: C_10  and  N_15
REMARK    4  A    between atoms: C_18  and  C_20
REMARK                            x       y       z     vdW  Elec       q    Type
REMARK                         _______ _______ _______ _____ _____    ______ ____
ROOT
ATOM      1  O   UNL     1      34.089 -10.693 -23.960  0.00  0.00    -0.270 OA
ATOM      2  N   UNL     1      32.264 -10.946 -22.537  0.00  0.00    -0.277 N 
ATOM      3  C   UNL     1      32.092  -9.527 -22.219  0.00  0.00    +0.080 C 
ATOM      4  C   UNL     1      31.152  -9.536 -21.010  0.00  0.00    +0.022 C 
ATOM      5  C   UNL     1      30.292 -10.772 -21.243  0.00  0.00    +0.023 C 
ATOM      6  C   UNL     1      31.281 -11.768 -21.831  0.00  0.00    +0.094 C 
ATOM      7  C   UNL     1      33.272 -11.401 -23.375  0.00  0.00    +0.250 C 
ENDROOT
BRANCH   7   9
ATOM      8 BR   UNL     1      34.510 -16.129 -21.296  0.00  0.00    -0.049 Br
ATOM      9  C   UNL     1      33.366 -12.851 -23.591  0.00  0.00    +0.067 C 
ATOM     10  C   UNL     1      33.021 -13.426 -24.813  0.00  0.00    +0.046 C 
ATOM     11  C   UNL     1      33.809 -13.656 -22.542  0.00  0.00    +0.012 C 
ATOM     12  C   UNL     1      33.120 -14.806 -24.988  0.00  0.00    +0.015 C 
ATOM     13  C   UNL     1      33.908 -15.037 -22.716  0.00  0.00    +0.035 C 
ATOM     14  C   UNL     1      33.564 -15.612 -23.939  0.00  0.00    +0.008 C 
BRANCH  10  15
ATOM     15  N   UNL     1      32.570 -12.629 -25.889  0.00  0.00    -0.357 N 
ATOM     16  H   UNL     1      31.671 -12.228 -25.860  0.00  0.00    +0.142 HD
ATOM     17  H   UNL     1      33.153 -12.475 -26.667  0.00  0.00    +0.142 HD
ENDBRANCH  10  15
ENDBRANCH   7   9
BRANCH   3  18
ATOM     18  C   UNL     1      31.504  -8.754 -23.398  0.00  0.00    +0.047 C 
BRANCH  18  20
ATOM     19 CL   UNL     1      34.281  -7.418 -23.581  0.00  0.00    -0.083 Cl
ATOM     20  C   UNL     1      31.590  -7.268 -23.184  0.00  0.00    -0.010 C 
ATOM     21  C   UNL     1      32.805  -6.588 -23.249  0.00  0.00    +0.054 C 
ATOM     22  C   UNL     1      30.413  -6.569 -22.914  0.00  0.00    -0.003 C 
ATOM     23  C   UNL     1      32.844  -5.208 -23.045  0.00  0.00    +0.011 C 
ATOM     24  C   UNL     1      30.452  -5.189 -22.711  0.00  0.00    -0.000 C 
ATOM     25  C   UNL     1      31.667  -4.509 -22.776  0.00  0.00    +0.001 C 
ENDBRANCH  18  20
ENDBRANCH   3  18
TORSDOF 4
ENDMDL
MODEL 3
REMARK VINA RESULT:     -10.4      6.716     10.738
REMARK  Name = 24764441
REMARK  4 active torsions:
REMARK  status: ('A' for Active; 'I' for Inactive)
REMARK    1  A    between atoms: C_3  and  C_18
REMARK    2  A    between atoms: C_7  and  C_9
REMARK    3  A    between atoms: C_10  and  N_15
REMARK    4  A    between atoms: C_18  and  C_20
REMARK                            x       y       z     vdW  Elec       q    Type
REMARK                         _______ _______ _______ _____ _____    ______ ____
ROOT
ATOM      1  O   UNL     1      36.053 -21.664 -15.698  0.00  0.00    -0.270 OA
ATOM      2  N   UNL     1      34.105 -22.822 -15.164  0.00  0.00    -0.277 N 
ATOM      3  C   UNL     1      33.259 -22.229 -16.202  0.00  0.00    +0.080 C 
ATOM      4  C   UNL     1      31.839 -22.613 -15.778  0.00  0.00    +0.022 C 
ATOM      5  C   UNL     1      32.030 -23.955 -15.082  0.00  0.00    +0.023 C 
ATOM      6  C   UNL     1      33.349 -23.769 -14.345  0.00  0.00    +0.094 C 
ATOM      7  C   UNL     1      35.434 -22.463 -14.997  0.00  0.00    +0.250 C 
ENDROOT
BRANCH   7   9
ATOM      8 BR   UNL     1      35.480 -23.762  -9.848  0.00  0.00    -0.049 Br
ATOM      9  C   UNL     1      36.172 -23.100 -13.898  0.00  0.00    +0.067 C 
ATOM     10  C   UNL     1      37.427 -23.672 -14.101  0.00  0.00    +0.046 C 
ATOM     11  C   UNL     1      35.591 -23.128 -12.630  0.00  0.00    +0.012 C 
ATOM     12  C   UNL     1      38.102 -24.271 -13.038  0.00  0.00    +0.015 C 
ATOM     13  C   UNL     1      36.266 -23.726 -11.566  0.00  0.00    +0.035 C 
ATOM     14  C   UNL     1      37.522 -24.297 -11.770  0.00  0.00    +0.008 C 
BRANCH  10  15
ATOM     15  N   UNL     1      38.034 -23.656 -15.378  0.00  0.00    -0.357 N 
ATOM     16  H   UNL     1      39.015 -23.693 -15.457  0.00  0.00    +0.142 HD
ATOM     17  H   UNL     1      37.476 -23.608 -16.187  0.00  0.00    +0.142 HD
ENDBRANCH  10  15
ENDBRANCH   7   9
BRANCH   3  18
ATOM     18  C   UNL     1      33.610 -22.768 -17.588  0.00  0.00    +0.047 C 
BRANCH  18  20
ATOM     19 CL   UNL     1      36.283 -21.584 -18.579  0.00  0.00    -0.083 Cl
ATOM     20  C   UNL     1      33.561 -21.686 -18.632  0.00  0.00    -0.010 C 
ATOM     21  C   UNL     1      34.722 -21.099 -19.132  0.00  0.00    +0.054 C 
ATOM     22  C   UNL     1      32.313 -21.272 -19.098  0.00  0.00    -0.003 C 
ATOM     23  C   UNL     1      34.636 -20.098 -20.100  0.00  0.00    +0.011 C 
ATOM     24  C   UNL     1      32.227 -20.272 -20.067  0.00  0.00    -0.000 C 
ATOM     25  C   UNL     1      33.388 -19.685 -20.567  0.00  0.00    +0.001 C 
ENDBRANCH  18  20
ENDBRANCH   3  18
TORSDOF 4
ENDMDL
MODEL 4
REMARK VINA RESULT:     -10.3      5.759      9.668
REMARK  Name = 24764441
REMARK  4 active torsions:
REMARK  status: ('A' for Active; 'I' for Inactive)
REMARK    1  A    between atoms: C_3  and  C_18
REMARK    2  A    between atoms: C_7  and  C_9
REMARK    3  A    between atoms: C_10  and  N_15
REMARK    4  A    between atoms: C_18  and  C_20
REMARK                            x       y       z     vdW  Elec       q    Type
REMARK                         _______ _______ _______ _____ _____    ______ ____
ROOT
ATOM      1  O   UNL     1      36.645 -21.025 -16.634  0.00  0.00    -0.270 OA
ATOM      2  N   UNL     1      34.721 -22.334 -16.727  0.00  0.00    -0.277 N 
ATOM      3  C   UNL     1      34.042 -21.571 -17.777  0.00  0.00    +0.080 C 
ATOM      4  C   UNL     1      32.599 -22.082 -17.722  0.00  0.00    +0.022 C 
ATOM      5  C   UNL     1      32.756 -23.530 -17.275  0.00  0.00    +0.023 C 
ATOM      6  C   UNL     1      33.897 -23.453 -16.272  0.00  0.00    +0.094 C 
ATOM      7  C   UNL     1      35.967 -21.971 -16.237  0.00  0.00    +0.250 C 
ENDROOT
BRANCH   7   9
ATOM      8 BR   UNL     1      39.953 -25.115 -14.675  0.00  0.00    -0.049 Br
ATOM      9  C   UNL     1      36.532 -22.794 -15.159  0.00  0.00    +0.067 C 
ATOM     10  C   UNL     1      35.882 -22.931 -13.933  0.00  0.00    +0.046 C 
ATOM     11  C   UNL     1      37.746 -23.444 -15.380  0.00  0.00    +0.012 C 
ATOM     12  C   UNL     1      36.444 -23.718 -12.928  0.00  0.00    +0.015 C 
ATOM     13  C   UNL     1      38.309 -24.232 -14.375  0.00  0.00    +0.035 C 
ATOM     14  C   UNL     1      37.657 -24.369 -13.150  0.00  0.00    +0.008 C 
BRANCH  10  15
ATOM     15  N   UNL     1      34.651 -22.280 -13.687  0.00  0.00    -0.357 N 
ATOM     16  H   UNL     1      34.038 -22.089 -14.434  0.00  0.00    +0.142 HD
ATOM     17  H   UNL     1      34.408 -22.018 -12.771  0.00  0.00    +0.142 HD
ENDBRANCH  10  15
ENDBRANCH   7   9
BRANCH   3  18
ATOM     18  C   UNL     1      34.682 -21.803 -19.144  0.00  0.00    +0.047 C 
BRANCH  18  20
ATOM     19 CL   UNL     1      32.218 -20.393 -20.355  0.00  0.00    -0.083 Cl
ATOM     20  C   UNL     1      34.899 -20.510 -19.881  0.00  0.00    -0.010 C 
ATOM     21  C   UNL     1      33.840 -19.811 -20.457  0.00  0.00    +0.054 C 
ATOM     22  C   UNL     1      36.199 -20.014 -19.981  0.00  0.00    -0.003 C 
ATOM     23  C   UNL     1      34.080 -18.614 -21.134  0.00  0.00    +0.011 C 
ATOM     24  C   UNL     1      36.439 -18.817 -20.656  0.00  0.00    -0.000 C 
ATOM     25  C   UNL     1      35.380 -18.118 -21.233  0.00  0.00    +0.001 C 
ENDBRANCH  18  20
ENDBRANCH   3  18
TORSDOF 4
ENDMDL
MODEL 5
REMARK VINA RESULT:     -10.1      2.982      4.791
REMARK  Name = 24764441
REMARK  4 active torsions:
REMARK  status: ('A' for Active; 'I' for Inactive)
REMARK    1  A    between atoms: C_3  and  C_18
REMARK    2  A    between atoms: C_7  and  C_9
REMARK    3  A    between atoms: C_10  and  N_15
REMARK    4  A    between atoms: C_18  and  C_20
REMARK                            x       y       z     vdW  Elec       q    Type
REMARK                         _______ _______ _______ _____ _____    ______ ____
ROOT
ATOM      1  O   UNL     1      36.601 -19.396 -20.721  0.00  0.00    -0.270 OA
ATOM      2  N   UNL     1      34.435 -20.078 -20.210  0.00  0.00    -0.277 N 
ATOM      3  C   UNL     1      34.805 -21.255 -19.420  0.00  0.00    +0.080 C 
ATOM      4  C   UNL     1      33.493 -22.036 -19.294  0.00  0.00    +0.022 C 
ATOM      5  C   UNL     1      32.432 -20.943 -19.298  0.00  0.00    +0.023 C 
ATOM      6  C   UNL     1      32.982 -19.938 -20.299  0.00  0.00    +0.094 C 
ATOM      7  C   UNL     1      35.382 -19.261 -20.809  0.00  0.00    +0.250 C 
ENDROOT
BRANCH   7   9
ATOM      8 BR   UNL     1      33.954 -14.146 -20.851  0.00  0.00    -0.049 Br
ATOM      9  C   UNL     1      34.889 -18.131 -21.607  0.00  0.00    +0.067 C 
ATOM     10  C   UNL     1      34.621 -18.265 -22.969  0.00  0.00    +0.046 C 
ATOM     11  C   UNL     1      34.691 -16.902 -20.975  0.00  0.00    +0.012 C 
ATOM     12  C   UNL     1      34.155 -17.173 -23.699  0.00  0.00    +0.015 C 
ATOM     13  C   UNL     1      34.224 -15.810 -21.706  0.00  0.00    +0.035 C 
ATOM     14  C   UNL     1      33.956 -15.945 -23.068  0.00  0.00    +0.008 C 
BRANCH  10  15
ATOM     15  N   UNL     1      34.816 -19.499 -23.628  0.00  0.00    -0.357 N 
ATOM     16  H   UNL     1      35.167 -19.516 -24.548  0.00  0.00    +0.142 HD
ATOM     17  H   UNL     1      34.600 -20.342 -23.168  0.00  0.00    +0.142 HD
ENDBRANCH  10  15
ENDBRANCH   7   9
BRANCH   3  18
ATOM     18  C   UNL     1      35.371 -20.861 -18.057  0.00  0.00    +0.047 C 
BRANCH  18  20
ATOM     19 CL   UNL     1      37.678 -21.802 -16.235  0.00  0.00    -0.083 Cl
ATOM     20  C   UNL     1      35.067 -21.897 -17.010  0.00  0.00    -0.010 C 
ATOM     21  C   UNL     1      36.052 -22.375 -16.147  0.00  0.00    +0.054 C 
ATOM     22  C   UNL     1      33.762 -22.379 -16.916  0.00  0.00    -0.003 C 
ATOM     23  C   UNL     1      35.732 -23.337 -15.188  0.00  0.00    +0.011 C 
ATOM     24  C   UNL     1      33.441 -23.340 -15.956  0.00  0.00    -0.000 C 
ATOM     25  C   UNL     1      34.426 -23.819 -15.093  0.00  0.00    +0.001 C 
ENDBRANCH  18  20
ENDBRANCH   3  18
TORSDOF 4
ENDMDL
MODEL 6
REMARK VINA RESULT:      -9.6      6.664     10.695
REMARK  Name = 24764441
REMARK  4 active torsions:
REMARK  status: ('A' for Active; 'I' for Inactive)
REMARK    1  A    between atoms: C_3  and  C_18
REMARK    2  A    between atoms: C_7  and  C_9
REMARK    3  A    between atoms: C_10  and  N_15
REMARK    4  A    between atoms: C_18  and  C_20
REMARK                            x       y       z     vdW  Elec       q    Type
REMARK                         _______ _______ _______ _____ _____    ______ ____
ROOT
ATOM      1  O   UNL     1      36.413 -21.818 -15.911  0.00  0.00    -0.270 OA
ATOM      2  N   UNL     1      34.525 -23.002 -15.237  0.00  0.00    -0.277 N 
ATOM      3  C   UNL     1      33.584 -22.375 -16.168  0.00  0.00    +0.080 C 
ATOM      4  C   UNL     1      32.211 -22.779 -15.626  0.00  0.00    +0.022 C 
ATOM      5  C   UNL     1      32.468 -24.145 -15.000  0.00  0.00    +0.023 C 
ATOM      6  C   UNL     1      33.850 -23.981 -14.385  0.00  0.00    +0.094 C 
ATOM      7  C   UNL     1      35.864 -22.644 -15.184  0.00  0.00    +0.250 C 
ENDROOT
BRANCH   7   9
ATOM      8 BR   UNL     1      40.058 -25.779 -14.291  0.00  0.00    -0.049 Br
ATOM      9  C   UNL     1      36.703 -23.318 -14.184  0.00  0.00    +0.067 C 
ATOM     10  C   UNL     1      36.440 -23.203 -12.819  0.00  0.00    +0.046 C 
ATOM     11  C   UNL     1      37.782 -24.086 -14.623  0.00  0.00    +0.012 C 
ATOM     12  C   UNL     1      37.254 -23.854 -11.894  0.00  0.00    +0.015 C 
ATOM     13  C   UNL     1      38.597 -24.738 -13.697  0.00  0.00    +0.035 C 
ATOM     14  C   UNL     1      38.333 -24.622 -12.332  0.00  0.00    +0.008 C 
BRANCH  10  15
ATOM     15  N   UNL     1      35.353 -22.430 -12.353  0.00  0.00    -0.357 N 
ATOM     16  H   UNL     1      35.466 -21.464 -12.197  0.00  0.00    +0.142 HD
ATOM     17  H   UNL     1      34.482 -22.856 -12.183  0.00  0.00    +0.142 HD
ENDBRANCH  10  15
ENDBRANCH   7   9
BRANCH   3  18
ATOM     18  C   UNL     1      33.803 -22.861 -17.600  0.00  0.00    +0.047 C 
BRANCH  18  20
ATOM     19 CL   UNL     1      36.314 -21.561 -18.838  0.00  0.00    -0.083 Cl
ATOM     20  C   UNL     1      33.606 -21.754 -18.598  0.00  0.00    -0.010 C 
ATOM     21  C   UNL     1      34.687 -21.114 -19.203  0.00  0.00    +0.054 C 
ATOM     22  C   UNL     1      32.303 -21.370 -18.913  0.00  0.00    -0.003 C 
ATOM     23  C   UNL     1      34.465 -20.089 -20.124  0.00  0.00    +0.011 C 
ATOM     24  C   UNL     1      32.080 -20.346 -19.834  0.00  0.00    -0.000 C 
ATOM     25  C   UNL     1      33.161 -19.707 -20.439  0.00  0.00    +0.001 C 
ENDBRANCH  18  20
ENDBRANCH   3  18
TORSDOF 4
ENDMDL
MODEL 7
REMARK VINA RESULT:      -9.6      4.940      7.589
REMARK  Name = 24764441
REMARK  4 active torsions:
REMARK  status: ('A' for Active; 'I' for Inactive)
REMARK    1  A    between atoms: C_3  and  C_18
REMARK    2  A    between atoms: C_7  and  C_9
REMARK    3  A    between atoms: C_10  and  N_15
REMARK    4  A    between atoms: C_18  and  C_20
REMARK                            x       y       z     vdW  Elec       q    Type
REMARK                         _______ _______ _______ _____ _____    ______ ____
ROOT
ATOM      1  O   UNL     1      32.824 -10.013 -24.173  0.00  0.00    -0.270 OA
ATOM      2  N   UNL     1      32.052 -10.206 -21.984  0.00  0.00    -0.277 N 
ATOM      3  C   UNL     1      31.909 -11.664 -21.978  0.00  0.00    +0.080 C 
ATOM      4  C   UNL     1      31.071 -11.942 -20.726  0.00  0.00    +0.022 C 
ATOM      5  C   UNL     1      31.480 -10.824 -19.775  0.00  0.00    +0.023 C 
ATOM      6  C   UNL     1      31.644  -9.630 -20.703  0.00  0.00    +0.094 C 
ATOM      7  C   UNL     1      32.484  -9.510 -23.104  0.00  0.00    +0.250 C 
ENDROOT
BRANCH   7   9
ATOM      8 BR   UNL     1      29.920  -5.017 -21.899  0.00  0.00    -0.049 Br
ATOM      9  C   UNL     1      32.553  -8.046 -23.001  0.00  0.00    +0.067 C 
ATOM     10  C   UNL     1      33.721  -7.350 -23.315  0.00  0.00    +0.046 C 
ATOM     11  C   UNL     1      31.420  -7.350 -22.578  0.00  0.00    +0.012 C 
ATOM     12  C   UNL     1      33.756  -5.961 -23.207  0.00  0.00    +0.015 C 
ATOM     13  C   UNL     1      31.456  -5.960 -22.470  0.00  0.00    +0.035 C 
ATOM     14  C   UNL     1      32.623  -5.265 -22.785  0.00  0.00    +0.008 C 
BRANCH  10  15
ATOM     15  N   UNL     1      34.880  -8.035 -23.745  0.00  0.00    -0.357 N 
ATOM     16  H   UNL     1      35.362  -8.626 -23.121  0.00  0.00    +0.142 HD
ATOM     17  H   UNL     1      35.206  -7.921 -24.666  0.00  0.00    +0.142 HD
ENDBRANCH  10  15
ENDBRANCH   7   9
BRANCH   3  18
ATOM     18  C   UNL     1      33.267 -12.361 -21.926  0.00  0.00    +0.047 C 
BRANCH  18  20
ATOM     19 CL   UNL     1      34.226 -15.113 -20.907  0.00  0.00    -0.083 Cl
ATOM     20  C   UNL     1      33.348 -13.492 -22.914  0.00  0.00    -0.010 C 
ATOM     21  C   UNL     1      33.771 -14.765 -22.536  0.00  0.00    +0.054 C 
ATOM     22  C   UNL     1      32.986 -13.241 -24.238  0.00  0.00    -0.003 C 
ATOM     23  C   UNL     1      33.833 -15.789 -23.481  0.00  0.00    +0.011 C 
ATOM     24  C   UNL     1      33.047 -14.266 -25.183  0.00  0.00    -0.000 C 
ATOM     25  C   UNL     1      33.470 -15.539 -24.805  0.00  0.00    +0.001 C 
ENDBRANCH  18  20
ENDBRANCH   3  18
TORSDOF 4
ENDMDL
MODEL 8
REMARK VINA RESULT:      -9.4      3.760      7.596
REMARK  Name = 24764441
REMARK  4 active torsions:
REMARK  status: ('A' for Active; 'I' for Inactive)
REMARK    1  A    between atoms: C_3  and  C_18
REMARK    2  A    between atoms: C_7  and  C_9
REMARK    3  A    between atoms: C_10  and  N_15
REMARK    4  A    between atoms: C_18  and  C_20
REMARK                            x       y       z     vdW  Elec       q    Type
REMARK                         _______ _______ _______ _____ _____    ______ ____
ROOT
ATOM      1  O   UNL     1      32.681 -19.375 -20.679  0.00  0.00    -0.270 OA
ATOM      2  N   UNL     1      34.986 -19.108 -20.878  0.00  0.00    -0.277 N 
ATOM      3  C   UNL     1      34.953 -18.109 -21.949  0.00  0.00    +0.080 C 
ATOM      4  C   UNL     1      36.397 -18.074 -22.458  0.00  0.00    +0.022 C 
ATOM      5  C   UNL     1      37.216 -18.397 -21.214  0.00  0.00    +0.023 C 
ATOM      6  C   UNL     1      36.361 -19.438 -20.506  0.00  0.00    +0.094 C 
ATOM      7  C   UNL     1      33.830 -19.666 -20.352  0.00  0.00    +0.250 C 
ENDROOT
BRANCH   7   9
ATOM      8 BR   UNL     1      36.971 -21.706 -16.585  0.00  0.00    -0.049 Br
ATOM      9  C   UNL     1      33.991 -20.685 -19.306  0.00  0.00    +0.067 C 
ATOM     10  C   UNL     1      32.985 -21.613 -19.035  0.00  0.00    +0.046 C 
ATOM     11  C   UNL     1      35.179 -20.712 -18.575  0.00  0.00    +0.012 C 
ATOM     12  C   UNL     1      33.167 -22.567 -18.035  0.00  0.00    +0.015 C 
ATOM     13  C   UNL     1      35.361 -21.668 -17.575  0.00  0.00    +0.035 C 
ATOM     14  C   UNL     1      34.355 -22.595 -17.305  0.00  0.00    +0.008 C 
BRANCH  10  15
ATOM     15  N   UNL     1      31.774 -21.603 -19.763  0.00  0.00    -0.357 N 
ATOM     16  H   UNL     1      31.734 -21.168 -20.646  0.00  0.00    +0.142 HD
ATOM     17  H   UNL     1      30.971 -22.029 -19.388  0.00  0.00    +0.142 HD
ENDBRANCH  10  15
ENDBRANCH   7   9
BRANCH   3  18
ATOM     18  C   UNL     1      34.493 -16.747 -21.433  0.00  0.00    +0.047 C 
BRANCH  18  20
ATOM     19 CL   UNL     1      33.870 -13.797 -20.769  0.00  0.00    -0.083 Cl
ATOM     20  C   UNL     1      34.058 -15.846 -22.556  0.00  0.00    -0.010 C 
ATOM     21  C   UNL     1      33.758 -14.502 -22.341  0.00  0.00    +0.054 C 
ATOM     22  C   UNL     1      33.958 -16.387 -23.837  0.00  0.00    -0.003 C 
ATOM     23  C   UNL     1      33.358 -13.697 -23.408  0.00  0.00    +0.011 C 
ATOM     24  C   UNL     1      33.559 -15.583 -24.905  0.00  0.00    -0.000 C 
ATOM     25  C   UNL     1      33.258 -14.238 -24.690  0.00  0.00    +0.001 C 
ENDBRANCH  18  20
ENDBRANCH   3  18
TORSDOF 4
ENDMDL
MODEL 9
REMARK VINA RESULT:      -9.4      5.345      7.955
REMARK  Name = 24764441
REMARK  4 active torsions:
REMARK  status: ('A' for Active; 'I' for Inactive)
REMARK    1  A    between atoms: C_3  and  C_18
REMARK    2  A    between atoms: C_7  and  C_9
REMARK    3  A    between atoms: C_10  and  N_15
REMARK    4  A    between atoms: C_18  and  C_20
REMARK                            x       y       z     vdW  Elec       q    Type
REMARK                         _______ _______ _______ _____ _____    ______ ____
ROOT
ATOM      1  O   UNL     1      31.917  -9.225 -24.300  0.00  0.00    -0.270 OA
ATOM      2  N   UNL     1      31.583 -10.090 -22.165  0.00  0.00    -0.277 N 
ATOM      3  C   UNL     1      31.809 -11.496 -22.508  0.00  0.00    +0.080 C 
ATOM      4  C   UNL     1      31.281 -12.258 -21.290  0.00  0.00    +0.022 C 
ATOM      5  C   UNL     1      31.547 -11.301 -20.134  0.00  0.00    +0.023 C 
ATOM      6  C   UNL     1      31.257  -9.939 -20.747  0.00  0.00    +0.094 C 
ATOM      7  C   UNL     1      31.641  -9.078 -23.112  0.00  0.00    +0.250 C 
ENDROOT
BRANCH   7   9
ATOM      8 BR   UNL     1      32.310  -5.450 -19.291  0.00  0.00    -0.049 Br
ATOM      9  C   UNL     1      31.361  -7.710 -22.654  0.00  0.00    +0.067 C 
ATOM     10  C   UNL     1      30.604  -6.828 -23.424  0.00  0.00    +0.046 C 
ATOM     11  C   UNL     1      31.870  -7.299 -21.422  0.00  0.00    +0.012 C 
ATOM     12  C   UNL     1      30.355  -5.536 -22.963  0.00  0.00    +0.015 C 
ATOM     13  C   UNL     1      31.621  -6.006 -20.960  0.00  0.00    +0.035 C 
ATOM     14  C   UNL     1      30.864  -5.125 -21.731  0.00  0.00    +0.008 C 
BRANCH  10  15
ATOM     15  N   UNL     1      30.079  -7.223 -24.675  0.00  0.00    -0.357 N 
ATOM     16  H   UNL     1      29.132  -7.054 -24.887  0.00  0.00    +0.142 HD
ATOM     17  H   UNL     1      30.659  -7.668 -25.334  0.00  0.00    +0.142 HD
ENDBRANCH  10  15
ENDBRANCH   7   9
BRANCH   3  18
ATOM     18  C   UNL     1      33.288 -11.780 -22.766  0.00  0.00    +0.047 C 
BRANCH  18  20
ATOM     19 CL   UNL     1      32.634 -12.942 -25.550  0.00  0.00    -0.083 Cl
ATOM     20  C   UNL     1      33.538 -13.244 -22.998  0.00  0.00    -0.010 C 
ATOM     21  C   UNL     1      33.270 -13.847 -24.226  0.00  0.00    +0.054 C 
ATOM     22  C   UNL     1      34.052 -14.003 -21.946  0.00  0.00    -0.003 C 
ATOM     23  C   UNL     1      33.516 -15.209 -24.402  0.00  0.00    +0.011 C 
ATOM     24  C   UNL     1      34.299 -15.364 -22.123  0.00  0.00    -0.000 C 
ATOM     25  C   UNL     1      34.030 -15.967 -23.350  0.00  0.00    +0.001 C 
ENDBRANCH  18  20
ENDBRANCH   3  18
TORSDOF 4
ENDMDL
