MODEL 1
REMARK VINA RESULT:     -11.2      0.000      0.000
REMARK  Name = 25062766
REMARK  6 active torsions:
REMARK  status: ('A' for Active; 'I' for Inactive)
REMARK    1  A    between atoms: N_1  and  C_12
REMARK    2  A    between atoms: C_5  and  C_21
REMARK    3  A    between atoms: C_9  and  N_16
REMARK    4  A    between atoms: C_24  and  C_29
REMARK    5  A    between atoms: N_28  and  C_31
REMARK    6  A    between atoms: C_31  and  C_33
REMARK                            x       y       z     vdW  Elec       q    Type
REMARK                         _______ _______ _______ _____ _____    ______ ____
ROOT
ATOM      1  N   UNL     1      36.697 -21.095 -17.909  0.00  0.00    -0.247 N 
ATOM      2  N   UNL     1      34.808 -21.941 -16.809  0.00  0.00    -0.337 NA
ATOM      3  N   UNL     1      37.023 -22.323 -15.939  0.00  0.00    -0.170 NA
ATOM      4  C   UNL     1      36.150 -21.822 -16.833  0.00  0.00    +0.149 C 
ATOM      5  C   UNL     1      34.318 -22.642 -15.766  0.00  0.00    +0.146 C 
ATOM      6  C   UNL     1      35.106 -23.207 -14.783  0.00  0.00    +0.055 C 
ATOM      7  C   UNL     1      36.465 -23.013 -14.923  0.00  0.00    +0.114 C 
ATOM      8  H   UNL     1      37.679 -21.034 -17.886  0.00  0.00    +0.165 HD
ENDROOT
BRANCH   1  12
ATOM      9  C   UNL     1      34.961 -19.138 -21.194  0.00  0.00    +0.048 C 
ATOM     10  C   UNL     1      36.204 -18.726 -20.713  0.00  0.00    +0.016 C 
ATOM     11  C   UNL     1      34.294 -20.200 -20.584  0.00  0.00    +0.016 C 
ATOM     12  C   UNL     1      36.114 -20.437 -19.012  0.00  0.00    +0.058 C 
ATOM     13  C   UNL     1      36.780 -19.375 -19.623  0.00  0.00    +0.017 C 
ATOM     14  C   UNL     1      34.871 -20.850 -19.493  0.00  0.00    +0.017 C 
BRANCH   9  16
ATOM     15  O   UNL     1      33.456 -17.235 -24.628  0.00  0.00    -0.350 OA
ATOM     16  N   UNL     1      34.383 -18.486 -22.289  0.00  0.00    -0.303 N 
ATOM     17  C   UNL     1      34.066 -19.283 -23.482  0.00  0.00    +0.123 C 
ATOM     18  C   UNL     1      34.687 -17.074 -22.544  0.00  0.00    +0.123 C 
ATOM     19  C   UNL     1      33.020 -18.559 -24.322  0.00  0.00    +0.164 C 
ATOM     20  C   UNL     1      33.608 -16.468 -23.434  0.00  0.00    +0.164 C 
ENDBRANCH   9  16
ENDBRANCH   1  12
BRANCH   5  21
ATOM     21  C   UNL     1      32.881 -22.774 -15.737  0.00  0.00    +0.031 C 
ATOM     22  C   UNL     1      32.127 -22.441 -16.862  0.00  0.00    +0.003 C 
ATOM     23  C   UNL     1      32.247 -23.236 -14.584  0.00  0.00    +0.003 C 
ATOM     24  C   UNL     1      30.104 -23.033 -15.681  0.00  0.00    +0.053 C 
ATOM     25  C   UNL     1      30.738 -22.570 -16.834  0.00  0.00    +0.005 C 
ATOM     26  C   UNL     1      30.858 -23.365 -14.556  0.00  0.00    +0.005 C 
BRANCH  24  29
ATOM     27  O   UNL     1      28.130 -24.231 -15.280  0.00  0.00    -0.270 OA
ATOM     28  N   UNL     1      27.905 -22.050 -16.032  0.00  0.00    -0.288 N 
ATOM     29  C   UNL     1      28.656 -23.167 -15.651  0.00  0.00    +0.247 C 
ATOM     30  H   UNL     1      28.388 -21.240 -16.316  0.00  0.00    +0.151 HD
BRANCH  28  31
ATOM     31  C   UNL     1      26.461 -22.019 -16.033  0.00  0.00    +0.197 C 
BRANCH  31  33
ATOM     32  N   UNL     1      25.569 -20.223 -17.722  0.00  0.00    -0.194 NA
ATOM     33  C   UNL     1      25.961 -21.018 -16.974  0.00  0.00    +0.095 C 
ENDBRANCH  31  33
ENDBRANCH  28  31
ENDBRANCH  24  29
ENDBRANCH   5  21
TORSDOF 6
ENDMDL
MODEL 2
REMARK VINA RESULT:     -10.6      1.353      2.100
REMARK  Name = 25062766
REMARK  6 active torsions:
REMARK  status: ('A' for Active; 'I' for Inactive)
REMARK    1  A    between atoms: N_1  and  C_12
REMARK    2  A    between atoms: C_5  and  C_21
REMARK    3  A    between atoms: C_9  and  N_16
REMARK    4  A    between atoms: C_24  and  C_29
REMARK    5  A    between atoms: N_28  and  C_31
REMARK    6  A    between atoms: C_31  and  C_33
REMARK                            x       y       z     vdW  Elec       q    Type
REMARK                         _______ _______ _______ _____ _____    ______ ____
ROOT
ATOM      1  N   UNL     1      36.585 -22.069 -15.679  0.00  0.00    -0.247 N 
ATOM      2  N   UNL     1      34.428 -22.688 -15.005  0.00  0.00    -0.337 NA
ATOM      3  N   UNL     1      36.350 -23.223 -13.653  0.00  0.00    -0.170 NA
ATOM      4  C   UNL     1      35.747 -22.691 -14.733  0.00  0.00    +0.149 C 
ATOM      5  C   UNL     1      33.655 -23.292 -14.078  0.00  0.00    +0.146 C 
ATOM      6  C   UNL     1      34.150 -23.876 -12.929  0.00  0.00    +0.055 C 
ATOM      7  C   UNL     1      35.519 -23.811 -12.768  0.00  0.00    +0.114 C 
ATOM      8  H   UNL     1      37.540 -22.094 -15.439  0.00  0.00    +0.165 HD
ENDROOT
BRANCH   1  12
ATOM      9  C   UNL     1      35.812 -20.127 -19.322  0.00  0.00    +0.048 C 
ATOM     10  C   UNL     1      36.723 -19.579 -18.418  0.00  0.00    +0.016 C 
ATOM     11  C   UNL     1      35.158 -21.320 -19.015  0.00  0.00    +0.016 C 
ATOM     12  C   UNL     1      36.326 -21.416 -16.902  0.00  0.00    +0.058 C 
ATOM     13  C   UNL     1      36.979 -20.223 -17.209  0.00  0.00    +0.017 C 
ATOM     14  C   UNL     1      35.415 -21.964 -17.805  0.00  0.00    +0.017 C 
BRANCH   9  16
ATOM     15  O   UNL     1      34.980 -17.953 -22.823  0.00  0.00    -0.350 OA
ATOM     16  N   UNL     1      35.555 -19.480 -20.536  0.00  0.00    -0.303 N 
ATOM     17  C   UNL     1      36.444 -18.383 -20.939  0.00  0.00    +0.123 C 
ATOM     18  C   UNL     1      34.180 -19.386 -21.036  0.00  0.00    +0.123 C 
ATOM     19  C   UNL     1      36.340 -18.162 -22.444  0.00  0.00    +0.164 C 
ATOM     20  C   UNL     1      34.196 -19.110 -22.536  0.00  0.00    +0.164 C 
ENDBRANCH   9  16
ENDBRANCH   1  12
BRANCH   5  21
ATOM     21  C   UNL     1      32.241 -23.294 -14.366  0.00  0.00    +0.031 C 
ATOM     22  C   UNL     1      31.764 -22.679 -15.524  0.00  0.00    +0.003 C 
ATOM     23  C   UNL     1      31.351 -23.911 -13.487  0.00  0.00    +0.003 C 
ATOM     24  C   UNL     1      29.508 -23.301 -14.924  0.00  0.00    +0.053 C 
ATOM     25  C   UNL     1      30.397 -22.682 -15.804  0.00  0.00    +0.005 C 
ATOM     26  C   UNL     1      29.984 -23.914 -13.766  0.00  0.00    +0.005 C 
BRANCH  24  29
ATOM     27  O   UNL     1      27.451 -24.374 -15.257  0.00  0.00    -0.270 OA
ATOM     28  N   UNL     1      27.471 -22.062 -15.417  0.00  0.00    -0.288 N 
ATOM     29  C   UNL     1      28.083 -23.304 -15.214  0.00  0.00    +0.247 C 
ATOM     30  H   UNL     1      28.033 -21.254 -15.370  0.00  0.00    +0.151 HD
BRANCH  28  31
ATOM     31  C   UNL     1      26.062 -21.899 -15.690  0.00  0.00    +0.197 C 
BRANCH  31  33
ATOM     32  N   UNL     1      25.682 -20.280 -17.717  0.00  0.00    -0.194 NA
ATOM     33  C   UNL     1      25.852 -20.997 -16.822  0.00  0.00    +0.095 C 
ENDBRANCH  31  33
ENDBRANCH  28  31
ENDBRANCH  24  29
ENDBRANCH   5  21
TORSDOF 6
ENDMDL
MODEL 3
REMARK VINA RESULT:     -10.4      9.110     14.025
REMARK  Name = 25062766
REMARK  6 active torsions:
REMARK  status: ('A' for Active; 'I' for Inactive)
REMARK    1  A    between atoms: N_1  and  C_12
REMARK    2  A    between atoms: C_5  and  C_21
REMARK    3  A    between atoms: C_9  and  N_16
REMARK    4  A    between atoms: C_24  and  C_29
REMARK    5  A    between atoms: N_28  and  C_31
REMARK    6  A    between atoms: C_31  and  C_33
REMARK                            x       y       z     vdW  Elec       q    Type
REMARK                         _______ _______ _______ _____ _____    ______ ____
ROOT
ATOM      1  N   UNL     1      31.889  -6.409 -22.122  0.00  0.00    -0.247 N 
ATOM      2  N   UNL     1      32.010  -8.748 -22.165  0.00  0.00    -0.337 NA
ATOM      3  N   UNL     1      31.162  -7.588 -20.232  0.00  0.00    -0.170 NA
ATOM      4  C   UNL     1      31.677  -7.641 -21.474  0.00  0.00    +0.149 C 
ATOM      5  C   UNL     1      31.794  -9.911 -21.516  0.00  0.00    +0.146 C 
ATOM      6  C   UNL     1      31.272  -9.991 -20.240  0.00  0.00    +0.055 C 
ATOM      7  C   UNL     1      30.972  -8.786 -19.641  0.00  0.00    +0.114 C 
ATOM      8  H   UNL     1      31.631  -5.628 -21.580  0.00  0.00    +0.165 HD
ENDROOT
BRANCH   1  12
ATOM      9  C   UNL     1      33.402  -5.409 -25.909  0.00  0.00    +0.048 C 
ATOM     10  C   UNL     1      34.187  -5.219 -24.772  0.00  0.00    +0.016 C 
ATOM     11  C   UNL     1      32.114  -5.930 -25.789  0.00  0.00    +0.016 C 
ATOM     12  C   UNL     1      32.397  -6.072 -23.393  0.00  0.00    +0.058 C 
ATOM     13  C   UNL     1      33.685  -5.550 -23.515  0.00  0.00    +0.017 C 
ATOM     14  C   UNL     1      31.612  -6.262 -24.531  0.00  0.00    +0.017 C 
BRANCH   9  16
ATOM     15  O   UNL     1      34.968  -4.680 -29.743  0.00  0.00    -0.350 OA
ATOM     16  N   UNL     1      33.906  -5.076 -27.172  0.00  0.00    -0.303 N 
ATOM     17  C   UNL     1      33.183  -5.558 -28.356  0.00  0.00    +0.123 C 
ATOM     18  C   UNL     1      35.348  -4.883 -27.356  0.00  0.00    +0.123 C 
ATOM     19  C   UNL     1      33.551  -4.708 -29.567  0.00  0.00    +0.164 C 
ATOM     20  C   UNL     1      35.602  -4.069 -28.620  0.00  0.00    +0.164 C 
ENDBRANCH   9  16
ENDBRANCH   1  12
BRANCH   5  21
ATOM     21  C   UNL     1      32.152 -11.100 -22.252  0.00  0.00    +0.031 C 
ATOM     22  C   UNL     1      32.715 -10.990 -23.523  0.00  0.00    +0.003 C 
ATOM     23  C   UNL     1      31.936 -12.358 -21.691  0.00  0.00    +0.003 C 
ATOM     24  C   UNL     1      32.847 -13.398 -23.672  0.00  0.00    +0.053 C 
ATOM     25  C   UNL     1      33.063 -12.140 -24.233  0.00  0.00    +0.005 C 
ATOM     26  C   UNL     1      32.283 -13.508 -22.401  0.00  0.00    +0.005 C 
BRANCH  24  29
ATOM     27  O   UNL     1      33.111 -14.627 -25.651  0.00  0.00    -0.270 OA
ATOM     28  N   UNL     1      33.685 -15.683 -23.668  0.00  0.00    -0.288 N 
ATOM     29  C   UNL     1      33.209 -14.597 -24.412  0.00  0.00    +0.247 C 
ATOM     30  H   UNL     1      33.736 -15.590 -22.690  0.00  0.00    +0.151 HD
BRANCH  28  31
ATOM     31  C   UNL     1      34.106 -16.933 -24.259  0.00  0.00    +0.197 C 
BRANCH  31  33
ATOM     32  N   UNL     1      33.994 -18.882 -22.509  0.00  0.00    -0.194 NA
ATOM     33  C   UNL     1      34.043 -18.018 -23.282  0.00  0.00    +0.095 C 
ENDBRANCH  31  33
ENDBRANCH  28  31
ENDBRANCH  24  29
ENDBRANCH   5  21
TORSDOF 6
ENDMDL
MODEL 4
REMARK VINA RESULT:      -9.6      9.951     16.665
REMARK  Name = 25062766
REMARK  6 active torsions:
REMARK  status: ('A' for Active; 'I' for Inactive)
REMARK    1  A    between atoms: N_1  and  C_12
REMARK    2  A    between atoms: C_5  and  C_21
REMARK    3  A    between atoms: C_9  and  N_16
REMARK    4  A    between atoms: C_24  and  C_29
REMARK    5  A    between atoms: N_28  and  C_31
REMARK    6  A    between atoms: C_31  and  C_33
REMARK                            x       y       z     vdW  Elec       q    Type
REMARK                         _______ _______ _______ _____ _____    ______ ____
ROOT
ATOM      1  N   UNL     1      31.194  -8.595 -21.182  0.00  0.00    -0.247 N 
ATOM      2  N   UNL     1      31.926  -7.087 -22.819  0.00  0.00    -0.337 NA
ATOM      3  N   UNL     1      30.711  -6.321 -20.885  0.00  0.00    -0.170 NA
ATOM      4  C   UNL     1      31.280  -7.270 -21.651  0.00  0.00    +0.149 C 
ATOM      5  C   UNL     1      31.989  -5.806 -23.239  0.00  0.00    +0.146 C 
ATOM      6  C   UNL     1      31.445  -4.744 -22.546  0.00  0.00    +0.055 C 
ATOM      7  C   UNL     1      30.811  -5.064 -21.364  0.00  0.00    +0.114 C 
ATOM      8  H   UNL     1      30.716  -8.681 -20.326  0.00  0.00    +0.165 HD
ENDROOT
BRANCH   1  12
ATOM      9  C   UNL     1      32.580 -12.252 -22.712  0.00  0.00    +0.048 C 
ATOM     10  C   UNL     1      32.795 -11.072 -23.424  0.00  0.00    +0.016 C 
ATOM     11  C   UNL     1      31.904 -12.218 -21.493  0.00  0.00    +0.016 C 
ATOM     12  C   UNL     1      31.660  -9.823 -21.697  0.00  0.00    +0.058 C 
ATOM     13  C   UNL     1      32.336  -9.858 -22.916  0.00  0.00    +0.017 C 
ATOM     14  C   UNL     1      31.444 -11.004 -20.985  0.00  0.00    +0.017 C 
BRANCH   9  16
ATOM     15  O   UNL     1      34.217 -15.795 -24.277  0.00  0.00    -0.350 OA
ATOM     16  N   UNL     1      33.042 -13.471 -23.222  0.00  0.00    -0.303 N 
ATOM     17  C   UNL     1      34.060 -14.201 -22.456  0.00  0.00    +0.123 C 
ATOM     18  C   UNL     1      33.072 -13.693 -24.671  0.00  0.00    +0.123 C 
ATOM     19  C   UNL     1      34.057 -15.670 -22.864  0.00  0.00    +0.164 C 
ATOM     20  C   UNL     1      33.121 -15.190 -24.962  0.00  0.00    +0.164 C 
ENDBRANCH   9  16
ENDBRANCH   1  12
BRANCH   5  21
ATOM     21  C   UNL     1      32.678  -5.606 -24.492  0.00  0.00    +0.031 C 
ATOM     22  C   UNL     1      32.056  -5.949 -25.693  0.00  0.00    +0.003 C 
ATOM     23  C   UNL     1      33.964  -5.067 -24.502  0.00  0.00    +0.003 C 
ATOM     24  C   UNL     1      34.007  -5.214 -26.913  0.00  0.00    +0.053 C 
ATOM     25  C   UNL     1      32.721  -5.753 -26.904  0.00  0.00    +0.005 C 
ATOM     26  C   UNL     1      34.629  -4.871 -25.713  0.00  0.00    +0.005 C 
BRANCH  24  29
ATOM     27  O   UNL     1      34.065  -4.938 -29.240  0.00  0.00    -0.270 OA
ATOM     28  N   UNL     1      36.094  -4.878 -28.121  0.00  0.00    -0.288 N 
ATOM     29  C   UNL     1      34.701  -5.010 -28.175  0.00  0.00    +0.247 C 
ATOM     30  H   UNL     1      36.533  -4.946 -27.242  0.00  0.00    +0.151 HD
BRANCH  28  31
ATOM     31  C   UNL     1      36.921  -4.648 -29.282  0.00  0.00    +0.197 C 
BRANCH  31  33
ATOM     32  N   UNL     1      38.970  -6.284 -29.305  0.00  0.00    -0.194 NA
ATOM     33  C   UNL     1      38.064  -5.559 -29.297  0.00  0.00    +0.095 C 
ENDBRANCH  31  33
ENDBRANCH  28  31
ENDBRANCH  24  29
ENDBRANCH   5  21
TORSDOF 6
ENDMDL
MODEL 5
REMARK VINA RESULT:      -9.5      9.812     16.474
REMARK  Name = 25062766
REMARK  6 active torsions:
REMARK  status: ('A' for Active; 'I' for Inactive)
REMARK    1  A    between atoms: N_1  and  C_12
REMARK    2  A    between atoms: C_5  and  C_21
REMARK    3  A    between atoms: C_9  and  N_16
REMARK    4  A    between atoms: C_24  and  C_29
REMARK    5  A    between atoms: N_28  and  C_31
REMARK    6  A    between atoms: C_31  and  C_33
REMARK                            x       y       z     vdW  Elec       q    Type
REMARK                         _______ _______ _______ _____ _____    ______ ____
ROOT
ATOM      1  N   UNL     1      31.287  -8.877 -20.967  0.00  0.00    -0.247 N 
ATOM      2  N   UNL     1      31.966  -7.304 -22.565  0.00  0.00    -0.337 NA
ATOM      3  N   UNL     1      30.804  -6.618 -20.569  0.00  0.00    -0.170 NA
ATOM      4  C   UNL     1      31.355  -7.534 -21.387  0.00  0.00    +0.149 C 
ATOM      5  C   UNL     1      32.014  -6.008 -22.938  0.00  0.00    +0.146 C 
ATOM      6  C   UNL     1      31.486  -4.975 -22.189  0.00  0.00    +0.055 C 
ATOM      7  C   UNL     1      30.887  -5.343 -21.002  0.00  0.00    +0.114 C 
ATOM      8  H   UNL     1      30.833  -8.997 -20.102  0.00  0.00    +0.165 HD
ENDROOT
BRANCH   1  12
ATOM      9  C   UNL     1      32.639 -12.465 -22.678  0.00  0.00    +0.048 C 
ATOM     10  C   UNL     1      31.990 -12.482 -21.444  0.00  0.00    +0.016 C 
ATOM     11  C   UNL     1      32.840 -11.256 -23.344  0.00  0.00    +0.016 C 
ATOM     12  C   UNL     1      31.741 -10.082 -21.541  0.00  0.00    +0.058 C 
ATOM     13  C   UNL     1      31.541 -11.291 -20.876  0.00  0.00    +0.017 C 
ATOM     14  C   UNL     1      32.390 -10.065 -22.776  0.00  0.00    +0.017 C 
BRANCH   9  16
ATOM     15  O   UNL     1      34.240 -15.935 -24.433  0.00  0.00    -0.350 OA
ATOM     16  N   UNL     1      33.090 -13.661 -23.249  0.00  0.00    -0.303 N 
ATOM     17  C   UNL     1      34.151 -14.403 -22.556  0.00  0.00    +0.123 C 
ATOM     18  C   UNL     1      33.054 -13.836 -24.704  0.00  0.00    +0.123 C 
ATOM     19  C   UNL     1      34.145 -15.858 -23.011  0.00  0.00    +0.164 C 
ATOM     20  C   UNL     1      33.106 -15.321 -25.046  0.00  0.00    +0.164 C 
ENDBRANCH   9  16
ENDBRANCH   1  12
BRANCH   5  21
ATOM     21  C   UNL     1      32.666  -5.756 -24.200  0.00  0.00    +0.031 C 
ATOM     22  C   UNL     1      33.945  -5.199 -24.227  0.00  0.00    +0.003 C 
ATOM     23  C   UNL     1      32.017  -6.071 -25.395  0.00  0.00    +0.003 C 
ATOM     24  C   UNL     1      33.926  -5.274 -26.642  0.00  0.00    +0.053 C 
ATOM     25  C   UNL     1      34.575  -4.958 -25.448  0.00  0.00    +0.005 C 
ATOM     26  C   UNL     1      32.648  -5.830 -26.615  0.00  0.00    +0.005 C 
BRANCH  24  29
ATOM     27  O   UNL     1      33.936  -5.061 -28.976  0.00  0.00    -0.270 OA
ATOM     28  N   UNL     1      35.949  -4.720 -27.878  0.00  0.00    -0.288 N 
ATOM     29  C   UNL     1      34.583  -5.023 -27.915  0.00  0.00    +0.247 C 
ATOM     30  H   UNL     1      36.398  -4.708 -27.002  0.00  0.00    +0.151 HD
BRANCH  28  31
ATOM     31  C   UNL     1      36.735  -4.423 -29.053  0.00  0.00    +0.197 C 
BRANCH  31  33
ATOM     32  N   UNL     1      38.472  -6.331 -29.519  0.00  0.00    -0.194 NA
ATOM     33  C   UNL     1      37.705  -5.486 -29.312  0.00  0.00    +0.095 C 
ENDBRANCH  31  33
ENDBRANCH  28  31
ENDBRANCH  24  29
ENDBRANCH   5  21
TORSDOF 6
ENDMDL
MODEL 6
REMARK VINA RESULT:      -9.1      9.838     15.894
REMARK  Name = 25062766
REMARK  6 active torsions:
REMARK  status: ('A' for Active; 'I' for Inactive)
REMARK    1  A    between atoms: N_1  and  C_12
REMARK    2  A    between atoms: C_5  and  C_21
REMARK    3  A    between atoms: C_9  and  N_16
REMARK    4  A    between atoms: C_24  and  C_29
REMARK    5  A    between atoms: N_28  and  C_31
REMARK    6  A    between atoms: C_31  and  C_33
REMARK                            x       y       z     vdW  Elec       q    Type
REMARK                         _______ _______ _______ _____ _____    ______ ____
ROOT
ATOM      1  N   UNL     1      31.461  -9.659 -20.172  0.00  0.00    -0.247 N 
ATOM      2  N   UNL     1      32.138  -7.850 -21.498  0.00  0.00    -0.337 NA
ATOM      3  N   UNL     1      31.036  -7.492 -19.386  0.00  0.00    -0.170 NA
ATOM      4  C   UNL     1      31.549  -8.266 -20.361  0.00  0.00    +0.149 C 
ATOM      5  C   UNL     1      32.205  -6.511 -21.647  0.00  0.00    +0.146 C 
ATOM      6  C   UNL     1      31.716  -5.610 -20.722  0.00  0.00    +0.055 C 
ATOM      7  C   UNL     1      31.136  -6.164 -19.599  0.00  0.00    +0.114 C 
ATOM      8  H   UNL     1      31.024  -9.917 -19.328  0.00  0.00    +0.165 HD
ENDROOT
BRANCH   1  12
ATOM      9  C   UNL     1      32.701 -12.930 -22.496  0.00  0.00    +0.048 C 
ATOM     10  C   UNL     1      32.561 -11.671 -23.081  0.00  0.00    +0.016 C 
ATOM     11  C   UNL     1      32.428 -13.102 -21.138  0.00  0.00    +0.016 C 
ATOM     12  C   UNL     1      31.877 -10.757 -20.953  0.00  0.00    +0.058 C 
ATOM     13  C   UNL     1      32.149 -10.586 -22.310  0.00  0.00    +0.017 C 
ATOM     14  C   UNL     1      32.017 -12.016 -20.367  0.00  0.00    +0.017 C 
BRANCH   9  16
ATOM     15  O   UNL     1      34.184 -16.073 -24.863  0.00  0.00    -0.350 OA
ATOM     16  N   UNL     1      33.114 -14.020 -23.270  0.00  0.00    -0.303 N 
ATOM     17  C   UNL     1      34.233 -14.834 -22.779  0.00  0.00    +0.123 C 
ATOM     18  C   UNL     1      32.962 -13.981 -24.728  0.00  0.00    +0.123 C 
ATOM     19  C   UNL     1      34.203 -16.207 -23.442  0.00  0.00    +0.164 C 
ATOM     20  C   UNL     1      33.000 -15.399 -25.288  0.00  0.00    +0.164 C 
ENDBRANCH   9  16
ENDBRANCH   1  12
BRANCH   5  21
ATOM     21  C   UNL     1      32.834  -6.060 -22.866  0.00  0.00    +0.031 C 
ATOM     22  C   UNL     1      32.630  -4.755 -23.316  0.00  0.00    +0.003 C 
ATOM     23  C   UNL     1      33.648  -6.929 -23.593  0.00  0.00    +0.003 C 
ATOM     24  C   UNL     1      34.053  -5.189 -25.219  0.00  0.00    +0.053 C 
ATOM     25  C   UNL     1      33.239  -4.320 -24.492  0.00  0.00    +0.005 C 
ATOM     26  C   UNL     1      34.257  -6.493 -24.770  0.00  0.00    +0.005 C 
BRANCH  24  29
ATOM     27  O   UNL     1      35.906  -4.911 -26.628  0.00  0.00    -0.270 OA
ATOM     28  N   UNL     1      33.867  -4.124 -27.400  0.00  0.00    -0.288 N 
ATOM     29  C   UNL     1      34.689  -4.736 -26.446  0.00  0.00    +0.247 C 
ATOM     30  H   UNL     1      32.911  -4.017 -27.189  0.00  0.00    +0.151 HD
BRANCH  28  31
ATOM     31  C   UNL     1      34.344  -3.643 -28.676  0.00  0.00    +0.197 C 
BRANCH  31  33
ATOM     32  N   UNL     1      32.487  -2.259 -29.904  0.00  0.00    -0.194 NA
ATOM     33  C   UNL     1      33.310  -2.869 -29.360  0.00  0.00    +0.095 C 
ENDBRANCH  31  33
ENDBRANCH  28  31
ENDBRANCH  24  29
ENDBRANCH   5  21
TORSDOF 6
ENDMDL
MODEL 7
REMARK VINA RESULT:      -8.8      3.152      7.030
REMARK  Name = 25062766
REMARK  6 active torsions:
REMARK  status: ('A' for Active; 'I' for Inactive)
REMARK    1  A    between atoms: N_1  and  C_12
REMARK    2  A    between atoms: C_5  and  C_21
REMARK    3  A    between atoms: C_9  and  N_16
REMARK    4  A    between atoms: C_24  and  C_29
REMARK    5  A    between atoms: N_28  and  C_31
REMARK    6  A    between atoms: C_31  and  C_33
REMARK                            x       y       z     vdW  Elec       q    Type
REMARK                         _______ _______ _______ _____ _____    ______ ____
ROOT
ATOM      1  N   UNL     1      30.964 -21.995 -17.582  0.00  0.00    -0.247 N 
ATOM      2  N   UNL     1      32.352 -22.897 -15.924  0.00  0.00    -0.337 NA
ATOM      3  N   UNL     1      29.966 -23.224 -15.853  0.00  0.00    -0.170 NA
ATOM      4  C   UNL     1      31.100 -22.742 -16.395  0.00  0.00    +0.149 C 
ATOM      5  C   UNL     1      32.447 -23.616 -14.787  0.00  0.00    +0.146 C 
ATOM      6  C   UNL     1      31.361 -24.164 -14.133  0.00  0.00    +0.055 C 
ATOM      7  C   UNL     1      30.134 -23.932 -14.718  0.00  0.00    +0.114 C 
ATOM      8  H   UNL     1      30.032 -21.908 -17.889  0.00  0.00    +0.165 HD
ENDROOT
BRANCH   1  12
ATOM      9  C   UNL     1      33.745 -20.072 -20.072  0.00  0.00    +0.048 C 
ATOM     10  C   UNL     1      34.171 -21.055 -19.178  0.00  0.00    +0.016 C 
ATOM     11  C   UNL     1      32.395 -19.728 -20.139  0.00  0.00    +0.016 C 
ATOM     12  C   UNL     1      31.898 -21.350 -18.418  0.00  0.00    +0.058 C 
ATOM     13  C   UNL     1      33.249 -21.693 -18.351  0.00  0.00    +0.017 C 
ATOM     14  C   UNL     1      31.472 -20.367 -19.312  0.00  0.00    +0.017 C 
BRANCH   9  16
ATOM     15  O   UNL     1      36.566 -18.390 -22.698  0.00  0.00    -0.350 OA
ATOM     16  N   UNL     1      34.672 -19.432 -20.902  0.00  0.00    -0.303 N 
ATOM     17  C   UNL     1      34.345 -19.291 -22.327  0.00  0.00    +0.123 C 
ATOM     18  C   UNL     1      36.104 -19.507 -20.594  0.00  0.00    +0.123 C 
ATOM     19  C   UNL     1      35.176 -18.168 -22.938  0.00  0.00    +0.164 C 
ATOM     20  C   UNL     1      36.842 -18.373 -21.298  0.00  0.00    +0.164 C 
ENDBRANCH   9  16
ENDBRANCH   1  12
BRANCH   5  21
ATOM     21  C   UNL     1      33.787 -23.784 -14.277  0.00  0.00    +0.031 C 
ATOM     22  C   UNL     1      34.000 -23.922 -12.905  0.00  0.00    +0.003 C 
ATOM     23  C   UNL     1      34.869 -23.809 -15.156  0.00  0.00    +0.003 C 
ATOM     24  C   UNL     1      36.377 -24.111 -13.293  0.00  0.00    +0.053 C 
ATOM     25  C   UNL     1      35.295 -24.085 -12.413  0.00  0.00    +0.005 C 
ATOM     26  C   UNL     1      36.164 -23.973 -14.664  0.00  0.00    +0.005 C 
BRANCH  24  29
ATOM     27  O   UNL     1      37.936 -24.325 -11.556  0.00  0.00    -0.270 OA
ATOM     28  N   UNL     1      38.753 -24.413 -13.724  0.00  0.00    -0.288 N 
ATOM     29  C   UNL     1      37.727 -24.281 -12.781  0.00  0.00    +0.247 C 
ATOM     30  H   UNL     1      38.516 -24.368 -14.678  0.00  0.00    +0.151 HD
BRANCH  28  31
ATOM     31  C   UNL     1      40.141 -24.612 -13.374  0.00  0.00    +0.197 C 
BRANCH  31  33
ATOM     32  N   UNL     1      40.961 -26.985 -14.129  0.00  0.00    -0.194 NA
ATOM     33  C   UNL     1      40.599 -25.936 -13.793  0.00  0.00    +0.095 C 
ENDBRANCH  31  33
ENDBRANCH  28  31
ENDBRANCH  24  29
ENDBRANCH   5  21
TORSDOF 6
ENDMDL
