MODEL 1
REMARK VINA RESULT:     -11.9      0.000      0.000
REMARK  Name = 449241
REMARK  8 active torsions:
REMARK  status: ('A' for Active; 'I' for Inactive)
REMARK    1  A    between atoms: N_1  and  S_3
REMARK    2  A    between atoms: N_1  and  C_16
REMARK    3  A    between atoms: S_3  and  C_7
REMARK    4  A    between atoms: C_16  and  C_17
REMARK    5  A    between atoms: C_17  and  N_18
REMARK    6  A    between atoms: N_18  and  C_21
REMARK    7  A    between atoms: C_21  and  C_22
REMARK    8  A    between atoms: C_23  and  C_25
REMARK                            x       y       z     vdW  Elec       q    Type
REMARK                         _______ _______ _______ _____ _____    ______ ____
ROOT
ATOM      1  N   UNL     1      33.968 -20.906 -19.597  0.00  0.00    -0.182 NA
ATOM      2  H   UNL     1      34.565 -21.377 -20.275  0.00  0.00    +0.149 HD
ENDROOT
BRANCH   1   3
ATOM      3  S   UNL     1      33.370 -22.110 -18.544  0.00  0.00    +0.060 S 
ATOM      4  O   UNL     1      33.433 -23.397 -19.217  0.00  0.00    -0.153 OA
ATOM      5  O   UNL     1      32.113 -21.653 -17.974  0.00  0.00    -0.153 OA
BRANCH   3   7
ATOM      6  N   UNL     1      33.850 -23.670 -13.406  0.00  0.00    -0.242 NA
ATOM      7  C   UNL     1      34.565 -22.099 -17.256  0.00  0.00    +0.122 C 
ATOM      8  C   UNL     1      34.309 -22.626 -15.980  0.00  0.00    +0.022 C 
ATOM      9  C   UNL     1      35.323 -22.576 -15.001  0.00  0.00    +0.020 C 
ATOM     10  C   UNL     1      35.805 -21.532 -17.555  0.00  0.00    +0.020 C 
ATOM     11  C   UNL     1      36.568 -22.004 -15.314  0.00  0.00    +0.002 C 
ATOM     12  C   UNL     1      33.076 -23.201 -15.649  0.00  0.00    +0.022 C 
ATOM     13  C   UNL     1      36.804 -21.485 -16.586  0.00  0.00    +0.001 C 
ATOM     14  C   UNL     1      35.033 -23.111 -13.744  0.00  0.00    +0.099 C 
ATOM     15  C   UNL     1      32.903 -23.700 -14.367  0.00  0.00    +0.099 C 
ENDBRANCH   3   7
ENDBRANCH   1   3
BRANCH   1  16
ATOM     16  C   UNL     1      33.035 -20.069 -20.364  0.00  0.00    +0.068 C 
BRANCH  16  17
ATOM     17  C   UNL     1      33.810 -19.270 -21.402  0.00  0.00    -0.062 C 
BRANCH  17  18
ATOM     18  N   UNL     1      35.079 -18.817 -20.846  0.00  0.00    +0.387 N 
ATOM     19  H   UNL     1      35.772 -19.559 -20.950  0.00  0.00    -0.084 HD
ATOM     20  H   UNL     1      34.941 -18.593 -19.861  0.00  0.00    -0.084 HD
BRANCH  18  21
ATOM     21  C   UNL     1      35.551 -17.624 -21.535  0.00  0.00    -0.055 C 
BRANCH  21  22
ATOM     22  C   UNL     1      34.640 -16.456 -21.301  0.00  0.00    -0.050 C 
ATOM     23  C   UNL     1      34.475 -15.462 -22.188  0.00  0.00    -0.007 C 
BRANCH  23  25
ATOM     24 BR   UNL     1      30.749 -10.645 -21.453  0.00  0.00    -0.049 Br
ATOM     25  C   UNL     1      33.580 -14.306 -22.011  0.00  0.00    -0.000 C 
ATOM     26  C   UNL     1      33.051 -14.041 -20.758  0.00  0.00    +0.000 C 
ATOM     27  C   UNL     1      33.284 -13.503 -23.102  0.00  0.00    +0.000 C 
ATOM     28  C   UNL     1      32.204 -12.945 -20.590  0.00  0.00    +0.007 C 
ATOM     29  C   UNL     1      32.437 -12.407 -22.934  0.00  0.00    +0.007 C 
ATOM     30  C   UNL     1      31.897 -12.129 -21.679  0.00  0.00    +0.035 C 
ENDBRANCH  23  25
ENDBRANCH  21  22
ENDBRANCH  18  21
ENDBRANCH  17  18
ENDBRANCH  16  17
ENDBRANCH   1  16
TORSDOF 8
ENDMDL
MODEL 2
REMARK VINA RESULT:     -11.7      1.498      2.109
REMARK  Name = 449241
REMARK  8 active torsions:
REMARK  status: ('A' for Active; 'I' for Inactive)
REMARK    1  A    between atoms: N_1  and  S_3
REMARK    2  A    between atoms: N_1  and  C_16
REMARK    3  A    between atoms: S_3  and  C_7
REMARK    4  A    between atoms: C_16  and  C_17
REMARK    5  A    between atoms: C_17  and  N_18
REMARK    6  A    between atoms: N_18  and  C_21
REMARK    7  A    between atoms: C_21  and  C_22
REMARK    8  A    between atoms: C_23  and  C_25
REMARK                            x       y       z     vdW  Elec       q    Type
REMARK                         _______ _______ _______ _____ _____    ______ ____
ROOT
ATOM      1  N   UNL     1      34.640 -21.314 -18.526  0.00  0.00    -0.182 NA
ATOM      2  H   UNL     1      35.328 -21.769 -17.928  0.00  0.00    +0.149 HD
ENDROOT
BRANCH   1   3
ATOM      3  S   UNL     1      33.196 -22.215 -18.389  0.00  0.00    +0.060 S 
ATOM      4  O   UNL     1      33.330 -23.440 -19.159  0.00  0.00    -0.153 OA
ATOM      5  O   UNL     1      32.066 -21.331 -18.627  0.00  0.00    -0.153 OA
BRANCH   3   7
ATOM      6  N   UNL     1      29.653 -23.012 -14.404  0.00  0.00    -0.242 NA
ATOM      7  C   UNL     1      33.184 -22.633 -16.682  0.00  0.00    +0.122 C 
ATOM      8  C   UNL     1      31.999 -22.754 -15.939  0.00  0.00    +0.022 C 
ATOM      9  C   UNL     1      32.078 -23.092 -14.572  0.00  0.00    +0.020 C 
ATOM     10  C   UNL     1      34.426 -22.843 -16.079  0.00  0.00    +0.020 C 
ATOM     11  C   UNL     1      33.332 -23.301 -13.975  0.00  0.00    +0.002 C 
ATOM     12  C   UNL     1      30.739 -22.550 -16.515  0.00  0.00    +0.022 C 
ATOM     13  C   UNL     1      34.499 -23.176 -14.729  0.00  0.00    +0.001 C 
ATOM     14  C   UNL     1      30.878 -23.205 -13.866  0.00  0.00    +0.099 C 
ATOM     15  C   UNL     1      29.616 -22.690 -15.714  0.00  0.00    +0.099 C 
ENDBRANCH   3   7
ENDBRANCH   1   3
BRANCH   1  16
ATOM     16  C   UNL     1      35.273 -21.133 -19.840  0.00  0.00    +0.068 C 
BRANCH  16  17
ATOM     17  C   UNL     1      34.777 -19.836 -20.464  0.00  0.00    -0.062 C 
BRANCH  17  18
ATOM     18  N   UNL     1      35.841 -18.841 -20.477  0.00  0.00    +0.387 N 
ATOM     19  H   UNL     1      36.743 -19.318 -20.505  0.00  0.00    -0.084 HD
ATOM     20  H   UNL     1      35.764 -18.273 -19.633  0.00  0.00    -0.084 HD
BRANCH  18  21
ATOM     21  C   UNL     1      35.725 -17.971 -21.638  0.00  0.00    -0.055 C 
BRANCH  21  22
ATOM     22  C   UNL     1      34.859 -16.781 -21.350  0.00  0.00    -0.050 C 
ATOM     23  C   UNL     1      34.652 -15.790 -22.233  0.00  0.00    -0.007 C 
BRANCH  23  25
ATOM     24 BR   UNL     1      31.097 -10.884 -21.277  0.00  0.00    -0.049 Br
ATOM     25  C   UNL     1      33.798 -14.613 -22.003  0.00  0.00    -0.000 C 
ATOM     26  C   UNL     1      33.286 -14.381 -20.737  0.00  0.00    +0.000 C 
ATOM     27  C   UNL     1      33.523 -13.757 -23.058  0.00  0.00    +0.000 C 
ATOM     28  C   UNL     1      32.477 -13.265 -20.518  0.00  0.00    +0.007 C 
ATOM     29  C   UNL     1      32.715 -12.641 -22.840  0.00  0.00    +0.007 C 
ATOM     30  C   UNL     1      32.192 -12.396 -21.571  0.00  0.00    +0.035 C 
ENDBRANCH  23  25
ENDBRANCH  21  22
ENDBRANCH  18  21
ENDBRANCH  17  18
ENDBRANCH  16  17
ENDBRANCH   1  16
TORSDOF 8
ENDMDL
MODEL 3
REMARK VINA RESULT:     -11.5      1.511      2.548
REMARK  Name = 449241
REMARK  8 active torsions:
REMARK  status: ('A' for Active; 'I' for Inactive)
REMARK    1  A    between atoms: N_1  and  S_3
REMARK    2  A    between atoms: N_1  and  C_16
REMARK    3  A    between atoms: S_3  and  C_7
REMARK    4  A    between atoms: C_16  and  C_17
REMARK    5  A    between atoms: C_17  and  N_18
REMARK    6  A    between atoms: N_18  and  C_21
REMARK    7  A    between atoms: C_21  and  C_22
REMARK    8  A    between atoms: C_23  and  C_25
REMARK                            x       y       z     vdW  Elec       q    Type
REMARK                         _______ _______ _______ _____ _____    ______ ____
ROOT
ATOM      1  N   UNL     1      32.236 -21.600 -19.358  0.00  0.00    -0.182 NA
ATOM      2  H   UNL     1      31.338 -21.688 -18.885  0.00  0.00    +0.149 HD
ENDROOT
BRANCH   1   3
ATOM      3  S   UNL     1      33.356 -22.533 -18.467  0.00  0.00    +0.060 S 
ATOM      4  O   UNL     1      34.573 -21.761 -18.286  0.00  0.00    -0.153 OA
ATOM      5  O   UNL     1      33.424 -23.864 -19.047  0.00  0.00    -0.153 OA
BRANCH   3   7
ATOM      6  N   UNL     1      34.547 -23.815 -13.368  0.00  0.00    -0.242 NA
ATOM      7  C   UNL     1      32.555 -22.679 -16.910  0.00  0.00    +0.122 C 
ATOM      8  C   UNL     1      33.234 -23.059 -15.741  0.00  0.00    +0.022 C 
ATOM      9  C   UNL     1      32.516 -23.153 -14.531  0.00  0.00    +0.020 C 
ATOM     10  C   UNL     1      31.188 -22.398 -16.878  0.00  0.00    +0.020 C 
ATOM     11  C   UNL     1      31.140 -22.868 -14.510  0.00  0.00    +0.002 C 
ATOM     12  C   UNL     1      34.604 -23.347 -15.740  0.00  0.00    +0.022 C 
ATOM     13  C   UNL     1      30.483 -22.493 -15.682  0.00  0.00    +0.001 C 
ATOM     14  C   UNL     1      33.224 -23.534 -13.389  0.00  0.00    +0.099 C 
ATOM     15  C   UNL     1      35.201 -23.715 -14.544  0.00  0.00    +0.099 C 
ENDBRANCH   3   7
ENDBRANCH   1   3
BRANCH   1  16
ATOM     16  C   UNL     1      32.471 -20.163 -19.558  0.00  0.00    +0.068 C 
BRANCH  16  17
ATOM     17  C   UNL     1      33.441 -19.967 -20.714  0.00  0.00    -0.062 C 
BRANCH  17  18
ATOM     18  N   UNL     1      34.774 -19.661 -20.209  0.00  0.00    +0.387 N 
ATOM     19  H   UNL     1      35.184 -20.509 -19.818  0.00  0.00    -0.084 HD
ATOM     20  H   UNL     1      34.692 -18.940 -19.493  0.00  0.00    -0.084 HD
BRANCH  18  21
ATOM     21  C   UNL     1      35.631 -19.164 -21.276  0.00  0.00    -0.055 C 
BRANCH  21  22
ATOM     22  C   UNL     1      35.112 -17.877 -21.846  0.00  0.00    -0.050 C 
ATOM     23  C   UNL     1      34.828 -16.801 -21.096  0.00  0.00    -0.007 C 
BRANCH  23  25
ATOM     24 BR   UNL     1      32.770 -11.435 -23.239  0.00  0.00    -0.049 Br
ATOM     25  C   UNL     1      34.334 -15.513 -21.610  0.00  0.00    -0.000 C 
ATOM     26  C   UNL     1      33.895 -14.548 -20.718  0.00  0.00    +0.000 C 
ATOM     27  C   UNL     1      34.317 -15.289 -22.978  0.00  0.00    +0.000 C 
ATOM     28  C   UNL     1      33.427 -13.327 -21.204  0.00  0.00    +0.007 C 
ATOM     29  C   UNL     1      33.849 -14.068 -23.465  0.00  0.00    +0.007 C 
ATOM     30  C   UNL     1      33.404 -13.088 -22.579  0.00  0.00    +0.035 C 
ENDBRANCH  23  25
ENDBRANCH  21  22
ENDBRANCH  18  21
ENDBRANCH  17  18
ENDBRANCH  16  17
ENDBRANCH   1  16
TORSDOF 8
ENDMDL
MODEL 4
REMARK VINA RESULT:     -11.5      1.059      2.055
REMARK  Name = 449241
REMARK  8 active torsions:
REMARK  status: ('A' for Active; 'I' for Inactive)
REMARK    1  A    between atoms: N_1  and  S_3
REMARK    2  A    between atoms: N_1  and  C_16
REMARK    3  A    between atoms: S_3  and  C_7
REMARK    4  A    between atoms: C_16  and  C_17
REMARK    5  A    between atoms: C_17  and  N_18
REMARK    6  A    between atoms: N_18  and  C_21
REMARK    7  A    between atoms: C_21  and  C_22
REMARK    8  A    between atoms: C_23  and  C_25
REMARK                            x       y       z     vdW  Elec       q    Type
REMARK                         _______ _______ _______ _____ _____    ______ ____
ROOT
ATOM      1  N   UNL     1      34.457 -20.816 -18.830  0.00  0.00    -0.182 NA
ATOM      2  H   UNL     1      35.234 -21.046 -18.211  0.00  0.00    +0.149 HD
ENDROOT
BRANCH   1   3
ATOM      3  S   UNL     1      33.311 -22.072 -18.670  0.00  0.00    +0.060 S 
ATOM      4  O   UNL     1      33.750 -23.213 -19.455  0.00  0.00    -0.153 OA
ATOM      5  O   UNL     1      31.981 -21.523 -18.873  0.00  0.00    -0.153 OA
BRANCH   3   7
ATOM      6  N   UNL     1      37.064 -22.210 -14.802  0.00  0.00    -0.242 NA
ATOM      7  C   UNL     1      33.453 -22.483 -16.967  0.00  0.00    +0.122 C 
ATOM      8  C   UNL     1      34.664 -22.387 -16.262  0.00  0.00    +0.022 C 
ATOM      9  C   UNL     1      34.692 -22.738 -14.897  0.00  0.00    +0.020 C 
ATOM     10  C   UNL     1      32.292 -22.920 -16.328  0.00  0.00    +0.020 C 
ATOM     11  C   UNL     1      33.517 -23.176 -14.263  0.00  0.00    +0.002 C 
ATOM     12  C   UNL     1      35.845 -21.952 -16.875  0.00  0.00    +0.022 C 
ATOM     13  C   UNL     1      32.324 -23.266 -14.980  0.00  0.00    +0.001 C 
ATOM     14  C   UNL     1      35.913 -22.629 -14.228  0.00  0.00    +0.099 C 
ATOM     15  C   UNL     1      36.999 -21.883 -16.110  0.00  0.00    +0.099 C 
ENDBRANCH   3   7
ENDBRANCH   1   3
BRANCH   1  16
ATOM     16  C   UNL     1      35.039 -20.514 -20.146  0.00  0.00    +0.068 C 
BRANCH  16  17
ATOM     17  C   UNL     1      34.227 -19.415 -20.816  0.00  0.00    -0.062 C 
BRANCH  17  18
ATOM     18  N   UNL     1      34.873 -18.989 -22.050  0.00  0.00    +0.387 N 
ATOM     19  H   UNL     1      34.159 -18.800 -22.753  0.00  0.00    -0.084 HD
ATOM     20  H   UNL     1      35.495 -19.734 -22.365  0.00  0.00    -0.084 HD
BRANCH  18  21
ATOM     21  C   UNL     1      35.661 -17.784 -21.835  0.00  0.00    -0.055 C 
BRANCH  21  22
ATOM     22  C   UNL     1      34.789 -16.605 -21.518  0.00  0.00    -0.050 C 
ATOM     23  C   UNL     1      34.542 -15.617 -22.392  0.00  0.00    -0.007 C 
BRANCH  23  25
ATOM     24 BR   UNL     1      30.954 -10.758 -21.321  0.00  0.00    -0.049 Br
ATOM     25  C   UNL     1      33.680 -14.451 -22.135  0.00  0.00    -0.000 C 
ATOM     26  C   UNL     1      33.339 -14.133 -20.830  0.00  0.00    +0.000 C 
ATOM     27  C   UNL     1      33.227 -13.691 -23.203  0.00  0.00    +0.000 C 
ATOM     28  C   UNL     1      32.523 -13.028 -20.585  0.00  0.00    +0.007 C 
ATOM     29  C   UNL     1      32.412 -12.586 -22.958  0.00  0.00    +0.007 C 
ATOM     30  C   UNL     1      32.060 -12.255 -21.651  0.00  0.00    +0.035 C 
ENDBRANCH  23  25
ENDBRANCH  21  22
ENDBRANCH  18  21
ENDBRANCH  17  18
ENDBRANCH  16  17
ENDBRANCH   1  16
TORSDOF 8
ENDMDL
MODEL 5
REMARK VINA RESULT:     -11.2      2.444      3.385
REMARK  Name = 449241
REMARK  8 active torsions:
REMARK  status: ('A' for Active; 'I' for Inactive)
REMARK    1  A    between atoms: N_1  and  S_3
REMARK    2  A    between atoms: N_1  and  C_16
REMARK    3  A    between atoms: S_3  and  C_7
REMARK    4  A    between atoms: C_16  and  C_17
REMARK    5  A    between atoms: C_17  and  N_18
REMARK    6  A    between atoms: N_18  and  C_21
REMARK    7  A    between atoms: C_21  and  C_22
REMARK    8  A    between atoms: C_23  and  C_25
REMARK                            x       y       z     vdW  Elec       q    Type
REMARK                         _______ _______ _______ _____ _____    ______ ____
ROOT
ATOM      1  N   UNL     1      36.397 -22.264 -17.189  0.00  0.00    -0.182 NA
ATOM      2  H   UNL     1      36.363 -23.116 -17.747  0.00  0.00    +0.149 HD
ENDROOT
BRANCH   1   3
ATOM      3  S   UNL     1      35.547 -22.586 -15.744  0.00  0.00    +0.060 S 
ATOM      4  O   UNL     1      34.476 -23.526 -16.027  0.00  0.00    -0.153 OA
ATOM      5  O   UNL     1      35.247 -21.325 -15.085  0.00  0.00    -0.153 OA
BRANCH   3   7
ATOM      6  N   UNL     1      36.039 -24.884 -10.892  0.00  0.00    -0.242 NA
ATOM      7  C   UNL     1      36.763 -23.407 -14.777  0.00  0.00    +0.122 C 
ATOM      8  C   UNL     1      36.505 -23.892 -13.485  0.00  0.00    +0.022 C 
ATOM      9  C   UNL     1      37.538 -24.538 -12.776  0.00  0.00    +0.020 C 
ATOM     10  C   UNL     1      38.025 -23.561 -15.355  0.00  0.00    +0.020 C 
ATOM     11  C   UNL     1      38.804 -24.688 -13.367  0.00  0.00    +0.002 C 
ATOM     12  C   UNL     1      35.251 -23.753 -12.879  0.00  0.00    +0.022 C 
ATOM     13  C   UNL     1      39.042 -24.200 -14.651  0.00  0.00    +0.001 C 
ATOM     14  C   UNL     1      37.244 -25.008 -11.494  0.00  0.00    +0.099 C 
ATOM     15  C   UNL     1      35.075 -24.260 -11.600  0.00  0.00    +0.099 C 
ENDBRANCH   3   7
ENDBRANCH   1   3
BRANCH   1  16
ATOM     16  C   UNL     1      35.968 -21.166 -18.067  0.00  0.00    +0.068 C 
BRANCH  16  17
ATOM     17  C   UNL     1      34.737 -21.599 -18.851  0.00  0.00    -0.062 C 
BRANCH  17  18
ATOM     18  N   UNL     1      34.124 -20.450 -19.505  0.00  0.00    +0.387 N 
ATOM     19  H   UNL     1      33.918 -19.738 -18.804  0.00  0.00    -0.084 HD
ATOM     20  H   UNL     1      33.267 -20.757 -19.964  0.00  0.00    -0.084 HD
BRANCH  18  21
ATOM     21  C   UNL     1      35.016 -19.887 -20.509  0.00  0.00    -0.055 C 
BRANCH  21  22
ATOM     22  C   UNL     1      34.457 -18.626 -21.098  0.00  0.00    -0.050 C 
ATOM     23  C   UNL     1      35.104 -17.450 -21.069  0.00  0.00    -0.007 C 
BRANCH  23  25
ATOM     24 BR   UNL     1      33.024 -12.207 -23.479  0.00  0.00    -0.049 Br
ATOM     25  C   UNL     1      34.605 -16.192 -21.647  0.00  0.00    -0.000 C 
ATOM     26  C   UNL     1      34.636 -16.016 -23.022  0.00  0.00    +0.000 C 
ATOM     27  C   UNL     1      34.112 -15.205 -20.807  0.00  0.00    +0.000 C 
ATOM     28  C   UNL     1      34.163 -14.824 -23.571  0.00  0.00    +0.007 C 
ATOM     29  C   UNL     1      33.639 -14.013 -21.356  0.00  0.00    +0.007 C 
ATOM     30  C   UNL     1      33.664 -13.823 -22.737  0.00  0.00    +0.035 C 
ENDBRANCH  23  25
ENDBRANCH  21  22
ENDBRANCH  18  21
ENDBRANCH  17  18
ENDBRANCH  16  17
ENDBRANCH   1  16
TORSDOF 8
ENDMDL
MODEL 6
REMARK VINA RESULT:     -11.2      4.643      6.403
REMARK  Name = 449241
REMARK  8 active torsions:
REMARK  status: ('A' for Active; 'I' for Inactive)
REMARK    1  A    between atoms: N_1  and  S_3
REMARK    2  A    between atoms: N_1  and  C_16
REMARK    3  A    between atoms: S_3  and  C_7
REMARK    4  A    between atoms: C_16  and  C_17
REMARK    5  A    between atoms: C_17  and  N_18
REMARK    6  A    between atoms: N_18  and  C_21
REMARK    7  A    between atoms: C_21  and  C_22
REMARK    8  A    between atoms: C_23  and  C_25
REMARK                            x       y       z     vdW  Elec       q    Type
REMARK                         _______ _______ _______ _____ _____    ______ ____
ROOT
ATOM      1  N   UNL     1      32.630 -22.433 -13.852  0.00  0.00    -0.182 NA
ATOM      2  H   UNL     1      32.632 -22.428 -14.871  0.00  0.00    +0.149 HD
ENDROOT
BRANCH   1   3
ATOM      3  S   UNL     1      33.701 -23.669 -13.363  0.00  0.00    +0.060 S 
ATOM      4  O   UNL     1      33.216 -24.941 -13.873  0.00  0.00    -0.153 OA
ATOM      5  O   UNL     1      33.976 -23.517 -11.943  0.00  0.00    -0.153 OA
BRANCH   3   7
ATOM      6  N   UNL     1      38.825 -25.298 -13.749  0.00  0.00    -0.242 NA
ATOM      7  C   UNL     1      35.170 -23.247 -14.230  0.00  0.00    +0.122 C 
ATOM      8  C   UNL     1      36.378 -23.941 -14.057  0.00  0.00    +0.022 C 
ATOM      9  C   UNL     1      37.512 -23.537 -14.792  0.00  0.00    +0.020 C 
ATOM     10  C   UNL     1      35.088 -22.172 -15.116  0.00  0.00    +0.020 C 
ATOM     11  C   UNL     1      37.419 -22.453 -15.681  0.00  0.00    +0.002 C 
ATOM     12  C   UNL     1      36.492 -25.023 -13.177  0.00  0.00    +0.022 C 
ATOM     13  C   UNL     1      36.210 -21.776 -15.839  0.00  0.00    +0.001 C 
ATOM     14  C   UNL     1      38.696 -24.251 -14.594  0.00  0.00    +0.099 C 
ATOM     15  C   UNL     1      37.720 -25.657 -13.063  0.00  0.00    +0.099 C 
ENDBRANCH   3   7
ENDBRANCH   1   3
BRANCH   1  16
ATOM     16  C   UNL     1      31.221 -22.469 -13.432  0.00  0.00    +0.068 C 
BRANCH  16  17
ATOM     17  C   UNL     1      30.406 -23.233 -14.466  0.00  0.00    -0.062 C 
BRANCH  17  18
ATOM     18  N   UNL     1      30.403 -22.518 -15.735  0.00  0.00    +0.387 N 
ATOM     19  H   UNL     1      30.648 -21.542 -15.569  0.00  0.00    -0.084 HD
ATOM     20  H   UNL     1      29.472 -22.588 -16.146  0.00  0.00    -0.084 HD
BRANCH  18  21
ATOM     21  C   UNL     1      31.366 -23.099 -16.661  0.00  0.00    -0.055 C 
BRANCH  21  22
ATOM     22  C   UNL     1      32.062 -22.043 -17.467  0.00  0.00    -0.050 C 
ATOM     23  C   UNL     1      33.090 -22.303 -18.290  0.00  0.00    -0.007 C 
BRANCH  23  25
ATOM     24 BR   UNL     1      36.018 -18.146 -21.720  0.00  0.00    -0.049 Br
ATOM     25  C   UNL     1      33.793 -21.306 -19.114  0.00  0.00    -0.000 C 
ATOM     26  C   UNL     1      33.058 -20.444 -19.913  0.00  0.00    +0.000 C 
ATOM     27  C   UNL     1      35.177 -21.245 -19.074  0.00  0.00    +0.000 C 
ATOM     28  C   UNL     1      33.723 -19.498 -20.693  0.00  0.00    +0.007 C 
ATOM     29  C   UNL     1      35.842 -20.299 -19.854  0.00  0.00    +0.007 C 
ATOM     30  C   UNL     1      35.116 -19.427 -20.663  0.00  0.00    +0.035 C 
ENDBRANCH  23  25
ENDBRANCH  21  22
ENDBRANCH  18  21
ENDBRANCH  17  18
ENDBRANCH  16  17
ENDBRANCH   1  16
TORSDOF 8
ENDMDL
MODEL 7
REMARK VINA RESULT:     -11.0      3.130      4.536
REMARK  Name = 449241
REMARK  8 active torsions:
REMARK  status: ('A' for Active; 'I' for Inactive)
REMARK    1  A    between atoms: N_1  and  S_3
REMARK    2  A    between atoms: N_1  and  C_16
REMARK    3  A    between atoms: S_3  and  C_7
REMARK    4  A    between atoms: C_16  and  C_17
REMARK    5  A    between atoms: C_17  and  N_18
REMARK    6  A    between atoms: N_18  and  C_21
REMARK    7  A    between atoms: C_21  and  C_22
REMARK    8  A    between atoms: C_23  and  C_25
REMARK                            x       y       z     vdW  Elec       q    Type
REMARK                         _______ _______ _______ _____ _____    ______ ____
ROOT
ATOM      1  N   UNL     1      33.627 -23.555 -16.559  0.00  0.00    -0.182 NA
ATOM      2  H   UNL     1      33.285 -24.515 -16.539  0.00  0.00    +0.149 HD
ENDROOT
BRANCH   1   3
ATOM      3  S   UNL     1      33.911 -23.099 -14.938  0.00  0.00    +0.060 S 
ATOM      4  O   UNL     1      32.686 -23.276 -14.177  0.00  0.00    -0.153 OA
ATOM      5  O   UNL     1      34.591 -21.814 -14.925  0.00  0.00    -0.153 OA
BRANCH   3   7
ATOM      6  N   UNL     1      37.080 -24.157 -10.707  0.00  0.00    -0.242 NA
ATOM      7  C   UNL     1      35.070 -24.311 -14.413  0.00  0.00    +0.122 C 
ATOM      8  C   UNL     1      35.730 -24.243 -13.176  0.00  0.00    +0.022 C 
ATOM      9  C   UNL     1      36.647 -25.258 -12.831  0.00  0.00    +0.020 C 
ATOM     10  C   UNL     1      35.316 -25.367 -15.293  0.00  0.00    +0.020 C 
ATOM     11  C   UNL     1      36.887 -26.316 -13.724  0.00  0.00    +0.002 C 
ATOM     12  C   UNL     1      35.505 -23.198 -12.272  0.00  0.00    +0.022 C 
ATOM     13  C   UNL     1      36.222 -26.366 -14.949  0.00  0.00    +0.001 C 
ATOM     14  C   UNL     1      37.284 -25.158 -11.593  0.00  0.00    +0.099 C 
ATOM     15  C   UNL     1      36.196 -23.204 -11.070  0.00  0.00    +0.099 C 
ENDBRANCH   3   7
ENDBRANCH   1   3
BRANCH   1  16
ATOM     16  C   UNL     1      32.685 -22.786 -17.386  0.00  0.00    +0.068 C 
BRANCH  16  17
ATOM     17  C   UNL     1      33.464 -21.928 -18.372  0.00  0.00    -0.062 C 
BRANCH  17  18
ATOM     18  N   UNL     1      34.812 -21.684 -17.874  0.00  0.00    +0.387 N 
ATOM     19  H   UNL     1      35.141 -22.514 -17.381  0.00  0.00    -0.084 HD
ATOM     20  H   UNL     1      34.786 -20.881 -17.245  0.00  0.00    -0.084 HD
BRANCH  18  21
ATOM     21  C   UNL     1      35.724 -21.387 -18.970  0.00  0.00    -0.055 C 
BRANCH  21  22
ATOM     22  C   UNL     1      35.096 -20.470 -19.977  0.00  0.00    -0.050 C 
ATOM     23  C   UNL     1      35.740 -19.429 -20.528  0.00  0.00    -0.007 C 
BRANCH  23  25
ATOM     24 BR   UNL     1      33.378 -15.614 -24.709  0.00  0.00    -0.049 Br
ATOM     25  C   UNL     1      35.173 -18.514 -21.531  0.00  0.00    -0.000 C 
ATOM     26  C   UNL     1      35.254 -17.145 -21.326  0.00  0.00    +0.000 C 
ATOM     27  C   UNL     1      34.569 -19.037 -22.665  0.00  0.00    +0.000 C 
ATOM     28  C   UNL     1      34.717 -16.277 -22.276  0.00  0.00    +0.007 C 
ATOM     29  C   UNL     1      34.033 -18.168 -23.615  0.00  0.00    +0.007 C 
ATOM     30  C   UNL     1      34.106 -16.789 -23.421  0.00  0.00    +0.035 C 
ENDBRANCH  23  25
ENDBRANCH  21  22
ENDBRANCH  18  21
ENDBRANCH  17  18
ENDBRANCH  16  17
ENDBRANCH   1  16
TORSDOF 8
ENDMDL
MODEL 8
REMARK VINA RESULT:     -10.8      5.707     11.464
REMARK  Name = 449241
REMARK  8 active torsions:
REMARK  status: ('A' for Active; 'I' for Inactive)
REMARK    1  A    between atoms: N_1  and  S_3
REMARK    2  A    between atoms: N_1  and  C_16
REMARK    3  A    between atoms: S_3  and  C_7
REMARK    4  A    between atoms: C_16  and  C_17
REMARK    5  A    between atoms: C_17  and  N_18
REMARK    6  A    between atoms: N_18  and  C_21
REMARK    7  A    between atoms: C_21  and  C_22
REMARK    8  A    between atoms: C_23  and  C_25
REMARK                            x       y       z     vdW  Elec       q    Type
REMARK                         _______ _______ _______ _____ _____    ______ ____
ROOT
ATOM      1  N   UNL     1      32.490 -13.403 -21.166  0.00  0.00    -0.182 NA
ATOM      2  H   UNL     1      32.057 -14.236 -21.562  0.00  0.00    +0.149 HD
ENDROOT
BRANCH   1   3
ATOM      3  S   UNL     1      32.313 -12.158 -22.321  0.00  0.00    +0.060 S 
ATOM      4  O   UNL     1      31.191 -12.475 -23.188  0.00  0.00    -0.153 OA
ATOM      5  O   UNL     1      33.615 -11.866 -22.899  0.00  0.00    -0.153 OA
BRANCH   3   7
ATOM      6  N   UNL     1      31.269  -6.893 -22.829  0.00  0.00    -0.242 NA
ATOM      7  C   UNL     1      31.866 -10.786 -21.317  0.00  0.00    +0.122 C 
ATOM      8  C   UNL     1      31.672  -9.497 -21.837  0.00  0.00    +0.022 C 
ATOM      9  C   UNL     1      31.315  -8.450 -20.962  0.00  0.00    +0.020 C 
ATOM     10  C   UNL     1      31.709 -11.033 -19.952  0.00  0.00    +0.020 C 
ATOM     11  C   UNL     1      31.159  -8.709 -19.590  0.00  0.00    +0.002 C 
ATOM     12  C   UNL     1      31.821  -9.218 -23.201  0.00  0.00    +0.022 C 
ATOM     13  C   UNL     1      31.357  -9.997 -19.091  0.00  0.00    +0.001 C 
ATOM     14  C   UNL     1      31.129  -7.182 -21.515  0.00  0.00    +0.099 C 
ATOM     15  C   UNL     1      31.611  -7.919 -23.637  0.00  0.00    +0.099 C 
ENDBRANCH   3   7
ENDBRANCH   1   3
BRANCH   1  16
ATOM     16  C   UNL     1      33.830 -13.798 -20.709  0.00  0.00    +0.068 C 
BRANCH  16  17
ATOM     17  C   UNL     1      34.064 -15.265 -21.042  0.00  0.00    -0.062 C 
BRANCH  17  18
ATOM     18  N   UNL     1      34.562 -15.400 -22.405  0.00  0.00    +0.387 N 
ATOM     19  H   UNL     1      35.404 -14.834 -22.510  0.00  0.00    -0.084 HD
ATOM     20  H   UNL     1      33.837 -15.084 -23.049  0.00  0.00    -0.084 HD
BRANCH  18  21
ATOM     21  C   UNL     1      34.881 -16.789 -22.705  0.00  0.00    -0.055 C 
BRANCH  21  22
ATOM     22  C   UNL     1      34.596 -17.685 -21.537  0.00  0.00    -0.050 C 
ATOM     23  C   UNL     1      34.340 -18.997 -21.660  0.00  0.00    -0.007 C 
BRANCH  23  25
ATOM     24 BR   UNL     1      33.228 -22.839 -17.010  0.00  0.00    -0.049 Br
ATOM     25  C   UNL     1      34.073 -19.919 -20.544  0.00  0.00    -0.000 C 
ATOM     26  C   UNL     1      32.764 -20.158 -20.158  0.00  0.00    +0.000 C 
ATOM     27  C   UNL     1      35.137 -20.532 -19.899  0.00  0.00    +0.000 C 
ATOM     28  C   UNL     1      32.510 -21.032 -19.101  0.00  0.00    +0.007 C 
ATOM     29  C   UNL     1      34.883 -21.406 -18.842  0.00  0.00    +0.007 C 
ATOM     30  C   UNL     1      33.570 -21.656 -18.443  0.00  0.00    +0.035 C 
ENDBRANCH  23  25
ENDBRANCH  21  22
ENDBRANCH  18  21
ENDBRANCH  17  18
ENDBRANCH  16  17
ENDBRANCH   1  16
TORSDOF 8
ENDMDL
MODEL 9
REMARK VINA RESULT:     -10.8      3.339      5.286
REMARK  Name = 449241
REMARK  8 active torsions:
REMARK  status: ('A' for Active; 'I' for Inactive)
REMARK    1  A    between atoms: N_1  and  S_3
REMARK    2  A    between atoms: N_1  and  C_16
REMARK    3  A    between atoms: S_3  and  C_7
REMARK    4  A    between atoms: C_16  and  C_17
REMARK    5  A    between atoms: C_17  and  N_18
REMARK    6  A    between atoms: N_18  and  C_21
REMARK    7  A    between atoms: C_21  and  C_22
REMARK    8  A    between atoms: C_23  and  C_25
REMARK                            x       y       z     vdW  Elec       q    Type
REMARK                         _______ _______ _______ _____ _____    ______ ____
ROOT
ATOM      1  N   UNL     1      35.624 -22.477 -14.814  0.00  0.00    -0.182 NA
ATOM      2  H   UNL     1      36.196 -22.123 -14.048  0.00  0.00    +0.149 HD
ENDROOT
BRANCH   1   3
ATOM      3  S   UNL     1      34.974 -23.968 -14.295  0.00  0.00    +0.060 S 
ATOM      4  O   UNL     1      35.389 -24.211 -12.924  0.00  0.00    -0.153 OA
ATOM      5  O   UNL     1      35.228 -24.972 -15.316  0.00  0.00    -0.153 OA
BRANCH   3   7
ATOM      6  N   UNL     1      31.199 -22.035 -17.623  0.00  0.00    -0.242 NA
ATOM      7  C   UNL     1      33.248 -23.638 -14.302  0.00  0.00    +0.122 C 
ATOM      8  C   UNL     1      32.582 -23.104 -15.417  0.00  0.00    +0.022 C 
ATOM      9  C   UNL     1      31.194 -22.868 -15.339  0.00  0.00    +0.020 C 
ATOM     10  C   UNL     1      32.548 -23.933 -13.131  0.00  0.00    +0.020 C 
ATOM     11  C   UNL     1      30.500 -23.168 -14.155  0.00  0.00    +0.002 C 
ATOM     12  C   UNL     1      33.256 -22.798 -16.605  0.00  0.00    +0.022 C 
ATOM     13  C   UNL     1      31.178 -23.698 -13.057  0.00  0.00    +0.001 C 
ATOM     14  C   UNL     1      30.566 -22.336 -16.467  0.00  0.00    +0.099 C 
ATOM     15  C   UNL     1      32.527 -22.274 -17.662  0.00  0.00    +0.099 C 
ENDBRANCH   3   7
ENDBRANCH   1   3
BRANCH   1  16
ATOM     16  C   UNL     1      36.455 -22.418 -16.026  0.00  0.00    +0.068 C 
BRANCH  16  17
ATOM     17  C   UNL     1      37.121 -21.053 -16.115  0.00  0.00    -0.062 C 
BRANCH  17  18
ATOM     18  N   UNL     1      36.665 -20.345 -17.304  0.00  0.00    +0.387 N 
ATOM     19  H   UNL     1      37.460 -19.878 -17.740  0.00  0.00    -0.084 HD
ATOM     20  H   UNL     1      35.959 -19.662 -17.025  0.00  0.00    -0.084 HD
BRANCH  18  21
ATOM     21  C   UNL     1      36.069 -21.267 -18.261  0.00  0.00    -0.055 C 
BRANCH  21  22
ATOM     22  C   UNL     1      35.396 -20.536 -19.384  0.00  0.00    -0.050 C 
ATOM     23  C   UNL     1      35.987 -19.552 -20.081  0.00  0.00    -0.007 C 
BRANCH  23  25
ATOM     24 BR   UNL     1      33.439 -16.498 -24.750  0.00  0.00    -0.049 Br
ATOM     25  C   UNL     1      35.375 -18.819 -21.201  0.00  0.00    -0.000 C 
ATOM     26  C   UNL     1      35.490 -17.439 -21.254  0.00  0.00    +0.000 C 
ATOM     27  C   UNL     1      34.696 -19.523 -22.184  0.00  0.00    +0.000 C 
ATOM     28  C   UNL     1      34.911 -16.744 -22.316  0.00  0.00    +0.007 C 
ATOM     29  C   UNL     1      34.117 -18.828 -23.246  0.00  0.00    +0.007 C 
ATOM     30  C   UNL     1      34.224 -17.439 -23.312  0.00  0.00    +0.035 C 
ENDBRANCH  23  25
ENDBRANCH  21  22
ENDBRANCH  18  21
ENDBRANCH  17  18
ENDBRANCH  16  17
ENDBRANCH   1  16
TORSDOF 8
ENDMDL
