MODEL 1
REMARK VINA RESULT:     -11.5      0.000      0.000
REMARK  Name = 5280378
REMARK  3 active torsions:
REMARK  status: ('A' for Active; 'I' for Inactive)
REMARK    1  A    between atoms: C_3  and  C_12
REMARK    2  A    between atoms: C_10  and  O_20
REMARK    3  A    between atoms: C_17  and  O_18
REMARK                            x       y       z     vdW  Elec       q    Type
REMARK                         _______ _______ _______ _____ _____    ______ ____
ROOT
ATOM      1  O   UNL     1      33.485 -18.596 -23.784  0.00  0.00    -0.450 OA
ATOM      2  O   UNL     1      34.961 -16.902 -20.378  0.00  0.00    -0.286 OA
ATOM      3  C   UNL     1      34.274 -18.883 -21.506  0.00  0.00    +0.077 C 
ATOM      4  C   UNL     1      34.245 -16.617 -22.603  0.00  0.00    +0.074 C 
ATOM      5  C   UNL     1      34.537 -17.422 -21.402  0.00  0.00    +0.202 C 
ATOM      6  C   UNL     1      33.731 -17.248 -23.735  0.00  0.00    +0.151 C 
ATOM      7  C   UNL     1      33.781 -19.339 -22.667  0.00  0.00    +0.183 C 
ATOM      8  C   UNL     1      34.474 -15.238 -22.610  0.00  0.00    +0.009 C 
ATOM      9  C   UNL     1      33.443 -16.506 -24.881  0.00  0.00    +0.074 C 
ATOM     10  C   UNL     1      33.673 -15.129 -24.890  0.00  0.00    +0.137 C 
ATOM     11  C   UNL     1      34.187 -14.497 -23.757  0.00  0.00    +0.037 C 
ENDROOT
BRANCH   3  12
ATOM     12  C   UNL     1      34.560 -19.807 -20.395  0.00  0.00    +0.006 C 
ATOM     13  C   UNL     1      35.870 -19.979 -19.944  0.00  0.00    +0.003 C 
ATOM     14  C   UNL     1      33.519 -20.514 -19.788  0.00  0.00    +0.003 C 
ATOM     15  C   UNL     1      36.138 -20.854 -18.892  0.00  0.00    +0.037 C 
ATOM     16  C   UNL     1      33.788 -21.389 -18.736  0.00  0.00    +0.037 C 
ATOM     17  C   UNL     1      35.098 -21.559 -18.287  0.00  0.00    +0.139 C 
BRANCH  17  18
ATOM     18  O   UNL     1      35.360 -22.413 -17.261  0.00  0.00    -0.471 OA
ATOM     19  C   UNL     1      36.270 -21.966 -16.257  0.00  0.00    +0.252 C 
ENDBRANCH  17  18
ENDBRANCH   3  12
BRANCH  10  20
ATOM     20  O   UNL     1      33.393 -14.401 -26.006  0.00  0.00    -0.505 OA
ATOM     21  H   UNL     1      33.205 -13.486 -25.933  0.00  0.00    +0.292 HD
ENDBRANCH  10  20
TORSDOF 3
ENDMDL
MODEL 2
REMARK VINA RESULT:     -11.3      1.483      7.536
REMARK  Name = 5280378
REMARK  3 active torsions:
REMARK  status: ('A' for Active; 'I' for Inactive)
REMARK    1  A    between atoms: C_3  and  C_12
REMARK    2  A    between atoms: C_10  and  O_20
REMARK    3  A    between atoms: C_17  and  O_18
REMARK                            x       y       z     vdW  Elec       q    Type
REMARK                         _______ _______ _______ _____ _____    ______ ____
ROOT
ATOM      1  O   UNL     1      35.963 -20.429 -19.141  0.00  0.00    -0.450 OA
ATOM      2  O   UNL     1      32.178 -19.984 -20.602  0.00  0.00    -0.286 OA
ATOM      3  C   UNL     1      34.480 -19.395 -20.763  0.00  0.00    +0.077 C 
ATOM      4  C   UNL     1      33.613 -21.030 -19.055  0.00  0.00    +0.074 C 
ATOM      5  C   UNL     1      33.320 -20.126 -20.183  0.00  0.00    +0.202 C 
ATOM      6  C   UNL     1      34.924 -21.134 -18.590  0.00  0.00    +0.151 C 
ATOM      7  C   UNL     1      35.681 -19.606 -20.205  0.00  0.00    +0.183 C 
ATOM      8  C   UNL     1      32.593 -21.773 -18.454  0.00  0.00    +0.009 C 
ATOM      9  C   UNL     1      35.223 -21.980 -17.522  0.00  0.00    +0.074 C 
ATOM     10  C   UNL     1      34.206 -22.723 -16.921  0.00  0.00    +0.137 C 
ATOM     11  C   UNL     1      32.894 -22.620 -17.386  0.00  0.00    +0.037 C 
ENDROOT
BRANCH   3  12
ATOM     12  C   UNL     1      34.334 -18.492 -21.917  0.00  0.00    +0.006 C 
ATOM     13  C   UNL     1      33.852 -18.980 -23.133  0.00  0.00    +0.003 C 
ATOM     14  C   UNL     1      34.677 -17.143 -21.798  0.00  0.00    +0.003 C 
ATOM     15  C   UNL     1      33.714 -18.123 -24.225  0.00  0.00    +0.037 C 
ATOM     16  C   UNL     1      34.539 -16.287 -22.890  0.00  0.00    +0.037 C 
ATOM     17  C   UNL     1      34.057 -16.777 -24.104  0.00  0.00    +0.139 C 
BRANCH  17  18
ATOM     18  O   UNL     1      33.923 -15.941 -25.170  0.00  0.00    -0.471 OA
ATOM     19  C   UNL     1      33.284 -14.687 -24.937  0.00  0.00    +0.252 C 
ENDBRANCH  17  18
ENDBRANCH   3  12
BRANCH  10  20
ATOM     20  O   UNL     1      34.494 -23.550 -15.879  0.00  0.00    -0.505 OA
ATOM     21  H   UNL     1      33.809 -24.037 -15.465  0.00  0.00    +0.292 HD
ENDBRANCH  10  20
TORSDOF 3
ENDMDL
MODEL 3
REMARK VINA RESULT:     -11.3      1.485      7.501
REMARK  Name = 5280378
REMARK  3 active torsions:
REMARK  status: ('A' for Active; 'I' for Inactive)
REMARK    1  A    between atoms: C_3  and  C_12
REMARK    2  A    between atoms: C_10  and  O_20
REMARK    3  A    between atoms: C_17  and  O_18
REMARK                            x       y       z     vdW  Elec       q    Type
REMARK                         _______ _______ _______ _____ _____    ______ ____
ROOT
ATOM      1  O   UNL     1      35.959 -20.437 -19.143  0.00  0.00    -0.450 OA
ATOM      2  O   UNL     1      32.174 -19.989 -20.601  0.00  0.00    -0.286 OA
ATOM      3  C   UNL     1      34.476 -19.403 -20.765  0.00  0.00    +0.077 C 
ATOM      4  C   UNL     1      33.608 -21.035 -19.054  0.00  0.00    +0.074 C 
ATOM      5  C   UNL     1      33.315 -20.131 -20.183  0.00  0.00    +0.202 C 
ATOM      6  C   UNL     1      34.919 -21.140 -18.590  0.00  0.00    +0.151 C 
ATOM      7  C   UNL     1      35.678 -19.615 -20.207  0.00  0.00    +0.183 C 
ATOM      8  C   UNL     1      32.587 -21.775 -18.451  0.00  0.00    +0.009 C 
ATOM      9  C   UNL     1      35.218 -21.985 -17.522  0.00  0.00    +0.074 C 
ATOM     10  C   UNL     1      34.201 -22.726 -16.919  0.00  0.00    +0.137 C 
ATOM     11  C   UNL     1      32.888 -22.621 -17.383  0.00  0.00    +0.037 C 
ENDROOT
BRANCH   3  12
ATOM     12  C   UNL     1      34.330 -18.501 -21.920  0.00  0.00    +0.006 C 
ATOM     13  C   UNL     1      34.678 -17.154 -21.806  0.00  0.00    +0.003 C 
ATOM     14  C   UNL     1      33.843 -18.991 -23.133  0.00  0.00    +0.003 C 
ATOM     15  C   UNL     1      34.540 -16.301 -22.900  0.00  0.00    +0.037 C 
ATOM     16  C   UNL     1      33.705 -18.138 -24.228  0.00  0.00    +0.037 C 
ATOM     17  C   UNL     1      34.054 -16.792 -24.111  0.00  0.00    +0.139 C 
BRANCH  17  18
ATOM     18  O   UNL     1      33.918 -15.959 -25.179  0.00  0.00    -0.471 OA
ATOM     19  C   UNL     1      33.275 -14.706 -24.950  0.00  0.00    +0.252 C 
ENDBRANCH  17  18
ENDBRANCH   3  12
BRANCH  10  20
ATOM     20  O   UNL     1      34.488 -23.553 -15.876  0.00  0.00    -0.505 OA
ATOM     21  H   UNL     1      35.245 -24.104 -15.910  0.00  0.00    +0.292 HD
ENDBRANCH  10  20
TORSDOF 3
ENDMDL
MODEL 4
REMARK VINA RESULT:     -11.2      1.335      1.775
REMARK  Name = 5280378
REMARK  3 active torsions:
REMARK  status: ('A' for Active; 'I' for Inactive)
REMARK    1  A    between atoms: C_3  and  C_12
REMARK    2  A    between atoms: C_10  and  O_20
REMARK    3  A    between atoms: C_17  and  O_18
REMARK                            x       y       z     vdW  Elec       q    Type
REMARK                         _______ _______ _______ _____ _____    ______ ____
ROOT
ATOM      1  O   UNL     1      33.694 -16.819 -24.560  0.00  0.00    -0.450 OA
ATOM      2  O   UNL     1      34.449 -15.643 -20.726  0.00  0.00    -0.286 OA
ATOM      3  C   UNL     1      34.367 -17.423 -22.306  0.00  0.00    +0.077 C 
ATOM      4  C   UNL     1      33.843 -15.037 -22.919  0.00  0.00    +0.074 C 
ATOM      5  C   UNL     1      34.243 -16.002 -21.878  0.00  0.00    +0.202 C 
ATOM      6  C   UNL     1      33.587 -15.497 -24.211  0.00  0.00    +0.151 C 
ATOM      7  C   UNL     1      34.089 -17.706 -23.588  0.00  0.00    +0.183 C 
ATOM      8  C   UNL     1      33.716 -13.678 -22.620  0.00  0.00    +0.009 C 
ATOM      9  C   UNL     1      33.203 -14.603 -25.210  0.00  0.00    +0.074 C 
ATOM     10  C   UNL     1      33.077 -13.245 -24.913  0.00  0.00    +0.137 C 
ATOM     11  C   UNL     1      33.333 -12.784 -23.620  0.00  0.00    +0.037 C 
ENDROOT
BRANCH   3  12
ATOM     12  C   UNL     1      34.797 -18.482 -21.378  0.00  0.00    +0.006 C 
ATOM     13  C   UNL     1      36.132 -18.568 -20.981  0.00  0.00    +0.003 C 
ATOM     14  C   UNL     1      33.868 -19.405 -20.890  0.00  0.00    +0.003 C 
ATOM     15  C   UNL     1      36.538 -19.571 -20.102  0.00  0.00    +0.037 C 
ATOM     16  C   UNL     1      34.274 -20.408 -20.011  0.00  0.00    +0.037 C 
ATOM     17  C   UNL     1      35.610 -20.491 -19.616  0.00  0.00    +0.139 C 
BRANCH  17  18
ATOM     18  O   UNL     1      36.006 -21.471 -18.759  0.00  0.00    -0.471 OA
ATOM     19  C   UNL     1      36.299 -21.082 -17.418  0.00  0.00    +0.252 C 
ENDBRANCH  17  18
ENDBRANCH   3  12
BRANCH  10  20
ATOM     20  O   UNL     1      32.703 -12.368 -25.885  0.00  0.00    -0.505 OA
ATOM     21  H   UNL     1      33.176 -12.335 -26.692  0.00  0.00    +0.292 HD
ENDBRANCH  10  20
TORSDOF 3
ENDMDL
MODEL 5
REMARK VINA RESULT:     -10.6      1.442      7.392
REMARK  Name = 5280378
REMARK  3 active torsions:
REMARK  status: ('A' for Active; 'I' for Inactive)
REMARK    1  A    between atoms: C_3  and  C_12
REMARK    2  A    between atoms: C_10  and  O_20
REMARK    3  A    between atoms: C_17  and  O_18
REMARK                            x       y       z     vdW  Elec       q    Type
REMARK                         _______ _______ _______ _____ _____    ______ ____
ROOT
ATOM      1  O   UNL     1      32.766 -20.927 -19.424  0.00  0.00    -0.450 OA
ATOM      2  O   UNL     1      36.432 -19.332 -20.238  0.00  0.00    -0.286 OA
ATOM      3  C   UNL     1      34.115 -19.426 -20.775  0.00  0.00    +0.077 C 
ATOM      4  C   UNL     1      35.127 -20.753 -18.890  0.00  0.00    +0.074 C 
ATOM      5  C   UNL     1      35.325 -19.790 -19.989  0.00  0.00    +0.202 C 
ATOM      6  C   UNL     1      33.853 -21.274 -18.664  0.00  0.00    +0.151 C 
ATOM      7  C   UNL     1      32.958 -20.013 -20.432  0.00  0.00    +0.183 C 
ATOM      8  C   UNL     1      36.200 -21.145 -18.083  0.00  0.00    +0.009 C 
ATOM      9  C   UNL     1      33.644 -22.190 -17.632  0.00  0.00    +0.074 C 
ATOM     10  C   UNL     1      34.713 -22.581 -16.825  0.00  0.00    +0.137 C 
ATOM     11  C   UNL     1      35.988 -22.059 -17.051  0.00  0.00    +0.037 C 
ENDROOT
BRANCH   3  12
ATOM     12  C   UNL     1      34.164 -18.447 -21.874  0.00  0.00    +0.006 C 
ATOM     13  C   UNL     1      34.668 -17.165 -21.649  0.00  0.00    +0.003 C 
ATOM     14  C   UNL     1      33.708 -18.799 -23.146  0.00  0.00    +0.003 C 
ATOM     15  C   UNL     1      34.715 -16.239 -22.690  0.00  0.00    +0.037 C 
ATOM     16  C   UNL     1      33.754 -17.872 -24.188  0.00  0.00    +0.037 C 
ATOM     17  C   UNL     1      34.259 -16.591 -23.959  0.00  0.00    +0.139 C 
BRANCH  17  18
ATOM     18  O   UNL     1      34.303 -15.687 -24.976  0.00  0.00    -0.471 OA
ATOM     19  C   UNL     1      33.187 -14.811 -25.116  0.00  0.00    +0.252 C 
ENDBRANCH  17  18
ENDBRANCH   3  12
BRANCH  10  20
ATOM     20  O   UNL     1      34.513 -23.474 -15.817  0.00  0.00    -0.505 OA
ATOM     21  H   UNL     1      33.913 -24.184 -15.933  0.00  0.00    +0.292 HD
ENDBRANCH  10  20
TORSDOF 3
ENDMDL
MODEL 6
REMARK VINA RESULT:     -10.4      4.116      6.388
REMARK  Name = 5280378
REMARK  3 active torsions:
REMARK  status: ('A' for Active; 'I' for Inactive)
REMARK    1  A    between atoms: C_3  and  C_12
REMARK    2  A    between atoms: C_10  and  O_20
REMARK    3  A    between atoms: C_17  and  O_18
REMARK                            x       y       z     vdW  Elec       q    Type
REMARK                         _______ _______ _______ _____ _____    ______ ____
ROOT
ATOM      1  O   UNL     1      33.097 -11.185 -23.760  0.00  0.00    -0.450 OA
ATOM      2  O   UNL     1      31.946 -13.380 -20.518  0.00  0.00    -0.286 OA
ATOM      3  C   UNL     1      33.196 -13.284 -22.542  0.00  0.00    +0.077 C 
ATOM      4  C   UNL     1      31.881 -11.324 -21.664  0.00  0.00    +0.074 C 
ATOM      5  C   UNL     1      32.312 -12.723 -21.484  0.00  0.00    +0.202 C 
ATOM      6  C   UNL     1      32.296 -10.625 -22.797  0.00  0.00    +0.151 C 
ATOM      7  C   UNL     1      33.509 -12.482 -23.571  0.00  0.00    +0.183 C 
ATOM      8  C   UNL     1      31.064 -10.703 -20.715  0.00  0.00    +0.009 C 
ATOM      9  C   UNL     1      31.897  -9.303 -22.989  0.00  0.00    +0.074 C 
ATOM     10  C   UNL     1      31.082  -8.680 -22.043  0.00  0.00    +0.137 C 
ATOM     11  C   UNL     1      30.667  -9.379 -20.909  0.00  0.00    +0.037 C 
ENDROOT
BRANCH   3  12
ATOM     12  C   UNL     1      33.731 -14.654 -22.466  0.00  0.00    +0.006 C 
ATOM     13  C   UNL     1      33.846 -15.427 -23.623  0.00  0.00    +0.003 C 
ATOM     14  C   UNL     1      34.125 -15.184 -21.236  0.00  0.00    +0.003 C 
ATOM     15  C   UNL     1      34.353 -16.724 -23.549  0.00  0.00    +0.037 C 
ATOM     16  C   UNL     1      34.631 -16.481 -21.162  0.00  0.00    +0.037 C 
ATOM     17  C   UNL     1      34.746 -17.252 -22.320  0.00  0.00    +0.139 C 
BRANCH  17  18
ATOM     18  O   UNL     1      35.239 -18.518 -22.248  0.00  0.00    -0.471 OA
ATOM     19  C   UNL     1      34.728 -19.357 -21.214  0.00  0.00    +0.252 C 
ENDBRANCH  17  18
ENDBRANCH   3  12
BRANCH  10  20
ATOM     20  O   UNL     1      30.691  -7.389 -22.227  0.00  0.00    -0.505 OA
ATOM     21  H   UNL     1      31.283  -6.689 -22.037  0.00  0.00    +0.292 HD
ENDBRANCH  10  20
TORSDOF 3
ENDMDL
MODEL 7
REMARK VINA RESULT:     -10.2      4.056      8.819
REMARK  Name = 5280378
REMARK  3 active torsions:
REMARK  status: ('A' for Active; 'I' for Inactive)
REMARK    1  A    between atoms: C_3  and  C_12
REMARK    2  A    between atoms: C_10  and  O_20
REMARK    3  A    between atoms: C_17  and  O_18
REMARK                            x       y       z     vdW  Elec       q    Type
REMARK                         _______ _______ _______ _____ _____    ______ ____
ROOT
ATOM      1  O   UNL     1      34.038 -14.614 -20.624  0.00  0.00    -0.450 OA
ATOM      2  O   UNL     1      32.661 -13.674 -24.349  0.00  0.00    -0.286 OA
ATOM      3  C   UNL     1      32.957 -13.002 -22.084  0.00  0.00    +0.077 C 
ATOM      4  C   UNL     1      33.754 -15.226 -22.956  0.00  0.00    +0.074 C 
ATOM      5  C   UNL     1      33.088 -13.939 -23.233  0.00  0.00    +0.202 C 
ATOM      6  C   UNL     1      34.194 -15.498 -21.661  0.00  0.00    +0.151 C 
ATOM      7  C   UNL     1      33.436 -13.410 -20.899  0.00  0.00    +0.183 C 
ATOM      8  C   UNL     1      33.939 -16.166 -23.974  0.00  0.00    +0.009 C 
ATOM      9  C   UNL     1      34.823 -16.711 -21.376  0.00  0.00    +0.074 C 
ATOM     10  C   UNL     1      35.010 -17.650 -22.390  0.00  0.00    +0.137 C 
ATOM     11  C   UNL     1      34.569 -17.378 -23.687  0.00  0.00    +0.037 C 
ENDROOT
BRANCH   3  12
ATOM     12  C   UNL     1      32.349 -11.669 -22.231  0.00  0.00    +0.006 C 
ATOM     13  C   UNL     1      32.904 -10.738 -23.112  0.00  0.00    +0.003 C 
ATOM     14  C   UNL     1      31.215 -11.331 -21.490  0.00  0.00    +0.003 C 
ATOM     15  C   UNL     1      32.327  -9.476 -23.251  0.00  0.00    +0.037 C 
ATOM     16  C   UNL     1      30.638 -10.069 -21.629  0.00  0.00    +0.037 C 
ATOM     17  C   UNL     1      31.195  -9.141 -22.510  0.00  0.00    +0.139 C 
BRANCH  17  18
ATOM     18  O   UNL     1      30.632  -7.909 -22.644  0.00  0.00    -0.471 OA
ATOM     19  C   UNL     1      31.194  -6.850 -21.872  0.00  0.00    +0.252 C 
ENDBRANCH  17  18
ENDBRANCH   3  12
BRANCH  10  20
ATOM     20  O   UNL     1      35.623 -18.834 -22.116  0.00  0.00    -0.505 OA
ATOM     21  H   UNL     1      36.151 -18.921 -21.347  0.00  0.00    +0.292 HD
ENDBRANCH  10  20
TORSDOF 3
ENDMDL
MODEL 8
REMARK VINA RESULT:     -10.1      4.131      8.672
REMARK  Name = 5280378
REMARK  3 active torsions:
REMARK  status: ('A' for Active; 'I' for Inactive)
REMARK    1  A    between atoms: C_3  and  C_12
REMARK    2  A    between atoms: C_10  and  O_20
REMARK    3  A    between atoms: C_17  and  O_18
REMARK                            x       y       z     vdW  Elec       q    Type
REMARK                         _______ _______ _______ _____ _____    ______ ____
ROOT
ATOM      1  O   UNL     1      33.269 -14.764 -24.350  0.00  0.00    -0.450 OA
ATOM      2  O   UNL     1      33.597 -13.245 -20.577  0.00  0.00    -0.286 OA
ATOM      3  C   UNL     1      32.880 -12.916 -22.823  0.00  0.00    +0.077 C 
ATOM      4  C   UNL     1      33.935 -15.062 -22.035  0.00  0.00    +0.074 C 
ATOM      5  C   UNL     1      33.477 -13.699 -21.707  0.00  0.00    +0.202 C 
ATOM      6  C   UNL     1      33.808 -15.525 -23.345  0.00  0.00    +0.151 C 
ATOM      7  C   UNL     1      32.826 -13.504 -24.028  0.00  0.00    +0.183 C 
ATOM      8  C   UNL     1      34.494 -15.882 -21.051  0.00  0.00    +0.009 C 
ATOM      9  C   UNL     1      34.238 -16.809 -23.679  0.00  0.00    +0.074 C 
ATOM     10  C   UNL     1      34.796 -17.630 -22.697  0.00  0.00    +0.137 C 
ATOM     11  C   UNL     1      34.923 -17.167 -21.387  0.00  0.00    +0.037 C 
ENDROOT
BRANCH   3  12
ATOM     12  C   UNL     1      32.346 -11.558 -22.624  0.00  0.00    +0.006 C 
ATOM     13  C   UNL     1      32.950 -10.467 -23.253  0.00  0.00    +0.003 C 
ATOM     14  C   UNL     1      31.234 -11.356 -21.804  0.00  0.00    +0.003 C 
ATOM     15  C   UNL     1      32.444  -9.182 -23.064  0.00  0.00    +0.037 C 
ATOM     16  C   UNL     1      30.728 -10.071 -21.615  0.00  0.00    +0.037 C 
ATOM     17  C   UNL     1      31.333  -8.983 -22.246  0.00  0.00    +0.139 C 
BRANCH  17  18
ATOM     18  O   UNL     1      30.839  -7.728 -22.060  0.00  0.00    -0.471 OA
ATOM     19  C   UNL     1      31.471  -6.920 -21.069  0.00  0.00    +0.252 C 
ENDBRANCH  17  18
ENDBRANCH   3  12
BRANCH  10  20
ATOM     20  O   UNL     1      35.217 -18.884 -23.019  0.00  0.00    -0.505 OA
ATOM     21  H   UNL     1      34.667 -19.446 -23.528  0.00  0.00    +0.292 HD
ENDBRANCH  10  20
TORSDOF 3
ENDMDL
MODEL 9
REMARK VINA RESULT:      -9.9      2.363      9.032
REMARK  Name = 5280378
REMARK  3 active torsions:
REMARK  status: ('A' for Active; 'I' for Inactive)
REMARK    1  A    between atoms: C_3  and  C_12
REMARK    2  A    between atoms: C_10  and  O_20
REMARK    3  A    between atoms: C_17  and  O_18
REMARK                            x       y       z     vdW  Elec       q    Type
REMARK                         _______ _______ _______ _____ _____    ______ ____
ROOT
ATOM      1  O   UNL     1      33.408 -23.533 -15.899  0.00  0.00    -0.450 OA
ATOM      2  O   UNL     1      36.664 -21.356 -17.044  0.00  0.00    -0.286 OA
ATOM      3  C   UNL     1      34.419 -22.008 -17.495  0.00  0.00    +0.077 C 
ATOM      4  C   UNL     1      35.679 -22.796 -15.463  0.00  0.00    +0.074 C 
ATOM      5  C   UNL     1      35.676 -21.990 -16.698  0.00  0.00    +0.202 C 
ATOM      6  C   UNL     1      34.542 -23.530 -15.127  0.00  0.00    +0.151 C 
ATOM      7  C   UNL     1      33.409 -22.762 -17.036  0.00  0.00    +0.183 C 
ATOM      8  C   UNL     1      36.807 -22.831 -14.638  0.00  0.00    +0.009 C 
ATOM      9  C   UNL     1      34.524 -24.302 -13.965  0.00  0.00    +0.074 C 
ATOM     10  C   UNL     1      35.649 -24.337 -13.140  0.00  0.00    +0.137 C 
ATOM     11  C   UNL     1      36.788 -23.603 -13.476  0.00  0.00    +0.037 C 
ENDROOT
BRANCH   3  12
ATOM     12  C   UNL     1      34.266 -21.216 -18.728  0.00  0.00    +0.006 C 
ATOM     13  C   UNL     1      32.994 -20.900 -19.206  0.00  0.00    +0.003 C 
ATOM     14  C   UNL     1      35.396 -20.779 -19.423  0.00  0.00    +0.003 C 
ATOM     15  C   UNL     1      32.851 -20.151 -20.373  0.00  0.00    +0.037 C 
ATOM     16  C   UNL     1      35.254 -20.030 -20.590  0.00  0.00    +0.037 C 
ATOM     17  C   UNL     1      33.980 -19.715 -21.065  0.00  0.00    +0.139 C 
BRANCH  17  18
ATOM     18  O   UNL     1      33.841 -18.984 -22.205  0.00  0.00    -0.471 OA
ATOM     19  C   UNL     1      34.686 -17.845 -22.354  0.00  0.00    +0.252 C 
ENDBRANCH  17  18
ENDBRANCH   3  12
BRANCH  10  20
ATOM     20  O   UNL     1      35.636 -25.089 -12.005  0.00  0.00    -0.505 OA
ATOM     21  H   UNL     1      34.997 -24.923 -11.340  0.00  0.00    +0.292 HD
ENDBRANCH  10  20
TORSDOF 3
ENDMDL
