MODEL 1
REMARK VINA RESULT:      -9.7      0.000      0.000
REMARK  Name = 23644580
REMARK  9 active torsions:
REMARK  status: ('A' for Active; 'I' for Inactive)
REMARK    1  A    between atoms: N_2  and  C_12
REMARK    2  A    between atoms: N_2  and  C_26
REMARK    3  A    between atoms: C_3  and  C_5
REMARK    4  A    between atoms: N_11  and  C_18
REMARK    5  A    between atoms: C_18  and  C_19
REMARK    6  A    between atoms: C_19  and  C_20
REMARK    7  A    between atoms: C_26  and  C_27
REMARK    8  A    between atoms: C_27  and  C_28
REMARK    9  A    between atoms: C_28  and  O_29
REMARK                            x       y       z     vdW  Elec       q    Type
REMARK                         _______ _______ _______ _____ _____    ______ ____
ROOT
ATOM      1  O   UNL     1      34.356  -7.785 -23.792  0.00  0.00    -0.270 OA
ATOM      2  N   UNL     1      32.202  -7.406 -22.964  0.00  0.00    -0.280 N 
ATOM      3  C   UNL     1      33.319  -7.124 -23.768  0.00  0.00    +0.249 C 
ENDROOT
BRANCH   3   5
ATOM      4 CL   UNL     1      33.102  -2.429 -27.442  0.00  0.00    -0.082 Cl
ATOM      5  C   UNL     1      33.265  -5.965 -24.675  0.00  0.00    +0.054 C 
ATOM      6  C   UNL     1      32.477  -6.029 -25.814  0.00  0.00    +0.005 C 
ATOM      7  C   UNL     1      34.004  -4.831 -24.374  0.00  0.00    +0.005 C 
ATOM      8  C   UNL     1      32.427  -4.932 -26.673  0.00  0.00    +0.012 C 
ATOM      9  C   UNL     1      33.953  -3.734 -25.233  0.00  0.00    +0.012 C 
ATOM     10  C   UNL     1      33.164  -3.784 -26.383  0.00  0.00    +0.058 C 
ENDBRANCH   3   5
BRANCH   2  12
ATOM     11  N   UNL     1      32.115 -11.020 -21.986  0.00  0.00    +0.388 N 
ATOM     12  C   UNL     1      32.225  -8.546 -22.080  0.00  0.00    +0.055 C 
ATOM     13  C   UNL     1      32.112  -9.852 -22.877  0.00  0.00    -0.057 C 
ATOM     14  C   UNL     1      31.111  -8.443 -21.036  0.00  0.00    +0.016 C 
ATOM     15  C   UNL     1      31.073  -9.700 -20.173  0.00  0.00    -0.021 C 
ATOM     16  C   UNL     1      30.999 -10.962 -21.031  0.00  0.00    -0.077 C 
ATOM     17  H   UNL     1      32.984 -11.007 -21.453  0.00  0.00    -0.080 HD
BRANCH  11  18
ATOM     18  C   UNL     1      32.059 -12.257 -22.764  0.00  0.00    -0.073 C 
BRANCH  18  19
ATOM     19  C   UNL     1      33.462 -12.712 -23.170  0.00  0.00    +0.004 C 
BRANCH  19  20
ATOM     20  C   UNL     1      33.844 -14.001 -22.488  0.00  0.00    -0.024 C 
ATOM     21  C   UNL     1      33.722 -14.105 -21.111  0.00  0.00    -0.004 C 
ATOM     22  C   UNL     1      34.312 -15.062 -23.249  0.00  0.00    -0.004 C 
ATOM     23  C   UNL     1      34.077 -15.298 -20.479  0.00  0.00    -0.000 C 
ATOM     24  C   UNL     1      34.666 -16.254 -22.618  0.00  0.00    -0.000 C 
ATOM     25  C   UNL     1      34.548 -16.372 -21.233  0.00  0.00    -0.000 C 
ENDBRANCH  19  20
ENDBRANCH  18  19
ENDBRANCH  11  18
ENDBRANCH   2  12
BRANCH   2  26
ATOM     26  C   UNL     1      30.975  -6.603 -22.951  0.00  0.00    +0.096 C 
BRANCH  26  27
ATOM     27  C   UNL     1      31.139  -5.300 -22.178  0.00  0.00    +0.054 C 
BRANCH  27  28
ATOM     28  C   UNL     1      29.805  -4.657 -21.816  0.00  0.00    +0.144 C 
BRANCH  28  29
ATOM     29  O   UNL     1      29.821  -3.301 -22.242  0.00  0.00    -0.351 OA
ATOM     30  C   UNL     1      30.853  -3.064 -23.188  0.00  0.00    +0.174 C 
ENDBRANCH  28  29
ENDBRANCH  27  28
ENDBRANCH  26  27
ENDBRANCH   2  26
TORSDOF 9
ENDMDL
MODEL 2
REMARK VINA RESULT:      -9.5      9.778     15.547
REMARK  Name = 23644580
REMARK  9 active torsions:
REMARK  status: ('A' for Active; 'I' for Inactive)
REMARK    1  A    between atoms: N_2  and  C_12
REMARK    2  A    between atoms: N_2  and  C_26
REMARK    3  A    between atoms: C_3  and  C_5
REMARK    4  A    between atoms: N_11  and  C_18
REMARK    5  A    between atoms: C_18  and  C_19
REMARK    6  A    between atoms: C_19  and  C_20
REMARK    7  A    between atoms: C_26  and  C_27
REMARK    8  A    between atoms: C_27  and  C_28
REMARK    9  A    between atoms: C_28  and  O_29
REMARK                            x       y       z     vdW  Elec       q    Type
REMARK                         _______ _______ _______ _____ _____    ______ ____
ROOT
ATOM      1  O   UNL     1      36.405 -20.761 -17.607  0.00  0.00    -0.270 OA
ATOM      2  N   UNL     1      34.534 -22.157 -17.752  0.00  0.00    -0.280 N 
ATOM      3  C   UNL     1      35.702 -21.660 -17.148  0.00  0.00    +0.249 C 
ENDROOT
BRANCH   3   5
ATOM      4 CL   UNL     1      37.432 -23.957 -11.921  0.00  0.00    -0.082 Cl
ATOM      5  C   UNL     1      36.129 -22.227 -15.858  0.00  0.00    +0.054 C 
ATOM      6  C   UNL     1      37.381 -22.812 -15.754  0.00  0.00    +0.005 C 
ATOM      7  C   UNL     1      35.271 -22.165 -14.771  0.00  0.00    +0.005 C 
ATOM      8  C   UNL     1      37.786 -23.349 -14.532  0.00  0.00    +0.012 C 
ATOM      9  C   UNL     1      35.676 -22.703 -13.549  0.00  0.00    +0.012 C 
ATOM     10  C   UNL     1      36.933 -23.295 -13.430  0.00  0.00    +0.058 C 
ENDBRANCH   3   5
BRANCH   2  12
ATOM     11  N   UNL     1      34.558 -19.894 -20.736  0.00  0.00    +0.388 N 
ATOM     12  C   UNL     1      34.085 -21.606 -19.007  0.00  0.00    +0.055 C 
ATOM     13  C   UNL     1      35.017 -20.477 -19.466  0.00  0.00    -0.057 C 
ATOM     14  C   UNL     1      32.641 -21.115 -18.897  0.00  0.00    +0.016 C 
ATOM     15  C   UNL     1      32.209 -20.439 -20.193  0.00  0.00    -0.021 C 
ATOM     16  C   UNL     1      33.199 -19.352 -20.611  0.00  0.00    -0.077 C 
ATOM     17  H   UNL     1      34.537 -20.638 -21.433  0.00  0.00    -0.080 HD
BRANCH  11  18
ATOM     18  C   UNL     1      35.485 -18.855 -21.185  0.00  0.00    -0.073 C 
BRANCH  18  19
ATOM     19  C   UNL     1      35.094 -18.334 -22.569  0.00  0.00    +0.004 C 
BRANCH  19  20
ATOM     20  C   UNL     1      34.643 -16.898 -22.513  0.00  0.00    -0.024 C 
ATOM     21  C   UNL     1      34.343 -16.232 -23.692  0.00  0.00    -0.004 C 
ATOM     22  C   UNL     1      34.535 -16.264 -21.284  0.00  0.00    -0.004 C 
ATOM     23  C   UNL     1      33.926 -14.901 -23.641  0.00  0.00    -0.000 C 
ATOM     24  C   UNL     1      34.118 -14.935 -21.233  0.00  0.00    -0.000 C 
ATOM     25  C   UNL     1      33.813 -14.253 -22.412  0.00  0.00    -0.000 C 
ENDBRANCH  19  20
ENDBRANCH  18  19
ENDBRANCH  11  18
ENDBRANCH   2  12
BRANCH   2  26
ATOM     26  C   UNL     1      33.710 -23.231 -17.187  0.00  0.00    +0.096 C 
BRANCH  26  27
ATOM     27  C   UNL     1      32.350 -22.735 -16.714  0.00  0.00    +0.054 C 
BRANCH  27  28
ATOM     28  C   UNL     1      31.967 -23.279 -15.342  0.00  0.00    +0.144 C 
BRANCH  28  29
ATOM     29  O   UNL     1      30.566 -23.520 -15.321  0.00  0.00    -0.351 OA
ATOM     30  C   UNL     1      29.864 -22.587 -16.129  0.00  0.00    +0.174 C 
ENDBRANCH  28  29
ENDBRANCH  27  28
ENDBRANCH  26  27
ENDBRANCH   2  26
TORSDOF 9
ENDMDL
MODEL 3
REMARK VINA RESULT:      -9.5      9.772     15.515
REMARK  Name = 23644580
REMARK  9 active torsions:
REMARK  status: ('A' for Active; 'I' for Inactive)
REMARK    1  A    between atoms: N_2  and  C_12
REMARK    2  A    between atoms: N_2  and  C_26
REMARK    3  A    between atoms: C_3  and  C_5
REMARK    4  A    between atoms: N_11  and  C_18
REMARK    5  A    between atoms: C_18  and  C_19
REMARK    6  A    between atoms: C_19  and  C_20
REMARK    7  A    between atoms: C_26  and  C_27
REMARK    8  A    between atoms: C_27  and  C_28
REMARK    9  A    between atoms: C_28  and  O_29
REMARK                            x       y       z     vdW  Elec       q    Type
REMARK                         _______ _______ _______ _____ _____    ______ ____
ROOT
ATOM      1  O   UNL     1      36.428 -20.804 -17.658  0.00  0.00    -0.270 OA
ATOM      2  N   UNL     1      34.512 -22.142 -17.760  0.00  0.00    -0.280 N 
ATOM      3  C   UNL     1      35.700 -21.671 -17.175  0.00  0.00    +0.249 C 
ENDROOT
BRANCH   3   5
ATOM      4 CL   UNL     1      37.405 -23.919 -11.920  0.00  0.00    -0.082 Cl
ATOM      5  C   UNL     1      36.120 -22.226 -15.879  0.00  0.00    +0.054 C 
ATOM      6  C   UNL     1      35.266 -22.135 -14.791  0.00  0.00    +0.005 C 
ATOM      7  C   UNL     1      37.364 -22.829 -15.768  0.00  0.00    +0.005 C 
ATOM      8  C   UNL     1      35.665 -22.660 -13.562  0.00  0.00    +0.012 C 
ATOM      9  C   UNL     1      37.762 -23.355 -14.539  0.00  0.00    +0.012 C 
ATOM     10  C   UNL     1      36.912 -23.270 -13.436  0.00  0.00    +0.058 C 
ENDBRANCH   3   5
BRANCH   2  12
ATOM     11  N   UNL     1      34.538 -19.886 -20.750  0.00  0.00    +0.388 N 
ATOM     12  C   UNL     1      34.070 -21.601 -19.023  0.00  0.00    +0.055 C 
ATOM     13  C   UNL     1      34.989 -20.458 -19.473  0.00  0.00    -0.057 C 
ATOM     14  C   UNL     1      32.617 -21.132 -18.932  0.00  0.00    +0.016 C 
ATOM     15  C   UNL     1      32.190 -20.466 -20.234  0.00  0.00    -0.021 C 
ATOM     16  C   UNL     1      33.168 -19.365 -20.643  0.00  0.00    -0.077 C 
ATOM     17  H   UNL     1      34.537 -20.632 -21.445  0.00  0.00    -0.080 HD
BRANCH  11  18
ATOM     18  C   UNL     1      35.454 -18.834 -21.190  0.00  0.00    -0.073 C 
BRANCH  18  19
ATOM     19  C   UNL     1      35.088 -18.341 -22.592  0.00  0.00    +0.004 C 
BRANCH  19  20
ATOM     20  C   UNL     1      34.635 -16.904 -22.572  0.00  0.00    -0.024 C 
ATOM     21  C   UNL     1      34.532 -16.239 -21.359  0.00  0.00    -0.004 C 
ATOM     22  C   UNL     1      34.329 -16.269 -23.767  0.00  0.00    -0.004 C 
ATOM     23  C   UNL     1      34.112 -14.908 -21.340  0.00  0.00    -0.000 C 
ATOM     24  C   UNL     1      33.909 -14.940 -23.748  0.00  0.00    -0.000 C 
ATOM     25  C   UNL     1      33.801 -14.259 -22.535  0.00  0.00    -0.000 C 
ENDBRANCH  19  20
ENDBRANCH  18  19
ENDBRANCH  11  18
ENDBRANCH   2  12
BRANCH   2  26
ATOM     26  C   UNL     1      33.659 -23.177 -17.168  0.00  0.00    +0.096 C 
BRANCH  26  27
ATOM     27  C   UNL     1      32.363 -22.612 -16.602  0.00  0.00    +0.054 C 
BRANCH  27  28
ATOM     28  C   UNL     1      31.918 -23.320 -15.327  0.00  0.00    +0.144 C 
BRANCH  28  29
ATOM     29  O   UNL     1      30.539 -23.647 -15.444  0.00  0.00    -0.351 OA
ATOM     30  C   UNL     1      29.822 -22.642 -16.146  0.00  0.00    +0.174 C 
ENDBRANCH  28  29
ENDBRANCH  27  28
ENDBRANCH  26  27
ENDBRANCH   2  26
TORSDOF 9
ENDMDL
MODEL 4
REMARK VINA RESULT:      -9.4     10.285     16.259
REMARK  Name = 23644580
REMARK  9 active torsions:
REMARK  status: ('A' for Active; 'I' for Inactive)
REMARK    1  A    between atoms: N_2  and  C_12
REMARK    2  A    between atoms: N_2  and  C_26
REMARK    3  A    between atoms: C_3  and  C_5
REMARK    4  A    between atoms: N_11  and  C_18
REMARK    5  A    between atoms: C_18  and  C_19
REMARK    6  A    between atoms: C_19  and  C_20
REMARK    7  A    between atoms: C_26  and  C_27
REMARK    8  A    between atoms: C_27  and  C_28
REMARK    9  A    between atoms: C_28  and  O_29
REMARK                            x       y       z     vdW  Elec       q    Type
REMARK                         _______ _______ _______ _____ _____    ______ ____
ROOT
ATOM      1  O   UNL     1      32.987 -23.768 -17.166  0.00  0.00    -0.270 OA
ATOM      2  N   UNL     1      34.561 -22.045 -17.321  0.00  0.00    -0.280 N 
ATOM      3  C   UNL     1      33.900 -23.105 -16.676  0.00  0.00    +0.249 C 
ENDROOT
BRANCH   3   5
ATOM      4 CL   UNL     1      35.620 -24.639 -11.174  0.00  0.00    -0.082 Cl
ATOM      5  C   UNL     1      34.324 -23.483 -15.318  0.00  0.00    +0.054 C 
ATOM      6  C   UNL     1      33.993 -22.665 -14.250  0.00  0.00    +0.005 C 
ATOM      7  C   UNL     1      35.047 -24.652 -15.133  0.00  0.00    +0.005 C 
ATOM      8  C   UNL     1      34.396 -23.023 -12.963  0.00  0.00    +0.012 C 
ATOM      9  C   UNL     1      35.449 -25.010 -13.846  0.00  0.00    +0.012 C 
ATOM     10  C   UNL     1      35.124 -24.196 -12.761  0.00  0.00    +0.058 C 
ENDBRANCH   3   5
BRANCH   2  12
ATOM     11  N   UNL     1      34.661 -20.115 -20.529  0.00  0.00    +0.388 N 
ATOM     12  C   UNL     1      34.175 -21.667 -18.659  0.00  0.00    +0.055 C 
ATOM     13  C   UNL     1      35.057 -20.522 -19.173  0.00  0.00    -0.057 C 
ATOM     14  C   UNL     1      32.695 -21.284 -18.707  0.00  0.00    +0.016 C 
ATOM     15  C   UNL     1      32.320 -20.785 -20.098  0.00  0.00    -0.021 C 
ATOM     16  C   UNL     1      33.260 -19.673 -20.562  0.00  0.00    -0.077 C 
ATOM     17  H   UNL     1      34.748 -20.927 -21.139  0.00  0.00    -0.080 HD
BRANCH  11  18
ATOM     18  C   UNL     1      35.543 -19.059 -21.024  0.00  0.00    -0.073 C 
BRANCH  18  19
ATOM     19  C   UNL     1      35.108 -18.587 -22.412  0.00  0.00    +0.004 C 
BRANCH  19  20
ATOM     20  C   UNL     1      34.694 -17.138 -22.399  0.00  0.00    -0.024 C 
ATOM     21  C   UNL     1      34.566 -16.477 -21.187  0.00  0.00    -0.004 C 
ATOM     22  C   UNL     1      34.448 -16.489 -23.600  0.00  0.00    -0.004 C 
ATOM     23  C   UNL     1      34.183 -15.135 -21.174  0.00  0.00    -0.000 C 
ATOM     24  C   UNL     1      34.065 -15.148 -23.588  0.00  0.00    -0.000 C 
ATOM     25  C   UNL     1      33.932 -14.471 -22.375  0.00  0.00    -0.000 C 
ENDBRANCH  19  20
ENDBRANCH  18  19
ENDBRANCH  11  18
ENDBRANCH   2  12
BRANCH   2  26
ATOM     26  C   UNL     1      35.647 -21.266 -16.718  0.00  0.00    +0.096 C 
BRANCH  26  27
ATOM     27  C   UNL     1      36.987 -21.988 -16.779  0.00  0.00    +0.054 C 
BRANCH  27  28
ATOM     28  C   UNL     1      37.570 -22.269 -15.398  0.00  0.00    +0.144 C 
BRANCH  28  29
ATOM     29  O   UNL     1      38.720 -23.091 -15.546  0.00  0.00    -0.351 OA
ATOM     30  C   UNL     1      38.721 -24.160 -14.611  0.00  0.00    +0.174 C 
ENDBRANCH  28  29
ENDBRANCH  27  28
ENDBRANCH  26  27
ENDBRANCH   2  26
TORSDOF 9
ENDMDL
MODEL 5
REMARK VINA RESULT:      -9.4     13.051     16.479
REMARK  Name = 23644580
REMARK  9 active torsions:
REMARK  status: ('A' for Active; 'I' for Inactive)
REMARK    1  A    between atoms: N_2  and  C_12
REMARK    2  A    between atoms: N_2  and  C_26
REMARK    3  A    between atoms: C_3  and  C_5
REMARK    4  A    between atoms: N_11  and  C_18
REMARK    5  A    between atoms: C_18  and  C_19
REMARK    6  A    between atoms: C_19  and  C_20
REMARK    7  A    between atoms: C_26  and  C_27
REMARK    8  A    between atoms: C_27  and  C_28
REMARK    9  A    between atoms: C_28  and  O_29
REMARK                            x       y       z     vdW  Elec       q    Type
REMARK                         _______ _______ _______ _____ _____    ______ ____
ROOT
ATOM      1  O   UNL     1      32.841 -23.471 -17.734  0.00  0.00    -0.270 OA
ATOM      2  N   UNL     1      34.444 -22.469 -16.357  0.00  0.00    -0.280 N 
ATOM      3  C   UNL     1      33.689 -22.602 -17.535  0.00  0.00    +0.249 C 
ENDROOT
BRANCH   3   5
ATOM      4 CL   UNL     1      34.519 -18.667 -21.941  0.00  0.00    -0.082 Cl
ATOM      5  C   UNL     1      33.894 -21.631 -18.622  0.00  0.00    +0.054 C 
ATOM      6  C   UNL     1      35.178 -21.389 -19.085  0.00  0.00    +0.005 C 
ATOM      7  C   UNL     1      32.799 -20.976 -19.164  0.00  0.00    +0.005 C 
ATOM      8  C   UNL     1      35.372 -20.469 -20.114  0.00  0.00    +0.012 C 
ATOM      9  C   UNL     1      32.993 -20.056 -20.194  0.00  0.00    +0.012 C 
ATOM     10  C   UNL     1      34.280 -19.802 -20.669  0.00  0.00    +0.058 C 
ENDBRANCH   3   5
BRANCH   2  12
ATOM     11  N   UNL     1      32.546 -24.476 -13.828  0.00  0.00    +0.388 N 
ATOM     12  C   UNL     1      34.248 -23.398 -15.271  0.00  0.00    +0.055 C 
ATOM     13  C   UNL     1      32.756 -23.546 -14.947  0.00  0.00    -0.057 C 
ATOM     14  C   UNL     1      35.036 -22.959 -14.036  0.00  0.00    +0.016 C 
ATOM     15  C   UNL     1      34.742 -23.884 -12.860  0.00  0.00    -0.021 C 
ATOM     16  C   UNL     1      33.239 -24.015 -12.618  0.00  0.00    -0.077 C 
ATOM     17  H   UNL     1      32.940 -25.379 -14.092  0.00  0.00    -0.080 HD
BRANCH  11  18
ATOM     18  C   UNL     1      31.116 -24.645 -13.567  0.00  0.00    -0.073 C 
BRANCH  18  19
ATOM     19  C   UNL     1      30.401 -23.293 -13.537  0.00  0.00    +0.004 C 
BRANCH  19  20
ATOM     20  C   UNL     1      29.357 -23.196 -14.619  0.00  0.00    -0.024 C 
ATOM     21  C   UNL     1      29.045 -24.321 -15.367  0.00  0.00    -0.004 C 
ATOM     22  C   UNL     1      28.724 -21.983 -14.849  0.00  0.00    -0.004 C 
ATOM     23  C   UNL     1      28.078 -24.232 -16.370  0.00  0.00    -0.000 C 
ATOM     24  C   UNL     1      27.758 -21.894 -15.851  0.00  0.00    -0.000 C 
ATOM     25  C   UNL     1      27.435 -23.019 -16.611  0.00  0.00    -0.000 C 
ENDBRANCH  19  20
ENDBRANCH  18  19
ENDBRANCH  11  18
ENDBRANCH   2  12
BRANCH   2  26
ATOM     26  C   UNL     1      35.451 -21.425 -16.141  0.00  0.00    +0.096 C 
BRANCH  26  27
ATOM     27  C   UNL     1      36.862 -21.902 -16.459  0.00  0.00    +0.054 C 
BRANCH  27  28
ATOM     28  C   UNL     1      37.691 -22.169 -15.206  0.00  0.00    +0.144 C 
BRANCH  28  29
ATOM     29  O   UNL     1      38.618 -23.209 -15.486  0.00  0.00    -0.351 OA
ATOM     30  C   UNL     1      38.464 -24.300 -14.589  0.00  0.00    +0.174 C 
ENDBRANCH  28  29
ENDBRANCH  27  28
ENDBRANCH  26  27
ENDBRANCH   2  26
TORSDOF 9
ENDMDL
MODEL 6
REMARK VINA RESULT:      -9.2      5.964      9.967
REMARK  Name = 23644580
REMARK  9 active torsions:
REMARK  status: ('A' for Active; 'I' for Inactive)
REMARK    1  A    between atoms: N_2  and  C_12
REMARK    2  A    between atoms: N_2  and  C_26
REMARK    3  A    between atoms: C_3  and  C_5
REMARK    4  A    between atoms: N_11  and  C_18
REMARK    5  A    between atoms: C_18  and  C_19
REMARK    6  A    between atoms: C_19  and  C_20
REMARK    7  A    between atoms: C_26  and  C_27
REMARK    8  A    between atoms: C_27  and  C_28
REMARK    9  A    between atoms: C_28  and  O_29
REMARK                            x       y       z     vdW  Elec       q    Type
REMARK                         _______ _______ _______ _____ _____    ______ ____
ROOT
ATOM      1  O   UNL     1      34.248 -15.463 -20.210  0.00  0.00    -0.270 OA
ATOM      2  N   UNL     1      34.206 -16.056 -22.472  0.00  0.00    -0.280 N 
ATOM      3  C   UNL     1      33.966 -15.205 -21.380  0.00  0.00    +0.249 C 
ENDROOT
BRANCH   3   5
ATOM      4 CL   UNL     1      31.469  -9.880 -22.379  0.00  0.00    -0.082 Cl
ATOM      5  C   UNL     1      33.350 -13.891 -21.626  0.00  0.00    +0.054 C 
ATOM      6  C   UNL     1      32.356 -13.436 -20.774  0.00  0.00    +0.005 C 
ATOM      7  C   UNL     1      33.776 -13.132 -22.706  0.00  0.00    +0.005 C 
ATOM      8  C   UNL     1      31.772 -12.191 -21.008  0.00  0.00    +0.012 C 
ATOM      9  C   UNL     1      33.191 -11.887 -22.939  0.00  0.00    +0.012 C 
ATOM     10  C   UNL     1      32.189 -11.417 -22.090  0.00  0.00    +0.058 C 
ENDBRANCH   3   5
BRANCH   2  12
ATOM     11  N   UNL     1      34.715 -19.430 -20.929  0.00  0.00    +0.388 N 
ATOM     12  C   UNL     1      34.824 -17.341 -22.258  0.00  0.00    +0.055 C 
ATOM     13  C   UNL     1      34.081 -18.125 -21.169  0.00  0.00    -0.057 C 
ATOM     14  C   UNL     1      36.303 -17.178 -21.905  0.00  0.00    +0.016 C 
ATOM     15  C   UNL     1      36.925 -18.531 -21.577  0.00  0.00    -0.021 C 
ATOM     16  C   UNL     1      36.115 -19.272 -20.513  0.00  0.00    -0.077 C 
ATOM     17  H   UNL     1      34.704 -19.950 -21.806  0.00  0.00    -0.080 HD
BRANCH  11  18
ATOM     18  C   UNL     1      33.964 -20.185 -19.925  0.00  0.00    -0.073 C 
BRANCH  18  19
ATOM     19  C   UNL     1      34.604 -21.552 -19.678  0.00  0.00    +0.004 C 
BRANCH  19  20
ATOM     20  C   UNL     1      34.912 -21.762 -18.217  0.00  0.00    -0.024 C 
ATOM     21  C   UNL     1      33.954 -22.337 -17.396  0.00  0.00    -0.004 C 
ATOM     22  C   UNL     1      36.148 -21.378 -17.718  0.00  0.00    -0.004 C 
ATOM     23  C   UNL     1      34.238 -22.532 -16.043  0.00  0.00    -0.000 C 
ATOM     24  C   UNL     1      36.431 -21.572 -16.367  0.00  0.00    -0.000 C 
ATOM     25  C   UNL     1      35.477 -22.150 -15.529  0.00  0.00    -0.000 C 
ENDBRANCH  19  20
ENDBRANCH  18  19
ENDBRANCH  11  18
ENDBRANCH   2  12
BRANCH   2  26
ATOM     26  C   UNL     1      33.861 -15.728 -23.860  0.00  0.00    +0.096 C 
BRANCH  26  27
ATOM     27  C   UNL     1      33.793 -16.962 -24.751  0.00  0.00    +0.054 C 
BRANCH  27  28
ATOM     28  C   UNL     1      32.366 -17.451 -24.973  0.00  0.00    +0.144 C 
BRANCH  28  29
ATOM     29  O   UNL     1      32.317 -18.849 -24.717  0.00  0.00    -0.351 OA
ATOM     30  C   UNL     1      33.620 -19.403 -24.601  0.00  0.00    +0.174 C 
ENDBRANCH  28  29
ENDBRANCH  27  28
ENDBRANCH  26  27
ENDBRANCH   2  26
TORSDOF 9
ENDMDL
MODEL 7
REMARK VINA RESULT:      -9.1      1.203      2.136
REMARK  Name = 23644580
REMARK  9 active torsions:
REMARK  status: ('A' for Active; 'I' for Inactive)
REMARK    1  A    between atoms: N_2  and  C_12
REMARK    2  A    between atoms: N_2  and  C_26
REMARK    3  A    between atoms: C_3  and  C_5
REMARK    4  A    between atoms: N_11  and  C_18
REMARK    5  A    between atoms: C_18  and  C_19
REMARK    6  A    between atoms: C_19  and  C_20
REMARK    7  A    between atoms: C_26  and  C_27
REMARK    8  A    between atoms: C_27  and  C_28
REMARK    9  A    between atoms: C_28  and  O_29
REMARK                            x       y       z     vdW  Elec       q    Type
REMARK                         _______ _______ _______ _____ _____    ______ ____
ROOT
ATOM      1  O   UNL     1      34.426  -7.642 -24.251  0.00  0.00    -0.270 OA
ATOM      2  N   UNL     1      32.871  -6.351 -23.075  0.00  0.00    -0.280 N 
ATOM      3  C   UNL     1      33.734  -6.630 -24.149  0.00  0.00    +0.249 C 
ENDROOT
BRANCH   3   5
ATOM      4 CL   UNL     1      34.092  -2.719 -28.638  0.00  0.00    -0.082 Cl
ATOM      5  C   UNL     1      33.823  -5.665 -25.256  0.00  0.00    +0.054 C 
ATOM      6  C   UNL     1      34.616  -4.537 -25.114  0.00  0.00    +0.005 C 
ATOM      7  C   UNL     1      33.110  -5.901 -26.422  0.00  0.00    +0.005 C 
ATOM      8  C   UNL     1      34.700  -3.623 -26.164  0.00  0.00    +0.012 C 
ATOM      9  C   UNL     1      33.194  -4.986 -27.472  0.00  0.00    +0.012 C 
ATOM     10  C   UNL     1      33.989  -3.847 -27.343  0.00  0.00    +0.058 C 
ENDBRANCH   3   5
BRANCH   2  12
ATOM     11  N   UNL     1      31.786  -9.467 -21.303  0.00  0.00    +0.388 N 
ATOM     12  C   UNL     1      32.753  -7.290 -21.986  0.00  0.00    +0.055 C 
ATOM     13  C   UNL     1      31.929  -8.512 -22.411  0.00  0.00    -0.057 C 
ATOM     14  C   UNL     1      32.142  -6.617 -20.756  0.00  0.00    +0.016 C 
ATOM     15  C   UNL     1      31.923  -7.638 -19.645  0.00  0.00    -0.021 C 
ATOM     16  C   UNL     1      31.129  -8.844 -20.146  0.00  0.00    -0.077 C 
ATOM     17  H   UNL     1      32.721  -9.756 -21.015  0.00  0.00    -0.080 HD
BRANCH  11  18
ATOM     18  C   UNL     1      31.043 -10.649 -21.740  0.00  0.00    -0.073 C 
BRANCH  18  19
ATOM     19  C   UNL     1      31.310 -11.837 -20.814  0.00  0.00    +0.004 C 
BRANCH  19  20
ATOM     20  C   UNL     1      32.288 -12.806 -21.427  0.00  0.00    -0.024 C 
ATOM     21  C   UNL     1      32.509 -12.776 -22.796  0.00  0.00    -0.004 C 
ATOM     22  C   UNL     1      32.951 -13.713 -20.613  0.00  0.00    -0.004 C 
ATOM     23  C   UNL     1      33.414 -13.674 -23.364  0.00  0.00    -0.000 C 
ATOM     24  C   UNL     1      33.855 -14.610 -21.180  0.00  0.00    -0.000 C 
ATOM     25  C   UNL     1      34.087 -14.590 -22.556  0.00  0.00    -0.000 C 
ENDBRANCH  19  20
ENDBRANCH  18  19
ENDBRANCH  11  18
ENDBRANCH   2  12
BRANCH   2  26
ATOM     26  C   UNL     1      32.054  -5.137 -22.972  0.00  0.00    +0.096 C 
BRANCH  26  27
ATOM     27  C   UNL     1      30.822  -5.185 -23.866  0.00  0.00    +0.054 C 
BRANCH  27  28
ATOM     28  C   UNL     1      30.360  -3.801 -24.310  0.00  0.00    +0.144 C 
BRANCH  28  29
ATOM     29  O   UNL     1      30.093  -3.017 -23.155  0.00  0.00    -0.351 OA
ATOM     30  C   UNL     1      30.806  -1.788 -23.182  0.00  0.00    +0.174 C 
ENDBRANCH  28  29
ENDBRANCH  27  28
ENDBRANCH  26  27
ENDBRANCH   2  26
TORSDOF 9
ENDMDL
MODEL 8
REMARK VINA RESULT:      -9.0      2.053      3.165
REMARK  Name = 23644580
REMARK  9 active torsions:
REMARK  status: ('A' for Active; 'I' for Inactive)
REMARK    1  A    between atoms: N_2  and  C_12
REMARK    2  A    between atoms: N_2  and  C_26
REMARK    3  A    between atoms: C_3  and  C_5
REMARK    4  A    between atoms: N_11  and  C_18
REMARK    5  A    between atoms: C_18  and  C_19
REMARK    6  A    between atoms: C_19  and  C_20
REMARK    7  A    between atoms: C_26  and  C_27
REMARK    8  A    between atoms: C_27  and  C_28
REMARK    9  A    between atoms: C_28  and  O_29
REMARK                            x       y       z     vdW  Elec       q    Type
REMARK                         _______ _______ _______ _____ _____    ______ ____
ROOT
ATOM      1  O   UNL     1      32.592  -7.202 -19.967  0.00  0.00    -0.270 OA
ATOM      2  N   UNL     1      31.578  -8.293 -21.770  0.00  0.00    -0.280 N 
ATOM      3  C   UNL     1      31.919  -7.171 -20.996  0.00  0.00    +0.249 C 
ENDROOT
BRANCH   3   5
ATOM      4 CL   UNL     1      30.074  -1.786 -22.781  0.00  0.00    -0.082 Cl
ATOM      5  C   UNL     1      31.463  -5.842 -21.436  0.00  0.00    +0.054 C 
ATOM      6  C   UNL     1      30.188  -5.415 -21.101  0.00  0.00    +0.005 C 
ATOM      7  C   UNL     1      32.319  -5.042 -22.178  0.00  0.00    +0.005 C 
ATOM      8  C   UNL     1      29.756  -4.156 -21.519  0.00  0.00    +0.012 C 
ATOM      9  C   UNL     1      31.887  -3.782 -22.595  0.00  0.00    +0.012 C 
ATOM     10  C   UNL     1      30.606  -3.340 -22.266  0.00  0.00    +0.058 C 
ENDBRANCH   3   5
BRANCH   2  12
ATOM     11  N   UNL     1      32.411 -11.925 -22.149  0.00  0.00    +0.388 N 
ATOM     12  C   UNL     1      32.028  -9.605 -21.369  0.00  0.00    +0.055 C 
ATOM     13  C   UNL     1      31.973 -10.581 -22.551  0.00  0.00    -0.057 C 
ATOM     14  C   UNL     1      31.201 -10.123 -20.191  0.00  0.00    +0.016 C 
ATOM     15  C   UNL     1      31.609 -11.549 -19.841  0.00  0.00    -0.021 C 
ATOM     16  C   UNL     1      31.568 -12.457 -21.069  0.00  0.00    -0.077 C 
ATOM     17  H   UNL     1      33.365 -11.853 -21.797  0.00  0.00    -0.080 HD
BRANCH  11  18
ATOM     18  C   UNL     1      32.402 -12.830 -23.299  0.00  0.00    -0.073 C 
BRANCH  18  19
ATOM     19  C   UNL     1      33.818 -13.301 -23.635  0.00  0.00    +0.004 C 
BRANCH  19  20
ATOM     20  C   UNL     1      33.958 -14.792 -23.475  0.00  0.00    -0.024 C 
ATOM     21  C   UNL     1      34.439 -15.306 -22.280  0.00  0.00    -0.004 C 
ATOM     22  C   UNL     1      33.604 -15.628 -24.524  0.00  0.00    -0.004 C 
ATOM     23  C   UNL     1      34.570 -16.687 -22.130  0.00  0.00    -0.000 C 
ATOM     24  C   UNL     1      33.734 -17.008 -24.374  0.00  0.00    -0.000 C 
ATOM     25  C   UNL     1      34.217 -17.538 -23.177  0.00  0.00    -0.000 C 
ENDBRANCH  19  20
ENDBRANCH  18  19
ENDBRANCH  11  18
ENDBRANCH   2  12
BRANCH   2  26
ATOM     26  C   UNL     1      30.772  -8.234 -22.994  0.00  0.00    +0.096 C 
BRANCH  26  27
ATOM     27  C   UNL     1      31.565  -7.721 -24.189  0.00  0.00    +0.054 C 
BRANCH  27  28
ATOM     28  C   UNL     1      30.718  -6.887 -25.145  0.00  0.00    +0.144 C 
BRANCH  28  29
ATOM     29  O   UNL     1      31.582  -6.211 -26.049  0.00  0.00    -0.351 OA
ATOM     30  C   UNL     1      32.869  -6.003 -25.484  0.00  0.00    +0.174 C 
ENDBRANCH  28  29
ENDBRANCH  27  28
ENDBRANCH  26  27
ENDBRANCH   2  26
TORSDOF 9
ENDMDL
MODEL 9
REMARK VINA RESULT:      -8.7      1.497      2.062
REMARK  Name = 23644580
REMARK  9 active torsions:
REMARK  status: ('A' for Active; 'I' for Inactive)
REMARK    1  A    between atoms: N_2  and  C_12
REMARK    2  A    between atoms: N_2  and  C_26
REMARK    3  A    between atoms: C_3  and  C_5
REMARK    4  A    between atoms: N_11  and  C_18
REMARK    5  A    between atoms: C_18  and  C_19
REMARK    6  A    between atoms: C_19  and  C_20
REMARK    7  A    between atoms: C_26  and  C_27
REMARK    8  A    between atoms: C_27  and  C_28
REMARK    9  A    between atoms: C_28  and  O_29
REMARK                            x       y       z     vdW  Elec       q    Type
REMARK                         _______ _______ _______ _____ _____    ______ ____
ROOT
ATOM      1  O   UNL     1      30.793  -8.094 -24.652  0.00  0.00    -0.270 OA
ATOM      2  N   UNL     1      32.189  -7.433 -22.897  0.00  0.00    -0.280 N 
ATOM      3  C   UNL     1      31.514  -7.254 -24.116  0.00  0.00    +0.249 C 
ENDROOT
BRANCH   3   5
ATOM      4 CL   UNL     1      32.054  -2.038 -26.961  0.00  0.00    -0.082 Cl
ATOM      5  C   UNL     1      31.647  -5.967 -24.818  0.00  0.00    +0.054 C 
ATOM      6  C   UNL     1      30.884  -4.885 -24.406  0.00  0.00    +0.005 C 
ATOM      7  C   UNL     1      32.534  -5.859 -25.878  0.00  0.00    +0.005 C 
ATOM      8  C   UNL     1      31.010  -3.666 -25.072  0.00  0.00    +0.012 C 
ATOM      9  C   UNL     1      32.660  -4.639 -26.543  0.00  0.00    +0.012 C 
ATOM     10  C   UNL     1      31.897  -3.543 -26.140  0.00  0.00    +0.058 C 
ENDBRANCH   3   5
BRANCH   2  12
ATOM     11  N   UNL     1      32.526 -11.112 -22.280  0.00  0.00    +0.388 N 
ATOM     12  C   UNL     1      32.061  -8.679 -22.182  0.00  0.00    +0.055 C 
ATOM     13  C   UNL     1      32.669  -9.833 -22.990  0.00  0.00    -0.057 C 
ATOM     14  C   UNL     1      30.596  -8.960 -21.843  0.00  0.00    +0.016 C 
ATOM     15  C   UNL     1      30.454 -10.326 -21.182  0.00  0.00    -0.021 C 
ATOM     16  C   UNL     1      31.113 -11.421 -22.021  0.00  0.00    -0.077 C 
ATOM     17  H   UNL     1      32.998 -11.025 -21.380  0.00  0.00    -0.080 HD
BRANCH  11  18
ATOM     18  C   UNL     1      33.156 -12.191 -23.040  0.00  0.00    -0.073 C 
BRANCH  18  19
ATOM     19  C   UNL     1      33.795 -13.219 -22.104  0.00  0.00    +0.004 C 
BRANCH  19  20
ATOM     20  C   UNL     1      33.896 -14.574 -22.756  0.00  0.00    -0.024 C 
ATOM     21  C   UNL     1      33.392 -14.752 -24.035  0.00  0.00    -0.004 C 
ATOM     22  C   UNL     1      34.490 -15.620 -22.066  0.00  0.00    -0.004 C 
ATOM     23  C   UNL     1      33.484 -16.007 -24.640  0.00  0.00    -0.000 C 
ATOM     24  C   UNL     1      34.582 -16.874 -22.669  0.00  0.00    -0.000 C 
ATOM     25  C   UNL     1      34.079 -17.067 -23.957  0.00  0.00    -0.000 C 
ENDBRANCH  19  20
ENDBRANCH  18  19
ENDBRANCH  11  18
ENDBRANCH   2  12
BRANCH   2  26
ATOM     26  C   UNL     1      33.046  -6.418 -22.275  0.00  0.00    +0.096 C 
BRANCH  26  27
ATOM     27  C   UNL     1      33.030  -6.493 -20.754  0.00  0.00    +0.054 C 
BRANCH  27  28
ATOM     28  C   UNL     1      31.913  -5.661 -20.134  0.00  0.00    +0.144 C 
BRANCH  28  29
ATOM     29  O   UNL     1      31.517  -4.662 -21.065  0.00  0.00    -0.351 OA
ATOM     30  C   UNL     1      30.121  -4.409 -20.998  0.00  0.00    +0.174 C 
ENDBRANCH  28  29
ENDBRANCH  27  28
ENDBRANCH  26  27
ENDBRANCH   2  26
TORSDOF 9
ENDMDL
