MODEL 1
REMARK VINA RESULT:     -11.4      0.000      0.000
REMARK  Name = 15139
REMARK  7 active torsions:
REMARK  status: ('A' for Active; 'I' for Inactive)
REMARK    1  A    between atoms: N_1  and  C_16
REMARK    2  A    between atoms: N_2  and  C_8
REMARK    3  A    between atoms: C_9  and  O_14
REMARK    4  A    between atoms: C_16  and  C_17
REMARK    5  A    between atoms: C_17  and  C_18
REMARK    6  A    between atoms: C_18  and  C_20
REMARK    7  A    between atoms: C_20  and  C_22
REMARK                            x       y       z     vdW  Elec       q    Type
REMARK                         _______ _______ _______ _____ _____    ______ ____
ROOT
ATOM      1  N   UNL     1      34.643 -21.656 -17.481  0.00  0.00    +0.389 N 
ATOM      2  N   UNL     1      35.892 -22.763 -15.163  0.00  0.00    -0.309 N 
ATOM      3  C   UNL     1      34.072 -22.839 -16.823  0.00  0.00    -0.055 C 
ATOM      4  C   UNL     1      36.106 -21.677 -17.364  0.00  0.00    -0.055 C 
ATOM      5  C   UNL     1      34.438 -22.870 -15.337  0.00  0.00    +0.068 C 
ATOM      6  C   UNL     1      36.541 -21.672 -15.896  0.00  0.00    +0.068 C 
ATOM      7  H   UNL     1      34.287 -20.819 -17.020  0.00  0.00    -0.080 HD
ENDROOT
BRANCH   2   8
ATOM      8  C   UNL     1      36.446 -23.216 -13.961  0.00  0.00    +0.082 C 
ATOM      9  C   UNL     1      37.077 -24.472 -13.862  0.00  0.00    +0.152 C 
ATOM     10  C   UNL     1      36.386 -22.415 -12.801  0.00  0.00    +0.018 C 
ATOM     11  C   UNL     1      37.626 -24.911 -12.657  0.00  0.00    +0.038 C 
ATOM     12  C   UNL     1      36.934 -22.854 -11.596  0.00  0.00    +0.001 C 
ATOM     13  C   UNL     1      37.554 -24.101 -11.523  0.00  0.00    +0.003 C 
BRANCH   9  14
ATOM     14  O   UNL     1      37.158 -25.279 -14.959  0.00  0.00    -0.470 OA
ATOM     15  C   UNL     1      36.344 -26.449 -14.962  0.00  0.00    +0.253 C 
ENDBRANCH   9  14
ENDBRANCH   2   8
BRANCH   1  16
ATOM     16  C   UNL     1      34.241 -21.608 -18.886  0.00  0.00    -0.077 C 
BRANCH  16  17
ATOM     17  C   UNL     1      35.176 -20.686 -19.672  0.00  0.00    -0.015 C 
BRANCH  17  18
ATOM     18  C   UNL     1      34.413 -19.745 -20.607  0.00  0.00    +0.067 C 
BRANCH  18  20
ATOM     19  O   UNL     1      36.298 -18.241 -20.519  0.00  0.00    -0.291 OA
ATOM     20  C   UNL     1      35.227 -18.535 -21.044  0.00  0.00    +0.173 C 
BRANCH  20  22
ATOM     21  F   UNL     1      33.297 -15.380 -25.227  0.00  0.00    -0.204 F 
ATOM     22  C   UNL     1      34.712 -17.692 -22.161  0.00  0.00    +0.035 C 
ATOM     23  C   UNL     1      34.791 -16.323 -22.046  0.00  0.00    +0.005 C 
ATOM     24  C   UNL     1      34.176 -18.315 -23.266  0.00  0.00    +0.005 C 
ATOM     25  C   UNL     1      34.309 -15.534 -23.092  0.00  0.00    +0.030 C 
ATOM     26  C   UNL     1      33.694 -17.527 -24.310  0.00  0.00    +0.030 C 
ATOM     27  C   UNL     1      33.761 -16.136 -24.223  0.00  0.00    +0.140 C 
ENDBRANCH  20  22
ENDBRANCH  18  20
ENDBRANCH  17  18
ENDBRANCH  16  17
ENDBRANCH   1  16
TORSDOF 7
ENDMDL
MODEL 2
REMARK VINA RESULT:     -11.0      5.498     11.199
REMARK  Name = 15139
REMARK  7 active torsions:
REMARK  status: ('A' for Active; 'I' for Inactive)
REMARK    1  A    between atoms: N_1  and  C_16
REMARK    2  A    between atoms: N_2  and  C_8
REMARK    3  A    between atoms: C_9  and  O_14
REMARK    4  A    between atoms: C_16  and  C_17
REMARK    5  A    between atoms: C_17  and  C_18
REMARK    6  A    between atoms: C_18  and  C_20
REMARK    7  A    between atoms: C_20  and  C_22
REMARK                            x       y       z     vdW  Elec       q    Type
REMARK                         _______ _______ _______ _____ _____    ______ ____
ROOT
ATOM      1  N   UNL     1      34.260 -15.626 -24.192  0.00  0.00    +0.389 N 
ATOM      2  N   UNL     1      32.974 -13.285 -23.182  0.00  0.00    -0.309 N 
ATOM      3  C   UNL     1      33.073 -15.083 -24.865  0.00  0.00    -0.055 C 
ATOM      4  C   UNL     1      34.164 -15.397 -22.746  0.00  0.00    -0.055 C 
ATOM      5  C   UNL     1      32.945 -13.576 -24.620  0.00  0.00    +0.068 C 
ATOM      6  C   UNL     1      34.070 -13.902 -22.430  0.00  0.00    +0.068 C 
ATOM      7  H   UNL     1      35.088 -15.146 -24.548  0.00  0.00    -0.080 HD
ENDROOT
BRANCH   2   8
ATOM      8  C   UNL     1      32.432 -12.070 -22.746  0.00  0.00    +0.082 C 
ATOM      9  C   UNL     1      31.565 -12.001 -21.636  0.00  0.00    +0.152 C 
ATOM     10  C   UNL     1      32.744 -10.869 -23.415  0.00  0.00    +0.018 C 
ATOM     11  C   UNL     1      31.032 -10.784 -21.213  0.00  0.00    +0.038 C 
ATOM     12  C   UNL     1      32.211  -9.651 -22.991  0.00  0.00    +0.001 C 
ATOM     13  C   UNL     1      31.356  -9.608 -21.890  0.00  0.00    +0.003 C 
BRANCH   9  14
ATOM     14  O   UNL     1      31.236 -13.139 -20.960  0.00  0.00    -0.470 OA
ATOM     15  C   UNL     1      32.074 -13.508 -19.868  0.00  0.00    +0.253 C 
ENDBRANCH   9  14
ENDBRANCH   2   8
BRANCH   1  16
ATOM     16  C   UNL     1      34.402 -17.053 -24.478  0.00  0.00    -0.077 C 
BRANCH  16  17
ATOM     17  C   UNL     1      33.923 -17.881 -23.284  0.00  0.00    -0.015 C 
BRANCH  17  18
ATOM     18  C   UNL     1      35.014 -18.813 -22.749  0.00  0.00    +0.067 C 
BRANCH  18  20
ATOM     19  O   UNL     1      35.809 -17.798 -20.708  0.00  0.00    -0.291 OA
ATOM     20  C   UNL     1      35.199 -18.722 -21.240  0.00  0.00    +0.173 C 
BRANCH  20  22
ATOM     21  F   UNL     1      32.950 -22.695 -18.025  0.00  0.00    -0.204 F 
ATOM     22  C   UNL     1      34.598 -19.783 -20.382  0.00  0.00    +0.035 C 
ATOM     23  C   UNL     1      33.227 -19.896 -20.333  0.00  0.00    +0.005 C 
ATOM     24  C   UNL     1      35.437 -20.610 -19.669  0.00  0.00    +0.005 C 
ATOM     25  C   UNL     1      32.665 -20.889 -19.530  0.00  0.00    +0.030 C 
ATOM     26  C   UNL     1      34.876 -21.603 -18.867  0.00  0.00    +0.030 C 
ATOM     27  C   UNL     1      33.489 -21.742 -18.797  0.00  0.00    +0.140 C 
ENDBRANCH  20  22
ENDBRANCH  18  20
ENDBRANCH  17  18
ENDBRANCH  16  17
ENDBRANCH   1  16
TORSDOF 7
ENDMDL
MODEL 3
REMARK VINA RESULT:     -11.0      7.790     14.047
REMARK  Name = 15139
REMARK  7 active torsions:
REMARK  status: ('A' for Active; 'I' for Inactive)
REMARK    1  A    between atoms: N_1  and  C_16
REMARK    2  A    between atoms: N_2  and  C_8
REMARK    3  A    between atoms: C_9  and  O_14
REMARK    4  A    between atoms: C_16  and  C_17
REMARK    5  A    between atoms: C_17  and  C_18
REMARK    6  A    between atoms: C_18  and  C_20
REMARK    7  A    between atoms: C_20  and  C_22
REMARK                            x       y       z     vdW  Elec       q    Type
REMARK                         _______ _______ _______ _____ _____    ______ ____
ROOT
ATOM      1  N   UNL     1      32.099 -11.399 -22.064  0.00  0.00    +0.389 N 
ATOM      2  N   UNL     1      31.445  -8.625 -21.875  0.00  0.00    -0.309 N 
ATOM      3  C   UNL     1      32.335 -10.502 -23.203  0.00  0.00    -0.055 C 
ATOM      4  C   UNL     1      30.908 -10.965 -21.325  0.00  0.00    -0.055 C 
ATOM      5  C   UNL     1      32.556  -9.062 -22.730  0.00  0.00    +0.068 C 
ATOM      6  C   UNL     1      31.080  -9.541 -20.791  0.00  0.00    +0.068 C 
ATOM      7  H   UNL     1      32.906 -11.360 -21.442  0.00  0.00    -0.080 HD
ENDROOT
BRANCH   2   8
ATOM      8  C   UNL     1      31.234  -7.250 -21.723  0.00  0.00    +0.082 C 
ATOM      9  C   UNL     1      30.559  -6.491 -22.700  0.00  0.00    +0.152 C 
ATOM     10  C   UNL     1      31.697  -6.581 -20.571  0.00  0.00    +0.018 C 
ATOM     11  C   UNL     1      30.355  -5.121 -22.534  0.00  0.00    +0.038 C 
ATOM     12  C   UNL     1      31.493  -5.211 -20.405  0.00  0.00    +0.001 C 
ATOM     13  C   UNL     1      30.823  -4.481 -21.386  0.00  0.00    +0.003 C 
BRANCH   9  14
ATOM     14  O   UNL     1      30.095  -7.098 -23.830  0.00  0.00    -0.470 OA
ATOM     15  C   UNL     1      30.751  -6.776 -25.053  0.00  0.00    +0.253 C 
ENDBRANCH   9  14
ENDBRANCH   2   8
BRANCH   1  16
ATOM     16  C   UNL     1      31.944 -12.779 -22.524  0.00  0.00    -0.077 C 
BRANCH  16  17
ATOM     17  C   UNL     1      32.935 -13.075 -23.652  0.00  0.00    -0.015 C 
BRANCH  17  18
ATOM     18  C   UNL     1      34.056 -14.018 -23.207  0.00  0.00    +0.067 C 
BRANCH  18  20
ATOM     19  O   UNL     1      33.878 -15.434 -25.153  0.00  0.00    -0.291 OA
ATOM     20  C   UNL     1      34.048 -15.353 -23.940  0.00  0.00    +0.173 C 
BRANCH  20  22
ATOM     21  F   UNL     1      34.906 -20.022 -21.000  0.00  0.00    -0.204 F 
ATOM     22  C   UNL     1      34.277 -16.600 -23.155  0.00  0.00    +0.035 C 
ATOM     23  C   UNL     1      34.764 -16.492 -21.872  0.00  0.00    +0.005 C 
ATOM     24  C   UNL     1      33.993 -17.812 -23.742  0.00  0.00    +0.005 C 
ATOM     25  C   UNL     1      34.978 -17.659 -21.137  0.00  0.00    +0.030 C 
ATOM     26  C   UNL     1      34.207 -18.978 -23.007  0.00  0.00    +0.030 C 
ATOM     27  C   UNL     1      34.699 -18.901 -21.704  0.00  0.00    +0.140 C 
ENDBRANCH  20  22
ENDBRANCH  18  20
ENDBRANCH  17  18
ENDBRANCH  16  17
ENDBRANCH   1  16
TORSDOF 7
ENDMDL
MODEL 4
REMARK VINA RESULT:     -10.9      1.458      2.043
REMARK  Name = 15139
REMARK  7 active torsions:
REMARK  status: ('A' for Active; 'I' for Inactive)
REMARK    1  A    between atoms: N_1  and  C_16
REMARK    2  A    between atoms: N_2  and  C_8
REMARK    3  A    between atoms: C_9  and  O_14
REMARK    4  A    between atoms: C_16  and  C_17
REMARK    5  A    between atoms: C_17  and  C_18
REMARK    6  A    between atoms: C_18  and  C_20
REMARK    7  A    between atoms: C_20  and  C_22
REMARK                            x       y       z     vdW  Elec       q    Type
REMARK                         _______ _______ _______ _____ _____    ______ ____
ROOT
ATOM      1  N   UNL     1      34.676 -21.194 -18.534  0.00  0.00    +0.389 N 
ATOM      2  N   UNL     1      35.161 -22.509 -16.046  0.00  0.00    -0.309 N 
ATOM      3  C   UNL     1      33.889 -22.374 -18.152  0.00  0.00    -0.055 C 
ATOM      4  C   UNL     1      36.043 -21.314 -18.011  0.00  0.00    -0.055 C 
ATOM      5  C   UNL     1      33.814 -22.513 -16.629  0.00  0.00    +0.068 C 
ATOM      6  C   UNL     1      36.040 -21.421 -16.484  0.00  0.00    +0.068 C 
ATOM      7  H   UNL     1      34.241 -20.364 -18.132  0.00  0.00    -0.080 HD
ENDROOT
BRANCH   2   8
ATOM      8  C   UNL     1      35.328 -23.064 -14.772  0.00  0.00    +0.082 C 
ATOM      9  C   UNL     1      36.603 -23.398 -14.270  0.00  0.00    +0.152 C 
ATOM     10  C   UNL     1      34.210 -23.307 -13.947  0.00  0.00    +0.018 C 
ATOM     11  C   UNL     1      36.754 -23.950 -12.998  0.00  0.00    +0.038 C 
ATOM     12  C   UNL     1      34.361 -23.859 -12.675  0.00  0.00    +0.001 C 
ATOM     13  C   UNL     1      35.633 -24.180 -12.201  0.00  0.00    +0.003 C 
BRANCH   9  14
ATOM     14  O   UNL     1      37.711 -23.181 -15.034  0.00  0.00    -0.470 OA
ATOM     15  C   UNL     1      38.792 -24.097 -14.882  0.00  0.00    +0.253 C 
ENDBRANCH   9  14
ENDBRANCH   2   8
BRANCH   1  16
ATOM     16  C   UNL     1      34.695 -21.040 -19.989  0.00  0.00    -0.077 C 
BRANCH  16  17
ATOM     17  C   UNL     1      33.817 -19.858 -20.406  0.00  0.00    -0.015 C 
BRANCH  17  18
ATOM     18  C   UNL     1      34.415 -19.076 -21.578  0.00  0.00    +0.067 C 
BRANCH  18  20
ATOM     19  O   UNL     1      36.077 -17.801 -20.380  0.00  0.00    -0.291 OA
ATOM     20  C   UNL     1      35.123 -17.797 -21.153  0.00  0.00    +0.173 C 
BRANCH  20  22
ATOM     21  F   UNL     1      33.350 -12.935 -23.249  0.00  0.00    -0.204 F 
ATOM     22  C   UNL     1      34.649 -16.499 -21.712  0.00  0.00    +0.035 C 
ATOM     23  C   UNL     1      34.676 -16.319 -23.077  0.00  0.00    +0.005 C 
ATOM     24  C   UNL     1      34.204 -15.528 -20.844  0.00  0.00    +0.005 C 
ATOM     25  C   UNL     1      34.232 -15.104 -23.601  0.00  0.00    +0.030 C 
ATOM     26  C   UNL     1      33.761 -14.313 -21.368  0.00  0.00    +0.030 C 
ATOM     27  C   UNL     1      33.775 -14.102 -22.747  0.00  0.00    +0.140 C 
ENDBRANCH  20  22
ENDBRANCH  18  20
ENDBRANCH  17  18
ENDBRANCH  16  17
ENDBRANCH   1  16
TORSDOF 7
ENDMDL
MODEL 5
REMARK VINA RESULT:     -10.8      2.714      3.817
REMARK  Name = 15139
REMARK  7 active torsions:
REMARK  status: ('A' for Active; 'I' for Inactive)
REMARK    1  A    between atoms: N_1  and  C_16
REMARK    2  A    between atoms: N_2  and  C_8
REMARK    3  A    between atoms: C_9  and  O_14
REMARK    4  A    between atoms: C_16  and  C_17
REMARK    5  A    between atoms: C_17  and  C_18
REMARK    6  A    between atoms: C_18  and  C_20
REMARK    7  A    between atoms: C_20  and  C_22
REMARK                            x       y       z     vdW  Elec       q    Type
REMARK                         _______ _______ _______ _____ _____    ______ ____
ROOT
ATOM      1  N   UNL     1      34.971 -21.569 -18.935  0.00  0.00    +0.389 N 
ATOM      2  N   UNL     1      33.548 -22.473 -16.630  0.00  0.00    -0.309 N 
ATOM      3  C   UNL     1      35.491 -21.300 -17.589  0.00  0.00    -0.055 C 
ATOM      4  C   UNL     1      33.503 -21.555 -18.915  0.00  0.00    -0.055 C 
ATOM      5  C   UNL     1      35.011 -22.359 -16.593  0.00  0.00    +0.068 C 
ATOM      6  C   UNL     1      32.956 -22.621 -17.963  0.00  0.00    +0.068 C 
ATOM      7  H   UNL     1      35.288 -22.491 -19.233  0.00  0.00    -0.080 HD
ENDROOT
BRANCH   2   8
ATOM      8  C   UNL     1      32.903 -23.030 -15.520  0.00  0.00    +0.082 C 
ATOM      9  C   UNL     1      31.498 -23.025 -15.398  0.00  0.00    +0.152 C 
ATOM     10  C   UNL     1      33.653 -23.618 -14.480  0.00  0.00    +0.018 C 
ATOM     11  C   UNL     1      30.869 -23.584 -14.286  0.00  0.00    +0.038 C 
ATOM     12  C   UNL     1      33.024 -24.177 -13.368  0.00  0.00    +0.001 C 
ATOM     13  C   UNL     1      31.633 -24.160 -13.270  0.00  0.00    +0.003 C 
BRANCH   9  14
ATOM     14  O   UNL     1      30.735 -22.466 -16.380  0.00  0.00    -0.470 OA
ATOM     15  C   UNL     1      29.321 -22.512 -16.205  0.00  0.00    +0.253 C 
ENDBRANCH   9  14
ENDBRANCH   2   8
BRANCH   1  16
ATOM     16  C   UNL     1      35.480 -20.583 -19.888  0.00  0.00    -0.077 C 
BRANCH  16  17
ATOM     17  C   UNL     1      34.320 -19.898 -20.613  0.00  0.00    -0.015 C 
BRANCH  17  18
ATOM     18  C   UNL     1      34.792 -19.060 -21.803  0.00  0.00    +0.067 C 
BRANCH  18  20
ATOM     19  O   UNL     1      35.413 -17.163 -20.447  0.00  0.00    -0.291 OA
ATOM     20  C   UNL     1      34.908 -17.575 -21.488  0.00  0.00    +0.173 C 
BRANCH  20  22
ATOM     21  F   UNL     1      33.038 -13.890 -25.244  0.00  0.00    -0.204 F 
ATOM     22  C   UNL     1      34.408 -16.591 -22.491  0.00  0.00    +0.035 C 
ATOM     23  C   UNL     1      34.084 -17.040 -23.751  0.00  0.00    +0.005 C 
ATOM     24  C   UNL     1      34.290 -15.270 -22.119  0.00  0.00    +0.005 C 
ATOM     25  C   UNL     1      33.617 -16.119 -24.690  0.00  0.00    +0.030 C 
ATOM     26  C   UNL     1      33.823 -14.351 -23.057  0.00  0.00    +0.030 C 
ATOM     27  C   UNL     1      33.486 -14.775 -24.343  0.00  0.00    +0.140 C 
ENDBRANCH  20  22
ENDBRANCH  18  20
ENDBRANCH  17  18
ENDBRANCH  16  17
ENDBRANCH   1  16
TORSDOF 7
ENDMDL
MODEL 6
REMARK VINA RESULT:     -10.7      5.569     12.176
REMARK  Name = 15139
REMARK  7 active torsions:
REMARK  status: ('A' for Active; 'I' for Inactive)
REMARK    1  A    between atoms: N_1  and  C_16
REMARK    2  A    between atoms: N_2  and  C_8
REMARK    3  A    between atoms: C_9  and  O_14
REMARK    4  A    between atoms: C_16  and  C_17
REMARK    5  A    between atoms: C_17  and  C_18
REMARK    6  A    between atoms: C_18  and  C_20
REMARK    7  A    between atoms: C_20  and  C_22
REMARK                            x       y       z     vdW  Elec       q    Type
REMARK                         _______ _______ _______ _____ _____    ______ ____
ROOT
ATOM      1  N   UNL     1      34.234 -14.570 -22.858  0.00  0.00    +0.389 N 
ATOM      2  N   UNL     1      32.765 -12.135 -22.594  0.00  0.00    -0.309 N 
ATOM      3  C   UNL     1      33.214 -14.207 -23.851  0.00  0.00    -0.055 C 
ATOM      4  C   UNL     1      33.837 -14.082 -21.532  0.00  0.00    -0.055 C 
ATOM      5  C   UNL     1      33.039 -12.688 -23.926  0.00  0.00    +0.068 C 
ATOM      6  C   UNL     1      33.679 -12.559 -21.530  0.00  0.00    +0.068 C 
ATOM      7  H   UNL     1      35.118 -14.132 -23.119  0.00  0.00    -0.080 HD
ENDROOT
BRANCH   2   8
ATOM      8  C   UNL     1      32.144 -10.883 -22.517  0.00  0.00    +0.082 C 
ATOM      9  C   UNL     1      32.758  -9.719 -23.022  0.00  0.00    +0.152 C 
ATOM     10  C   UNL     1      30.870 -10.754 -21.925  0.00  0.00    +0.018 C 
ATOM     11  C   UNL     1      32.127  -8.478 -22.939  0.00  0.00    +0.038 C 
ATOM     12  C   UNL     1      30.239  -9.513 -21.842  0.00  0.00    +0.001 C 
ATOM     13  C   UNL     1      30.867  -8.375 -22.349  0.00  0.00    +0.003 C 
BRANCH   9  14
ATOM     14  O   UNL     1      33.990  -9.798 -23.602  0.00  0.00    -0.470 OA
ATOM     15  C   UNL     1      34.664  -8.569 -23.859  0.00  0.00    +0.253 C 
ENDBRANCH   9  14
ENDBRANCH   2   8
BRANCH   1  16
ATOM     16  C   UNL     1      34.433 -16.019 -22.834  0.00  0.00    -0.077 C 
BRANCH  16  17
ATOM     17  C   UNL     1      34.718 -16.489 -21.406  0.00  0.00    -0.015 C 
BRANCH  17  18
ATOM     18  C   UNL     1      35.403 -17.858 -21.372  0.00  0.00    +0.067 C 
BRANCH  18  20
ATOM     19  O   UNL     1      33.854 -19.200 -22.647  0.00  0.00    -0.291 OA
ATOM     20  C   UNL     1      34.442 -19.020 -21.584  0.00  0.00    +0.173 C 
BRANCH  20  22
ATOM     21  F   UNL     1      33.635 -22.623 -17.394  0.00  0.00    -0.204 F 
ATOM     22  C   UNL     1      34.226 -19.982 -20.465  0.00  0.00    +0.035 C 
ATOM     23  C   UNL     1      35.326 -20.543 -19.855  0.00  0.00    +0.005 C 
ATOM     24  C   UNL     1      32.936 -20.274 -20.083  0.00  0.00    +0.005 C 
ATOM     25  C   UNL     1      35.125 -21.443 -18.808  0.00  0.00    +0.030 C 
ATOM     26  C   UNL     1      32.735 -21.173 -19.037  0.00  0.00    +0.030 C 
ATOM     27  C   UNL     1      33.830 -21.758 -18.399  0.00  0.00    +0.140 C 
ENDBRANCH  20  22
ENDBRANCH  18  20
ENDBRANCH  17  18
ENDBRANCH  16  17
ENDBRANCH   1  16
TORSDOF 7
ENDMDL
MODEL 7
REMARK VINA RESULT:     -10.5      7.770     14.167
REMARK  Name = 15139
REMARK  7 active torsions:
REMARK  status: ('A' for Active; 'I' for Inactive)
REMARK    1  A    between atoms: N_1  and  C_16
REMARK    2  A    between atoms: N_2  and  C_8
REMARK    3  A    between atoms: C_9  and  O_14
REMARK    4  A    between atoms: C_16  and  C_17
REMARK    5  A    between atoms: C_17  and  C_18
REMARK    6  A    between atoms: C_18  and  C_20
REMARK    7  A    between atoms: C_20  and  C_22
REMARK                            x       y       z     vdW  Elec       q    Type
REMARK                         _______ _______ _______ _____ _____    ______ ____
ROOT
ATOM      1  N   UNL     1      32.141 -11.351 -22.118  0.00  0.00    +0.389 N 
ATOM      2  N   UNL     1      31.619  -8.597 -22.664  0.00  0.00    -0.309 N 
ATOM      3  C   UNL     1      32.636 -10.733 -23.355  0.00  0.00    -0.055 C 
ATOM      4  C   UNL     1      30.858 -10.748 -21.737  0.00  0.00    -0.055 C 
ATOM      5  C   UNL     1      32.844  -9.227 -23.170  0.00  0.00    +0.068 C 
ATOM      6  C   UNL     1      31.005  -9.243 -21.500  0.00  0.00    +0.068 C 
ATOM      7  H   UNL     1      32.817 -11.185 -21.373  0.00  0.00    -0.080 HD
ENDROOT
BRANCH   2   8
ATOM      8  C   UNL     1      31.460  -7.220 -22.856  0.00  0.00    +0.082 C 
ATOM      9  C   UNL     1      32.045  -6.277 -21.986  0.00  0.00    +0.152 C 
ATOM     10  C   UNL     1      30.701  -6.733 -23.941  0.00  0.00    +0.018 C 
ATOM     11  C   UNL     1      31.879  -4.908 -22.190  0.00  0.00    +0.038 C 
ATOM     12  C   UNL     1      30.535  -5.364 -24.145  0.00  0.00    +0.001 C 
ATOM     13  C   UNL     1      31.124  -4.451 -23.270  0.00  0.00    +0.003 C 
BRANCH   9  14
ATOM     14  O   UNL     1      32.787  -6.704 -20.924  0.00  0.00    -0.470 OA
ATOM     15  C   UNL     1      32.440  -6.186 -19.643  0.00  0.00    +0.253 C 
ENDBRANCH   9  14
ENDBRANCH   2   8
BRANCH   1  16
ATOM     16  C   UNL     1      31.999 -12.797 -22.290  0.00  0.00    -0.077 C 
BRANCH  16  17
ATOM     17  C   UNL     1      32.752 -13.257 -23.539  0.00  0.00    -0.015 C 
BRANCH  17  18
ATOM     18  C   UNL     1      33.990 -14.090 -23.196  0.00  0.00    +0.067 C 
BRANCH  18  20
ATOM     19  O   UNL     1      33.917 -15.502 -25.152  0.00  0.00    -0.291 OA
ATOM     20  C   UNL     1      34.046 -15.421 -23.934  0.00  0.00    +0.173 C 
BRANCH  20  22
ATOM     21  F   UNL     1      34.942 -20.076 -20.983  0.00  0.00    -0.204 F 
ATOM     22  C   UNL     1      34.285 -16.664 -23.146  0.00  0.00    +0.035 C 
ATOM     23  C   UNL     1      33.977 -17.878 -23.718  0.00  0.00    +0.005 C 
ATOM     24  C   UNL     1      34.805 -16.552 -21.876  0.00  0.00    +0.005 C 
ATOM     25  C   UNL     1      34.201 -19.042 -22.981  0.00  0.00    +0.030 C 
ATOM     26  C   UNL     1      35.029 -17.715 -21.139  0.00  0.00    +0.030 C 
ATOM     27  C   UNL     1      34.727 -18.960 -21.692  0.00  0.00    +0.140 C 
ENDBRANCH  20  22
ENDBRANCH  18  20
ENDBRANCH  17  18
ENDBRANCH  16  17
ENDBRANCH   1  16
TORSDOF 7
ENDMDL
MODEL 8
REMARK VINA RESULT:     -10.5      1.992      3.477
REMARK  Name = 15139
REMARK  7 active torsions:
REMARK  status: ('A' for Active; 'I' for Inactive)
REMARK    1  A    between atoms: N_1  and  C_16
REMARK    2  A    between atoms: N_2  and  C_8
REMARK    3  A    between atoms: C_9  and  O_14
REMARK    4  A    between atoms: C_16  and  C_17
REMARK    5  A    between atoms: C_17  and  C_18
REMARK    6  A    between atoms: C_18  and  C_20
REMARK    7  A    between atoms: C_20  and  C_22
REMARK                            x       y       z     vdW  Elec       q    Type
REMARK                         _______ _______ _______ _____ _____    ______ ____
ROOT
ATOM      1  N   UNL     1      34.198 -20.398 -20.525  0.00  0.00    +0.389 N 
ATOM      2  N   UNL     1      34.940 -21.441 -17.972  0.00  0.00    -0.309 N 
ATOM      3  C   UNL     1      35.444 -19.965 -19.880  0.00  0.00    -0.055 C 
ATOM      4  C   UNL     1      33.176 -20.667 -19.507  0.00  0.00    -0.055 C 
ATOM      5  C   UNL     1      35.976 -21.045 -18.934  0.00  0.00    +0.068 C 
ATOM      6  C   UNL     1      33.632 -21.769 -18.547  0.00  0.00    +0.068 C 
ATOM      7  H   UNL     1      34.378 -21.256 -21.046  0.00  0.00    -0.080 HD
ENDROOT
BRANCH   2   8
ATOM      8  C   UNL     1      35.348 -22.054 -16.782  0.00  0.00    +0.082 C 
ATOM      9  C   UNL     1      34.426 -22.673 -15.913  0.00  0.00    +0.152 C 
ATOM     10  C   UNL     1      36.710 -22.068 -16.417  0.00  0.00    +0.018 C 
ATOM     11  C   UNL     1      34.846 -23.281 -14.730  0.00  0.00    +0.038 C 
ATOM     12  C   UNL     1      37.131 -22.676 -15.234  0.00  0.00    +0.001 C 
ATOM     13  C   UNL     1      36.200 -23.282 -14.391  0.00  0.00    +0.003 C 
BRANCH   9  14
ATOM     14  O   UNL     1      33.099 -22.683 -16.228  0.00  0.00    -0.470 OA
ATOM     15  C   UNL     1      32.197 -23.124 -15.215  0.00  0.00    +0.253 C 
ENDBRANCH   9  14
ENDBRANCH   2   8
BRANCH   1  16
ATOM     16  C   UNL     1      33.729 -19.383 -21.467  0.00  0.00    -0.077 C 
BRANCH  16  17
ATOM     17  C   UNL     1      34.737 -19.212 -22.605  0.00  0.00    -0.015 C 
BRANCH  17  18
ATOM     18  C   UNL     1      35.649 -18.000 -22.396  0.00  0.00    +0.067 C 
BRANCH  18  20
ATOM     19  O   UNL     1      34.900 -16.672 -20.525  0.00  0.00    -0.291 OA
ATOM     20  C   UNL     1      34.944 -16.818 -21.744  0.00  0.00    +0.173 C 
BRANCH  20  22
ATOM     21  F   UNL     1      32.546 -12.991 -25.027  0.00  0.00    -0.204 F 
ATOM     22  C   UNL     1      34.303 -15.796 -22.620  0.00  0.00    +0.035 C 
ATOM     23  C   UNL     1      34.063 -16.114 -23.938  0.00  0.00    +0.005 C 
ATOM     24  C   UNL     1      33.976 -14.573 -22.079  0.00  0.00    +0.005 C 
ATOM     25  C   UNL     1      33.463 -15.158 -24.759  0.00  0.00    +0.030 C 
ATOM     26  C   UNL     1      33.377 -13.617 -22.899  0.00  0.00    +0.030 C 
ATOM     27  C   UNL     1      33.120 -13.910 -24.239  0.00  0.00    +0.140 C 
ENDBRANCH  20  22
ENDBRANCH  18  20
ENDBRANCH  17  18
ENDBRANCH  16  17
ENDBRANCH   1  16
TORSDOF 7
ENDMDL
MODEL 9
REMARK VINA RESULT:     -10.2      1.275      1.974
REMARK  Name = 15139
REMARK  7 active torsions:
REMARK  status: ('A' for Active; 'I' for Inactive)
REMARK    1  A    between atoms: N_1  and  C_16
REMARK    2  A    between atoms: N_2  and  C_8
REMARK    3  A    between atoms: C_9  and  O_14
REMARK    4  A    between atoms: C_16  and  C_17
REMARK    5  A    between atoms: C_17  and  C_18
REMARK    6  A    between atoms: C_18  and  C_20
REMARK    7  A    between atoms: C_20  and  C_22
REMARK                            x       y       z     vdW  Elec       q    Type
REMARK                         _______ _______ _______ _____ _____    ______ ____
ROOT
ATOM      1  N   UNL     1      33.909 -22.163 -16.894  0.00  0.00    +0.389 N 
ATOM      2  N   UNL     1      36.056 -23.319 -15.409  0.00  0.00    -0.309 N 
ATOM      3  C   UNL     1      33.796 -23.530 -16.369  0.00  0.00    -0.055 C 
ATOM      4  C   UNL     1      35.302 -21.882 -17.262  0.00  0.00    -0.055 C 
ATOM      5  C   UNL     1      34.671 -23.713 -15.125  0.00  0.00    +0.068 C 
ATOM      6  C   UNL     1      36.227 -22.012 -16.049  0.00  0.00    +0.068 C 
ATOM      7  H   UNL     1      33.620 -21.507 -16.169  0.00  0.00    -0.080 HD
ENDROOT
BRANCH   2   8
ATOM      8  C   UNL     1      37.066 -23.823 -14.581  0.00  0.00    +0.082 C 
ATOM      9  C   UNL     1      36.989 -23.727 -13.176  0.00  0.00    +0.152 C 
ATOM     10  C   UNL     1      38.201 -24.448 -15.138  0.00  0.00    +0.018 C 
ATOM     11  C   UNL     1      38.002 -24.234 -12.362  0.00  0.00    +0.038 C 
ATOM     12  C   UNL     1      39.214 -24.956 -14.324  0.00  0.00    +0.001 C 
ATOM     13  C   UNL     1      39.115 -24.849 -12.937  0.00  0.00    +0.003 C 
BRANCH   9  14
ATOM     14  O   UNL     1      35.909 -23.129 -12.595  0.00  0.00    -0.470 OA
ATOM     15  C   UNL     1      36.062 -22.686 -11.249  0.00  0.00    +0.253 C 
ENDBRANCH   9  14
ENDBRANCH   2   8
BRANCH   1  16
ATOM     16  C   UNL     1      33.027 -21.985 -18.048  0.00  0.00    -0.077 C 
BRANCH  16  17
ATOM     17  C   UNL     1      33.853 -21.713 -19.307  0.00  0.00    -0.015 C 
BRANCH  17  18
ATOM     18  C   UNL     1      33.508 -20.367 -19.949  0.00  0.00    +0.067 C 
BRANCH  18  20
ATOM     19  O   UNL     1      35.847 -19.773 -19.950  0.00  0.00    -0.291 OA
ATOM     20  C   UNL     1      34.730 -19.594 -20.426  0.00  0.00    +0.173 C 
BRANCH  20  22
ATOM     21  F   UNL     1      34.098 -15.873 -24.541  0.00  0.00    -0.204 F 
ATOM     22  C   UNL     1      34.562 -18.600 -21.525  0.00  0.00    +0.035 C 
ATOM     23  C   UNL     1      34.910 -17.289 -21.289  0.00  0.00    +0.005 C 
ATOM     24  C   UNL     1      34.064 -19.030 -22.735  0.00  0.00    +0.005 C 
ATOM     25  C   UNL     1      34.752 -16.359 -22.318  0.00  0.00    +0.030 C 
ATOM     26  C   UNL     1      33.907 -18.101 -23.763  0.00  0.00    +0.030 C 
ATOM     27  C   UNL     1      34.251 -16.765 -23.554  0.00  0.00    +0.140 C 
ENDBRANCH  20  22
ENDBRANCH  18  20
ENDBRANCH  17  18
ENDBRANCH  16  17
ENDBRANCH   1  16
TORSDOF 7
ENDMDL
