MODEL 1
REMARK VINA RESULT:     -11.1      0.000      0.000
REMARK  Name = 10182969
REMARK  5 active torsions:
REMARK  status: ('A' for Active; 'I' for Inactive)
REMARK    1  A    between atoms: N_2  and  C_11
REMARK    2  A    between atoms: N_3  and  C_24
REMARK    3  A    between atoms: C_10  and  C_34
REMARK    4  A    between atoms: C_12  and  N_18
REMARK    5  A    between atoms: C_29  and  O_30
REMARK                            x       y       z     vdW  Elec       q    Type
REMARK                         _______ _______ _______ _____ _____    ______ ____
ROOT
ATOM      1  O   UNL     1      31.686 -21.756 -17.308  0.00  0.00    -0.268 OA
ATOM      2  N   UNL     1      34.014 -21.853 -17.672  0.00  0.00    -0.254 N 
ATOM      3  N   UNL     1      32.062 -23.421 -14.921  0.00  0.00    -0.225 N 
ATOM      4  N   UNL     1      32.585 -24.101 -13.881  0.00  0.00    -0.161 NA
ATOM      5  C   UNL     1      35.483 -22.841 -15.850  0.00  0.00    +0.052 C 
ATOM      6  C   UNL     1      35.255 -22.618 -17.355  0.00  0.00    +0.103 C 
ATOM      7  C   UNL     1      34.215 -23.252 -15.224  0.00  0.00    +0.026 A 
ATOM      8  C   UNL     1      33.001 -22.898 -15.761  0.00  0.00    +0.134 A 
ATOM      9  C   UNL     1      32.806 -22.118 -16.961  0.00  0.00    +0.270 C 
ATOM     10  C   UNL     1      33.904 -23.991 -14.071  0.00  0.00    +0.152 A 
ENDROOT
BRANCH   2  11
ATOM     11  C   UNL     1      34.025 -20.993 -18.829  0.00  0.00    +0.054 C 
ATOM     12  C   UNL     1      34.044 -19.333 -21.064  0.00  0.00    +0.054 C 
ATOM     13  C   UNL     1      32.822 -20.593 -19.403  0.00  0.00    +0.016 C 
ATOM     14  C   UNL     1      35.237 -20.568 -19.363  0.00  0.00    +0.016 C 
ATOM     15  C   UNL     1      32.831 -19.761 -20.523  0.00  0.00    +0.016 C 
ATOM     16  C   UNL     1      35.247 -19.737 -20.483  0.00  0.00    +0.016 C 
BRANCH  12  18
ATOM     17  O   UNL     1      34.753 -16.543 -21.078  0.00  0.00    -0.275 OA
ATOM     18  N   UNL     1      34.055 -18.471 -22.224  0.00  0.00    -0.259 N 
ATOM     19  C   UNL     1      33.386 -18.963 -23.440  0.00  0.00    +0.098 C 
ATOM     20  C   UNL     1      33.872 -18.315 -24.726  0.00  0.00    +0.022 C 
ATOM     21  C   UNL     1      33.836 -16.811 -24.570  0.00  0.00    +0.011 C 
ATOM     22  C   UNL     1      34.763 -16.418 -23.440  0.00  0.00    +0.086 C 
ATOM     23  C   UNL     1      34.502 -17.141 -22.129  0.00  0.00    +0.229 C 
ENDBRANCH  12  18
ENDBRANCH   2  11
BRANCH   3  24
ATOM     24  C   UNL     1      30.676 -23.328 -15.045  0.00  0.00    +0.083 C 
ATOM     25  C   UNL     1      29.964 -24.385 -15.597  0.00  0.00    +0.022 C 
ATOM     26  C   UNL     1      30.024 -22.178 -14.618  0.00  0.00    +0.022 C 
ATOM     27  C   UNL     1      28.578 -24.291 -15.723  0.00  0.00    +0.038 C 
ATOM     28  C   UNL     1      28.638 -22.084 -14.744  0.00  0.00    +0.038 C 
ATOM     29  C   UNL     1      27.915 -23.141 -15.297  0.00  0.00    +0.139 C 
BRANCH  29  30
ATOM     30  O   UNL     1      26.563 -23.049 -15.420  0.00  0.00    -0.471 OA
ATOM     31  C   UNL     1      26.026 -21.772 -15.762  0.00  0.00    +0.252 C 
ENDBRANCH  29  30
ENDBRANCH   3  24
BRANCH  10  34
ATOM     32  O   UNL     1      34.824 -24.321 -11.919  0.00  0.00    -0.269 OA
ATOM     33  N   UNL     1      35.702 -25.551 -13.625  0.00  0.00    -0.324 N 
ATOM     34  C   UNL     1      34.810 -24.594 -13.137  0.00  0.00    +0.262 C 
ATOM     35  H   UNL     1      36.339 -25.986 -13.014  0.00  0.00    +0.145 HD
ATOM     36  H   UNL     1      35.693 -25.790 -14.580  0.00  0.00    +0.145 HD
ENDBRANCH  10  34
TORSDOF 5
ENDMDL
MODEL 2
REMARK VINA RESULT:     -10.6      1.405      1.916
REMARK  Name = 10182969
REMARK  5 active torsions:
REMARK  status: ('A' for Active; 'I' for Inactive)
REMARK    1  A    between atoms: N_2  and  C_11
REMARK    2  A    between atoms: N_3  and  C_24
REMARK    3  A    between atoms: C_10  and  C_34
REMARK    4  A    between atoms: C_12  and  N_18
REMARK    5  A    between atoms: C_29  and  O_30
REMARK                            x       y       z     vdW  Elec       q    Type
REMARK                         _______ _______ _______ _____ _____    ______ ____
ROOT
ATOM      1  O   UNL     1      33.133 -21.957 -16.795  0.00  0.00    -0.268 OA
ATOM      2  N   UNL     1      35.391 -21.640 -17.399  0.00  0.00    -0.254 N 
ATOM      3  N   UNL     1      34.050 -23.374 -14.394  0.00  0.00    -0.225 N 
ATOM      4  N   UNL     1      34.791 -23.880 -13.388  0.00  0.00    -0.161 NA
ATOM      5  C   UNL     1      37.190 -22.223 -15.704  0.00  0.00    +0.052 C 
ATOM      6  C   UNL     1      36.780 -22.139 -17.184  0.00  0.00    +0.103 C 
ATOM      7  C   UNL     1      36.091 -22.825 -14.931  0.00  0.00    +0.026 A 
ATOM      8  C   UNL     1      34.786 -22.737 -15.350  0.00  0.00    +0.134 A 
ATOM      9  C   UNL     1      34.330 -22.081 -16.553  0.00  0.00    +0.270 C 
ATOM     10  C   UNL     1      36.040 -23.538 -13.721  0.00  0.00    +0.152 A 
ENDROOT
BRANCH   2  11
ATOM     11  C   UNL     1      35.125 -20.865 -18.585  0.00  0.00    +0.054 C 
ATOM     12  C   UNL     1      34.610 -19.370 -20.877  0.00  0.00    +0.054 C 
ATOM     13  C   UNL     1      33.833 -20.815 -19.102  0.00  0.00    +0.016 C 
ATOM     14  C   UNL     1      36.160 -20.172 -19.205  0.00  0.00    +0.016 C 
ATOM     15  C   UNL     1      33.575 -20.065 -20.250  0.00  0.00    +0.016 C 
ATOM     16  C   UNL     1      35.903 -19.423 -20.354  0.00  0.00    +0.016 C 
BRANCH  12  18
ATOM     17  O   UNL     1      34.823 -16.508 -21.098  0.00  0.00    -0.275 OA
ATOM     18  N   UNL     1      34.344 -18.593 -22.066  0.00  0.00    -0.259 N 
ATOM     19  C   UNL     1      33.637 -19.264 -23.171  0.00  0.00    +0.098 C 
ATOM     20  C   UNL     1      33.859 -18.627 -24.533  0.00  0.00    +0.022 C 
ATOM     21  C   UNL     1      33.584 -17.144 -24.438  0.00  0.00    +0.011 C 
ATOM     22  C   UNL     1      34.549 -16.532 -23.447  0.00  0.00    +0.086 C 
ATOM     23  C   UNL     1      34.563 -17.204 -22.083  0.00  0.00    +0.229 C 
ENDBRANCH  12  18
ENDBRANCH   2  11
BRANCH   3  24
ATOM     24  C   UNL     1      32.666 -23.549 -14.375  0.00  0.00    +0.083 C 
ATOM     25  C   UNL     1      31.834 -22.437 -14.395  0.00  0.00    +0.022 C 
ATOM     26  C   UNL     1      32.137 -24.833 -14.334  0.00  0.00    +0.022 C 
ATOM     27  C   UNL     1      30.450 -22.612 -14.374  0.00  0.00    +0.038 C 
ATOM     28  C   UNL     1      30.753 -25.008 -14.314  0.00  0.00    +0.038 C 
ATOM     29  C   UNL     1      29.910 -23.896 -14.333  0.00  0.00    +0.139 C 
BRANCH  29  30
ATOM     30  O   UNL     1      28.559 -24.067 -14.314  0.00  0.00    -0.471 OA
ATOM     31  C   UNL     1      27.831 -23.619 -15.456  0.00  0.00    +0.252 C 
ENDBRANCH  29  30
ENDBRANCH   3  24
BRANCH  10  34
ATOM     32  O   UNL     1      37.747 -23.085 -12.150  0.00  0.00    -0.269 OA
ATOM     33  N   UNL     1      37.496 -25.250 -12.820  0.00  0.00    -0.324 N 
ATOM     34  C   UNL     1      37.131 -23.903 -12.864  0.00  0.00    +0.262 C 
ATOM     35  H   UNL     1      38.240 -25.538 -12.244  0.00  0.00    +0.145 HD
ATOM     36  H   UNL     1      37.010 -25.910 -13.365  0.00  0.00    +0.145 HD
ENDBRANCH  10  34
TORSDOF 5
ENDMDL
MODEL 3
REMARK VINA RESULT:     -10.4      9.398     16.212
REMARK  Name = 10182969
REMARK  5 active torsions:
REMARK  status: ('A' for Active; 'I' for Inactive)
REMARK    1  A    between atoms: N_2  and  C_11
REMARK    2  A    between atoms: N_3  and  C_24
REMARK    3  A    between atoms: C_10  and  C_34
REMARK    4  A    between atoms: C_12  and  N_18
REMARK    5  A    between atoms: C_29  and  O_30
REMARK                            x       y       z     vdW  Elec       q    Type
REMARK                         _______ _______ _______ _____ _____    ______ ____
ROOT
ATOM      1  O   UNL     1      33.139  -8.535 -24.227  0.00  0.00    -0.268 OA
ATOM      2  N   UNL     1      31.911  -9.310 -22.367  0.00  0.00    -0.254 N 
ATOM      3  N   UNL     1      32.103  -5.840 -23.696  0.00  0.00    -0.225 N 
ATOM      4  N   UNL     1      31.528  -4.757 -23.137  0.00  0.00    -0.161 NA
ATOM      5  C   UNL     1      30.828  -7.598 -20.835  0.00  0.00    +0.052 C 
ATOM      6  C   UNL     1      30.766  -9.002 -21.462  0.00  0.00    +0.103 C 
ATOM      7  C   UNL     1      31.198  -6.620 -21.871  0.00  0.00    +0.026 A 
ATOM      8  C   UNL     1      31.926  -6.987 -22.977  0.00  0.00    +0.134 A 
ATOM      9  C   UNL     1      32.401  -8.319 -23.269  0.00  0.00    +0.270 C 
ATOM     10  C   UNL     1      30.978  -5.241 -22.019  0.00  0.00    +0.152 A 
ENDROOT
BRANCH   2  11
ATOM     11  C   UNL     1      32.371 -10.674 -22.438  0.00  0.00    +0.054 C 
ATOM     12  C   UNL     1      33.261 -13.309 -22.572  0.00  0.00    +0.054 C 
ATOM     13  C   UNL     1      31.944 -11.597 -21.488  0.00  0.00    +0.016 C 
ATOM     14  C   UNL     1      33.240 -11.059 -23.454  0.00  0.00    +0.016 C 
ATOM     15  C   UNL     1      32.390 -12.918 -21.555  0.00  0.00    +0.016 C 
ATOM     16  C   UNL     1      33.687 -12.378 -23.521  0.00  0.00    +0.016 C 
BRANCH  12  18
ATOM     17  O   UNL     1      34.281 -14.854 -20.368  0.00  0.00    -0.275 OA
ATOM     18  N   UNL     1      33.724 -14.676 -22.643  0.00  0.00    -0.259 N 
ATOM     19  C   UNL     1      33.967 -15.242 -23.981  0.00  0.00    +0.098 C 
ATOM     20  C   UNL     1      33.915 -16.760 -24.036  0.00  0.00    +0.022 C 
ATOM     21  C   UNL     1      34.809 -17.327 -22.957  0.00  0.00    +0.011 C 
ATOM     22  C   UNL     1      34.298 -16.867 -21.610  0.00  0.00    +0.086 C 
ATOM     23  C   UNL     1      34.123 -15.363 -21.481  0.00  0.00    +0.229 C 
ENDBRANCH  12  18
ENDBRANCH   2  11
BRANCH   3  24
ATOM     24  C   UNL     1      32.783  -5.703 -24.906  0.00  0.00    +0.083 C 
ATOM     25  C   UNL     1      32.097  -5.870 -26.102  0.00  0.00    +0.022 C 
ATOM     26  C   UNL     1      34.139  -5.400 -24.901  0.00  0.00    +0.022 C 
ATOM     27  C   UNL     1      32.777  -5.735 -27.312  0.00  0.00    +0.038 C 
ATOM     28  C   UNL     1      34.819  -5.264 -26.111  0.00  0.00    +0.038 C 
ATOM     29  C   UNL     1      34.137  -5.431 -27.317  0.00  0.00    +0.139 C 
BRANCH  29  30
ATOM     30  O   UNL     1      34.802  -5.298 -28.497  0.00  0.00    -0.471 OA
ATOM     31  C   UNL     1      34.020  -5.329 -29.690  0.00  0.00    +0.252 C 
ENDBRANCH  29  30
ENDBRANCH   3  24
BRANCH  10  34
ATOM     32  O   UNL     1      30.041  -4.626 -19.937  0.00  0.00    -0.269 OA
ATOM     33  N   UNL     1      29.841  -3.134 -21.649  0.00  0.00    -0.324 N 
ATOM     34  C   UNL     1      30.270  -4.360 -21.135  0.00  0.00    +0.262 C 
ATOM     35  H   UNL     1      29.352  -2.504 -21.073  0.00  0.00    +0.145 HD
ATOM     36  H   UNL     1      30.028  -2.902 -22.587  0.00  0.00    +0.145 HD
ENDBRANCH  10  34
TORSDOF 5
ENDMDL
MODEL 4
REMARK VINA RESULT:     -10.4      9.611     16.521
REMARK  Name = 10182969
REMARK  5 active torsions:
REMARK  status: ('A' for Active; 'I' for Inactive)
REMARK    1  A    between atoms: N_2  and  C_11
REMARK    2  A    between atoms: N_3  and  C_24
REMARK    3  A    between atoms: C_10  and  C_34
REMARK    4  A    between atoms: C_12  and  N_18
REMARK    5  A    between atoms: C_29  and  O_30
REMARK                            x       y       z     vdW  Elec       q    Type
REMARK                         _______ _______ _______ _____ _____    ______ ____
ROOT
ATOM      1  O   UNL     1      33.196  -8.292 -24.419  0.00  0.00    -0.268 OA
ATOM      2  N   UNL     1      31.900  -9.089 -22.616  0.00  0.00    -0.254 N 
ATOM      3  N   UNL     1      32.213  -5.588 -23.835  0.00  0.00    -0.225 N 
ATOM      4  N   UNL     1      31.650  -4.508 -23.260  0.00  0.00    -0.161 NA
ATOM      5  C   UNL     1      30.818  -7.396 -21.062  0.00  0.00    +0.052 C 
ATOM      6  C   UNL     1      30.739  -8.778 -21.733  0.00  0.00    +0.103 C 
ATOM      7  C   UNL     1      31.240  -6.398 -22.059  0.00  0.00    +0.026 A 
ATOM      8  C   UNL     1      31.989  -6.750 -23.155  0.00  0.00    +0.134 A 
ATOM      9  C   UNL     1      32.439  -8.085 -23.475  0.00  0.00    +0.270 C 
ATOM     10  C   UNL     1      31.058  -5.009 -22.171  0.00  0.00    +0.152 A 
ENDROOT
BRANCH   2  11
ATOM     11  C   UNL     1      32.329 -10.462 -22.715  0.00  0.00    +0.054 C 
ATOM     12  C   UNL     1      33.155 -13.113 -22.908  0.00  0.00    +0.054 C 
ATOM     13  C   UNL     1      33.319 -10.812 -23.629  0.00  0.00    +0.016 C 
ATOM     14  C   UNL     1      31.750 -11.427 -21.896  0.00  0.00    +0.016 C 
ATOM     15  C   UNL     1      33.733 -12.141 -23.726  0.00  0.00    +0.016 C 
ATOM     16  C   UNL     1      32.164 -12.756 -21.994  0.00  0.00    +0.016 C 
BRANCH  12  18
ATOM     17  O   UNL     1      32.790 -14.826 -25.192  0.00  0.00    -0.275 OA
ATOM     18  N   UNL     1      33.584 -14.490 -23.008  0.00  0.00    -0.259 N 
ATOM     19  C   UNL     1      33.980 -15.169 -21.762  0.00  0.00    +0.098 C 
ATOM     20  C   UNL     1      34.901 -16.361 -21.966  0.00  0.00    +0.022 C 
ATOM     21  C   UNL     1      34.300 -17.282 -23.003  0.00  0.00    +0.011 C 
ATOM     22  C   UNL     1      34.175 -16.528 -24.309  0.00  0.00    +0.086 C 
ATOM     23  C   UNL     1      33.428 -15.208 -24.207  0.00  0.00    +0.229 C 
ENDBRANCH  12  18
ENDBRANCH   2  11
BRANCH   3  24
ATOM     24  C   UNL     1      32.929  -5.432 -25.022  0.00  0.00    +0.083 C 
ATOM     25  C   UNL     1      34.257  -5.028 -24.975  0.00  0.00    +0.022 C 
ATOM     26  C   UNL     1      32.304  -5.682 -26.238  0.00  0.00    +0.022 C 
ATOM     27  C   UNL     1      34.972  -4.871 -26.162  0.00  0.00    +0.038 C 
ATOM     28  C   UNL     1      33.019  -5.525 -27.425  0.00  0.00    +0.038 C 
ATOM     29  C   UNL     1      34.354  -5.119 -27.386  0.00  0.00    +0.139 C 
BRANCH  29  30
ATOM     30  O   UNL     1      35.052  -4.966 -28.545  0.00  0.00    -0.471 OA
ATOM     31  C   UNL     1      36.471  -5.090 -28.470  0.00  0.00    +0.252 C 
ENDBRANCH  29  30
ENDBRANCH   3  24
BRANCH  10  34
ATOM     32  O   UNL     1      30.054  -4.444 -20.107  0.00  0.00    -0.269 OA
ATOM     33  N   UNL     1      29.994  -2.873 -21.757  0.00  0.00    -0.324 N 
ATOM     34  C   UNL     1      30.348  -4.137 -21.280  0.00  0.00    +0.262 C 
ATOM     35  H   UNL     1      29.506  -2.247 -21.176  0.00  0.00    +0.145 HD
ATOM     36  H   UNL     1      30.233  -2.610 -22.675  0.00  0.00    +0.145 HD
ENDBRANCH  10  34
TORSDOF 5
ENDMDL
MODEL 5
REMARK VINA RESULT:      -8.4      1.966      2.775
REMARK  Name = 10182969
REMARK  5 active torsions:
REMARK  status: ('A' for Active; 'I' for Inactive)
REMARK    1  A    between atoms: N_2  and  C_11
REMARK    2  A    between atoms: N_3  and  C_24
REMARK    3  A    between atoms: C_10  and  C_34
REMARK    4  A    between atoms: C_12  and  N_18
REMARK    5  A    between atoms: C_29  and  O_30
REMARK                            x       y       z     vdW  Elec       q    Type
REMARK                         _______ _______ _______ _____ _____    ______ ____
ROOT
ATOM      1  O   UNL     1      33.023 -22.470 -15.730  0.00  0.00    -0.268 OA
ATOM      2  N   UNL     1      35.368 -22.257 -15.874  0.00  0.00    -0.254 N 
ATOM      3  N   UNL     1      33.375 -23.771 -13.122  0.00  0.00    -0.225 N 
ATOM      4  N   UNL     1      33.875 -24.238 -11.962  0.00  0.00    -0.161 NA
ATOM      5  C   UNL     1      36.760 -22.794 -13.818  0.00  0.00    +0.052 C 
ATOM      6  C   UNL     1      36.663 -22.784 -15.354  0.00  0.00    +0.103 C 
ATOM      7  C   UNL     1      35.503 -23.316 -13.257  0.00  0.00    +0.026 A 
ATOM      8  C   UNL     1      34.315 -23.214 -13.939  0.00  0.00    +0.134 A 
ATOM      9  C   UNL     1      34.140 -22.616 -15.242  0.00  0.00    +0.270 C 
ATOM     10  C   UNL     1      35.178 -23.955 -12.049  0.00  0.00    +0.152 A 
ENDROOT
BRANCH   2  11
ATOM     11  C   UNL     1      35.381 -21.546 -17.128  0.00  0.00    +0.054 C 
ATOM     12  C   UNL     1      35.404 -20.169 -19.548  0.00  0.00    +0.054 C 
ATOM     13  C   UNL     1      36.418 -20.662 -17.410  0.00  0.00    +0.016 C 
ATOM     14  C   UNL     1      34.356 -21.747 -18.047  0.00  0.00    +0.016 C 
ATOM     15  C   UNL     1      36.430 -19.972 -18.623  0.00  0.00    +0.016 C 
ATOM     16  C   UNL     1      34.367 -21.057 -19.259  0.00  0.00    +0.016 C 
BRANCH  12  18
ATOM     17  O   UNL     1      33.157 -19.848 -21.318  0.00  0.00    -0.275 OA
ATOM     18  N   UNL     1      35.415 -19.455 -20.805  0.00  0.00    -0.259 N 
ATOM     19  C   UNL     1      36.728 -19.105 -21.374  0.00  0.00    +0.098 C 
ATOM     20  C   UNL     1      36.695 -17.938 -22.347  0.00  0.00    +0.022 C 
ATOM     21  C   UNL     1      35.621 -18.185 -23.383  0.00  0.00    +0.011 C 
ATOM     22  C   UNL     1      34.284 -18.279 -22.683  0.00  0.00    +0.086 C 
ATOM     23  C   UNL     1      34.233 -19.289 -21.549  0.00  0.00    +0.229 C 
ENDBRANCH  12  18
ENDBRANCH   2  11
BRANCH   3  24
ATOM     24  C   UNL     1      32.010 -23.903 -13.378  0.00  0.00    +0.083 C 
ATOM     25  C   UNL     1      31.197 -22.776 -13.363  0.00  0.00    +0.022 C 
ATOM     26  C   UNL     1      31.479 -25.159 -13.643  0.00  0.00    +0.022 C 
ATOM     27  C   UNL     1      29.832 -22.908 -13.617  0.00  0.00    +0.038 C 
ATOM     28  C   UNL     1      30.114 -25.291 -13.898  0.00  0.00    +0.038 C 
ATOM     29  C   UNL     1      29.290 -24.164 -13.884  0.00  0.00    +0.139 C 
BRANCH  29  30
ATOM     30  O   UNL     1      27.958 -24.293 -14.133  0.00  0.00    -0.471 OA
ATOM     31  C   UNL     1      27.424 -23.540 -15.221  0.00  0.00    +0.252 C 
ENDBRANCH  29  30
ENDBRANCH   3  24
BRANCH  10  34
ATOM     32  O   UNL     1      37.007 -25.102 -11.085  0.00  0.00    -0.269 OA
ATOM     33  N   UNL     1      35.838 -23.686  -9.735  0.00  0.00    -0.324 N 
ATOM     34  C   UNL     1      36.056 -24.301 -10.969  0.00  0.00    +0.262 C 
ATOM     35  H   UNL     1      36.420 -23.899  -8.970  0.00  0.00    +0.145 HD
ATOM     36  H   UNL     1      35.103 -23.040  -9.630  0.00  0.00    +0.145 HD
ENDBRANCH  10  34
TORSDOF 5
ENDMDL
