MODEL 1
REMARK VINA RESULT:     -12.4      0.000      0.000
REMARK  Name = 447476
REMARK  4 active torsions:
REMARK  status: ('A' for Active; 'I' for Inactive)
REMARK    1  A    between atoms: C_2  and  C_17
REMARK    2  A    between atoms: C_8  and  C_13
REMARK    3  A    between atoms: C_18  and  O_29
REMARK    4  A    between atoms: C_19  and  C_23
REMARK                            x       y       z     vdW  Elec       q    Type
REMARK                         _______ _______ _______ _____ _____    ______ ____
ROOT
ATOM      1  N   UNL     1      32.865 -13.369 -23.270  0.00  0.00    -0.312 N 
ATOM      2  C   UNL     1      32.747 -12.725 -22.068  0.00  0.00    +0.051 C 
ATOM      3  C   UNL     1      33.831 -14.683 -21.747  0.00  0.00    +0.015 C 
ATOM      4  C   UNL     1      33.523 -14.568 -23.104  0.00  0.00    +0.048 C 
ATOM      5  C   UNL     1      33.336 -13.512 -21.105  0.00  0.00    +0.016 C 
ATOM      6  C   UNL     1      34.516 -15.831 -21.302  0.00  0.00    +0.004 C 
ATOM      7  C   UNL     1      33.864 -15.548 -24.042  0.00  0.00    +0.015 C 
ATOM      8  C   UNL     1      34.864 -16.820 -22.229  0.00  0.00    +0.031 C 
ATOM      9  C   UNL     1      34.542 -16.679 -23.576  0.00  0.00    +0.004 C 
ATOM     10  H   UNL     1      32.527 -13.026 -24.129  0.00  0.00    +0.152 HD
ENDROOT
BRANCH   8  13
ATOM     11  N   UNL     1      34.883 -19.168 -21.418  0.00  0.00    -0.343 N 
ATOM     12  N   UNL     1      36.888 -18.001 -21.696  0.00  0.00    -0.285 NA
ATOM     13  C   UNL     1      35.570 -18.009 -21.777  0.00  0.00    +0.117 C 
ATOM     14  H   UNL     1      35.379 -19.961 -21.114  0.00  0.00    +0.144 HD
ATOM     15  H   UNL     1      33.899 -19.192 -21.469  0.00  0.00    +0.144 HD
ATOM     16  H   UNL     1      37.368 -18.804 -21.389  0.00  0.00    +0.188 HD
ENDBRANCH   8  13
BRANCH   2  17
ATOM     17  C   UNL     1      32.098 -11.442 -21.948  0.00  0.00    +0.047 C 
ATOM     18  C   UNL     1      32.525 -10.345 -22.699  0.00  0.00    +0.135 C 
ATOM     19  C   UNL     1      31.882  -9.114 -22.566  0.00  0.00    +0.034 C 
ATOM     20  C   UNL     1      31.026 -11.304 -21.064  0.00  0.00    +0.004 C 
ATOM     21  C   UNL     1      30.811  -8.979 -21.684  0.00  0.00    +0.003 C 
ATOM     22  C   UNL     1      30.383 -10.073 -20.933  0.00  0.00    +0.000 C 
BRANCH  19  23
ATOM     23  C   UNL     1      32.309  -7.963 -23.337  0.00  0.00    +0.003 C 
ATOM     24  C   UNL     1      31.465  -7.428 -24.310  0.00  0.00    +0.000 C 
ATOM     25  C   UNL     1      33.559  -7.394 -23.103  0.00  0.00    +0.000 C 
ATOM     26  C   UNL     1      31.874  -6.319 -25.051  0.00  0.00    +0.000 C 
ATOM     27  C   UNL     1      33.968  -6.286 -23.846  0.00  0.00    +0.000 C 
ATOM     28  C   UNL     1      33.125  -5.749 -24.819  0.00  0.00    +0.000 C 
ENDBRANCH  19  23
BRANCH  18  29
ATOM     29  O   UNL     1      33.574 -10.479 -23.565  0.00  0.00    -0.505 OA
ATOM     30  H   UNL     1      33.417 -10.691 -24.464  0.00  0.00    +0.292 HD
ENDBRANCH  18  29
ENDBRANCH   2  17
TORSDOF 4
ENDMDL
MODEL 2
REMARK VINA RESULT:     -11.9      2.725      8.918
REMARK  Name = 447476
REMARK  4 active torsions:
REMARK  status: ('A' for Active; 'I' for Inactive)
REMARK    1  A    between atoms: C_2  and  C_17
REMARK    2  A    between atoms: C_8  and  C_13
REMARK    3  A    between atoms: C_18  and  O_29
REMARK    4  A    between atoms: C_19  and  C_23
REMARK                            x       y       z     vdW  Elec       q    Type
REMARK                         _______ _______ _______ _____ _____    ______ ____
ROOT
ATOM      1  N   UNL     1      32.242 -13.114 -21.837  0.00  0.00    -0.312 N 
ATOM      2  C   UNL     1      32.926 -13.318 -23.005  0.00  0.00    +0.051 C 
ATOM      3  C   UNL     1      32.482 -11.111 -22.790  0.00  0.00    +0.015 C 
ATOM      4  C   UNL     1      31.957 -11.776 -21.679  0.00  0.00    +0.048 C 
ATOM      5  C   UNL     1      33.090 -12.096 -23.618  0.00  0.00    +0.016 C 
ATOM      6  C   UNL     1      32.329  -9.713 -22.879  0.00  0.00    +0.004 C 
ATOM      7  C   UNL     1      31.283 -11.111 -20.650  0.00  0.00    +0.015 C 
ATOM      8  C   UNL     1      31.656  -9.034 -21.856  0.00  0.00    +0.031 C 
ATOM      9  C   UNL     1      31.142  -9.724 -20.760  0.00  0.00    +0.004 C 
ATOM     10  H   UNL     1      31.989 -13.822 -21.201  0.00  0.00    +0.152 HD
ENDROOT
BRANCH   8  13
ATOM     11  N   UNL     1      32.195  -6.732 -21.098  0.00  0.00    -0.343 N 
ATOM     12  N   UNL     1      30.661  -7.074 -22.827  0.00  0.00    -0.285 NA
ATOM     13  C   UNL     1      31.492  -7.591 -21.941  0.00  0.00    +0.117 C 
ATOM     14  H   UNL     1      32.069  -5.759 -21.171  0.00  0.00    +0.144 HD
ATOM     15  H   UNL     1      32.817  -7.099 -20.429  0.00  0.00    +0.144 HD
ATOM     16  H   UNL     1      30.548  -6.098 -22.886  0.00  0.00    +0.188 HD
ENDBRANCH   8  13
BRANCH   2  17
ATOM     17  C   UNL     1      33.353 -14.630 -23.423  0.00  0.00    +0.047 C 
ATOM     18  C   UNL     1      33.876 -15.544 -22.505  0.00  0.00    +0.135 C 
ATOM     19  C   UNL     1      34.283 -16.808 -22.933  0.00  0.00    +0.034 C 
ATOM     20  C   UNL     1      33.238 -14.986 -24.768  0.00  0.00    +0.004 C 
ATOM     21  C   UNL     1      34.166 -17.161 -24.277  0.00  0.00    +0.003 C 
ATOM     22  C   UNL     1      33.644 -16.250 -25.194  0.00  0.00    +0.000 C 
BRANCH  19  23
ATOM     23  C   UNL     1      34.827 -17.773 -21.997  0.00  0.00    +0.003 C 
ATOM     24  C   UNL     1      33.997 -18.742 -21.438  0.00  0.00    +0.000 C 
ATOM     25  C   UNL     1      36.179 -17.728 -21.660  0.00  0.00    +0.000 C 
ATOM     26  C   UNL     1      34.520 -19.672 -20.538  0.00  0.00    +0.000 C 
ATOM     27  C   UNL     1      36.701 -18.656 -20.759  0.00  0.00    +0.000 C 
ATOM     28  C   UNL     1      35.872 -19.628 -20.200  0.00  0.00    +0.000 C 
ENDBRANCH  19  23
BRANCH  18  29
ATOM     29  O   UNL     1      33.989 -15.199 -21.188  0.00  0.00    -0.505 OA
ATOM     30  H   UNL     1      33.650 -14.379 -20.887  0.00  0.00    +0.292 HD
ENDBRANCH  18  29
ENDBRANCH   2  17
TORSDOF 4
ENDMDL
MODEL 3
REMARK VINA RESULT:     -11.8      7.462     12.887
REMARK  Name = 447476
REMARK  4 active torsions:
REMARK  status: ('A' for Active; 'I' for Inactive)
REMARK    1  A    between atoms: C_2  and  C_17
REMARK    2  A    between atoms: C_8  and  C_13
REMARK    3  A    between atoms: C_18  and  O_29
REMARK    4  A    between atoms: C_19  and  C_23
REMARK                            x       y       z     vdW  Elec       q    Type
REMARK                         _______ _______ _______ _____ _____    ______ ____
ROOT
ATOM      1  N   UNL     1      35.310 -20.534 -19.104  0.00  0.00    -0.312 N 
ATOM      2  C   UNL     1      34.068 -21.039 -18.826  0.00  0.00    +0.051 C 
ATOM      3  C   UNL     1      33.933 -19.729 -20.664  0.00  0.00    +0.015 C 
ATOM      4  C   UNL     1      35.257 -19.730 -20.221  0.00  0.00    +0.048 C 
ATOM      5  C   UNL     1      33.194 -20.559 -19.774  0.00  0.00    +0.016 C 
ATOM      6  C   UNL     1      33.601 -18.977 -21.808  0.00  0.00    +0.004 C 
ATOM      7  C   UNL     1      36.270 -19.013 -20.866  0.00  0.00    +0.015 C 
ATOM      8  C   UNL     1      34.604 -18.253 -22.464  0.00  0.00    +0.031 C 
ATOM      9  C   UNL     1      35.916 -18.272 -21.998  0.00  0.00    +0.004 C 
ATOM     10  H   UNL     1      36.123 -20.718 -18.580  0.00  0.00    +0.152 HD
ENDROOT
BRANCH   8  13
ATOM     11  N   UNL     1      34.670 -16.145 -23.774  0.00  0.00    -0.343 N 
ATOM     12  N   UNL     1      33.566 -18.023 -24.619  0.00  0.00    -0.285 NA
ATOM     13  C   UNL     1      34.269 -17.473 -23.645  0.00  0.00    +0.117 C 
ATOM     14  H   UNL     1      34.432 -15.634 -24.581  0.00  0.00    +0.144 HD
ATOM     15  H   UNL     1      35.192 -15.717 -23.056  0.00  0.00    +0.144 HD
ATOM     16  H   UNL     1      33.338 -17.497 -25.419  0.00  0.00    +0.188 HD
ENDBRANCH   8  13
BRANCH   2  17
ATOM     17  C   UNL     1      33.832 -21.915 -17.705  0.00  0.00    +0.047 C 
ATOM     18  C   UNL     1      34.857 -22.235 -16.811  0.00  0.00    +0.135 C 
ATOM     19  C   UNL     1      34.605 -23.085 -15.735  0.00  0.00    +0.034 C 
ATOM     20  C   UNL     1      32.555 -22.449 -17.517  0.00  0.00    +0.004 C 
ATOM     21  C   UNL     1      33.328 -23.616 -15.548  0.00  0.00    +0.003 C 
ATOM     22  C   UNL     1      32.304 -23.297 -16.440  0.00  0.00    +0.000 C 
BRANCH  19  23
ATOM     23  C   UNL     1      35.653 -23.429 -14.795  0.00  0.00    +0.003 C 
ATOM     24  C   UNL     1      35.973 -22.552 -13.759  0.00  0.00    +0.000 C 
ATOM     25  C   UNL     1      36.339 -24.636 -14.928  0.00  0.00    +0.000 C 
ATOM     26  C   UNL     1      36.981 -22.883 -12.854  0.00  0.00    +0.000 C 
ATOM     27  C   UNL     1      37.347 -24.965 -14.023  0.00  0.00    +0.000 C 
ATOM     28  C   UNL     1      37.668 -24.089 -12.986  0.00  0.00    +0.000 C 
ENDBRANCH  19  23
BRANCH  18  29
ATOM     29  O   UNL     1      36.106 -21.714 -16.993  0.00  0.00    -0.505 OA
ATOM     30  H   UNL     1      36.377 -20.961 -16.505  0.00  0.00    +0.292 HD
ENDBRANCH  18  29
ENDBRANCH   2  17
TORSDOF 4
ENDMDL
MODEL 4
REMARK VINA RESULT:     -11.0      7.178     11.270
REMARK  Name = 447476
REMARK  4 active torsions:
REMARK  status: ('A' for Active; 'I' for Inactive)
REMARK    1  A    between atoms: C_2  and  C_17
REMARK    2  A    between atoms: C_8  and  C_13
REMARK    3  A    between atoms: C_18  and  O_29
REMARK    4  A    between atoms: C_19  and  C_23
REMARK                            x       y       z     vdW  Elec       q    Type
REMARK                         _______ _______ _______ _____ _____    ______ ____
ROOT
ATOM      1  N   UNL     1      31.745 -21.661 -17.925  0.00  0.00    -0.312 N 
ATOM      2  C   UNL     1      33.078 -21.887 -17.712  0.00  0.00    +0.051 C 
ATOM      3  C   UNL     1      31.886 -22.986 -16.136  0.00  0.00    +0.015 C 
ATOM      4  C   UNL     1      30.993 -22.320 -16.977  0.00  0.00    +0.048 C 
ATOM      5  C   UNL     1      33.198 -22.704 -16.611  0.00  0.00    +0.016 C 
ATOM      6  C   UNL     1      31.372 -23.749 -15.068  0.00  0.00    +0.004 C 
ATOM      7  C   UNL     1      29.606 -22.376 -16.803  0.00  0.00    +0.015 C 
ATOM      8  C   UNL     1      29.987 -23.814 -14.881  0.00  0.00    +0.031 C 
ATOM      9  C   UNL     1      29.119 -23.138 -15.736  0.00  0.00    +0.004 C 
ATOM     10  H   UNL     1      31.376 -21.107 -18.650  0.00  0.00    +0.152 HD
ENDROOT
BRANCH   8  13
ATOM     11  N   UNL     1      28.332 -25.416 -13.951  0.00  0.00    -0.343 N 
ATOM     12  N   UNL     1      30.016 -24.538 -12.590  0.00  0.00    -0.285 NA
ATOM     13  C   UNL     1      29.448 -24.598 -13.780  0.00  0.00    +0.117 C 
ATOM     14  H   UNL     1      27.983 -25.937 -13.193  0.00  0.00    +0.144 HD
ATOM     15  H   UNL     1      27.893 -25.471 -14.831  0.00  0.00    +0.144 HD
ATOM     16  H   UNL     1      29.653 -25.067 -11.844  0.00  0.00    +0.188 HD
ENDBRANCH   8  13
BRANCH   2  17
ATOM     17  C   UNL     1      34.096 -21.316 -18.559  0.00  0.00    +0.047 C 
ATOM     18  C   UNL     1      33.765 -20.425 -19.583  0.00  0.00    +0.135 C 
ATOM     19  C   UNL     1      34.767 -19.885 -20.390  0.00  0.00    +0.034 C 
ATOM     20  C   UNL     1      35.431 -21.664 -18.346  0.00  0.00    +0.004 C 
ATOM     21  C   UNL     1      36.100 -20.234 -20.174  0.00  0.00    +0.003 C 
ATOM     22  C   UNL     1      36.432 -21.123 -19.152  0.00  0.00    +0.000 C 
BRANCH  19  23
ATOM     23  C   UNL     1      34.446 -18.959 -21.457  0.00  0.00    +0.003 C 
ATOM     24  C   UNL     1      34.736 -17.603 -21.309  0.00  0.00    +0.000 C 
ATOM     25  C   UNL     1      33.850 -19.425 -22.628  0.00  0.00    +0.000 C 
ATOM     26  C   UNL     1      34.428 -16.710 -22.337  0.00  0.00    +0.000 C 
ATOM     27  C   UNL     1      33.542 -18.531 -23.654  0.00  0.00    +0.000 C 
ATOM     28  C   UNL     1      33.832 -17.175 -23.508  0.00  0.00    +0.000 C 
ENDBRANCH  19  23
BRANCH  18  29
ATOM     29  O   UNL     1      32.459 -20.083 -19.793  0.00  0.00    -0.505 OA
ATOM     30  H   UNL     1      31.781 -20.492 -19.293  0.00  0.00    +0.292 HD
ENDBRANCH  18  29
ENDBRANCH   2  17
TORSDOF 4
ENDMDL
MODEL 5
REMARK VINA RESULT:     -10.9      4.361      7.991
REMARK  Name = 447476
REMARK  4 active torsions:
REMARK  status: ('A' for Active; 'I' for Inactive)
REMARK    1  A    between atoms: C_2  and  C_17
REMARK    2  A    between atoms: C_8  and  C_13
REMARK    3  A    between atoms: C_18  and  O_29
REMARK    4  A    between atoms: C_19  and  C_23
REMARK                            x       y       z     vdW  Elec       q    Type
REMARK                         _______ _______ _______ _____ _____    ______ ____
ROOT
ATOM      1  N   UNL     1      35.712 -19.871 -19.812  0.00  0.00    -0.312 N 
ATOM      2  C   UNL     1      34.527 -19.766 -20.489  0.00  0.00    +0.051 C 
ATOM      3  C   UNL     1      34.251 -21.170 -18.738  0.00  0.00    +0.015 C 
ATOM      4  C   UNL     1      35.574 -20.722 -18.738  0.00  0.00    +0.048 C 
ATOM      5  C   UNL     1      33.602 -20.559 -19.848  0.00  0.00    +0.016 C 
ATOM      6  C   UNL     1      33.837 -22.063 -17.729  0.00  0.00    +0.004 C 
ATOM      7  C   UNL     1      36.508 -21.124 -17.778  0.00  0.00    +0.015 C 
ATOM      8  C   UNL     1      34.761 -22.474 -16.761  0.00  0.00    +0.031 C 
ATOM      9  C   UNL     1      36.075 -22.012 -16.788  0.00  0.00    +0.004 C 
ATOM     10  H   UNL     1      36.544 -19.406 -20.058  0.00  0.00    +0.152 HD
ENDROOT
BRANCH   8  13
ATOM     11  N   UNL     1      33.105 -23.267 -15.089  0.00  0.00    -0.343 N 
ATOM     12  N   UNL     1      35.145 -24.377 -15.345  0.00  0.00    -0.285 NA
ATOM     13  C   UNL     1      34.342 -23.397 -15.717  0.00  0.00    +0.117 C 
ATOM     14  H   UNL     1      32.841 -23.901 -14.385  0.00  0.00    +0.144 HD
ATOM     15  H   UNL     1      32.494 -22.539 -15.352  0.00  0.00    +0.144 HD
ATOM     16  H   UNL     1      34.864 -25.002 -14.638  0.00  0.00    +0.188 HD
ENDBRANCH   8  13
BRANCH   2  17
ATOM     17  C   UNL     1      34.385 -18.937 -21.660  0.00  0.00    +0.047 C 
ATOM     18  C   UNL     1      34.262 -17.550 -21.551  0.00  0.00    +0.135 C 
ATOM     19  C   UNL     1      34.127 -16.769 -22.699  0.00  0.00    +0.034 C 
ATOM     20  C   UNL     1      34.371 -19.539 -22.920  0.00  0.00    +0.004 C 
ATOM     21  C   UNL     1      34.114 -17.372 -23.956  0.00  0.00    +0.003 C 
ATOM     22  C   UNL     1      34.236 -18.757 -24.067  0.00  0.00    +0.000 C 
BRANCH  19  23
ATOM     23  C   UNL     1      33.999 -15.328 -22.609  0.00  0.00    +0.003 C 
ATOM     24  C   UNL     1      33.869 -14.569 -23.771  0.00  0.00    +0.000 C 
ATOM     25  C   UNL     1      34.006 -14.705 -21.362  0.00  0.00    +0.000 C 
ATOM     26  C   UNL     1      33.745 -13.181 -23.686  0.00  0.00    +0.000 C 
ATOM     27  C   UNL     1      33.883 -13.318 -21.277  0.00  0.00    +0.000 C 
ATOM     28  C   UNL     1      33.752 -12.557 -22.439  0.00  0.00    +0.000 C 
ENDBRANCH  19  23
BRANCH  18  29
ATOM     29  O   UNL     1      34.276 -16.960 -20.319  0.00  0.00    -0.505 OA
ATOM     30  H   UNL     1      34.707 -17.381 -19.602  0.00  0.00    +0.292 HD
ENDBRANCH  18  29
ENDBRANCH   2  17
TORSDOF 4
ENDMDL
MODEL 6
REMARK VINA RESULT:     -10.8      7.494     12.565
REMARK  Name = 447476
REMARK  4 active torsions:
REMARK  status: ('A' for Active; 'I' for Inactive)
REMARK    1  A    between atoms: C_2  and  C_17
REMARK    2  A    between atoms: C_8  and  C_13
REMARK    3  A    between atoms: C_18  and  O_29
REMARK    4  A    between atoms: C_19  and  C_23
REMARK                            x       y       z     vdW  Elec       q    Type
REMARK                         _______ _______ _______ _____ _____    ______ ____
ROOT
ATOM      1  N   UNL     1      35.279 -20.510 -19.136  0.00  0.00    -0.312 N 
ATOM      2  C   UNL     1      34.039 -20.992 -18.810  0.00  0.00    +0.051 C 
ATOM      3  C   UNL     1      33.869 -19.739 -20.684  0.00  0.00    +0.015 C 
ATOM      4  C   UNL     1      35.205 -19.741 -20.276  0.00  0.00    +0.048 C 
ATOM      5  C   UNL     1      33.145 -20.533 -19.750  0.00  0.00    +0.016 C 
ATOM      6  C   UNL     1      33.515 -19.019 -21.843  0.00  0.00    +0.004 C 
ATOM      7  C   UNL     1      36.208 -19.055 -20.969  0.00  0.00    +0.015 C 
ATOM      8  C   UNL     1      34.508 -18.327 -22.546  0.00  0.00    +0.031 C 
ATOM      9  C   UNL     1      35.832 -18.346 -22.115  0.00  0.00    +0.004 C 
ATOM     10  H   UNL     1      36.103 -20.686 -18.628  0.00  0.00    +0.152 HD
ENDROOT
BRANCH   8  13
ATOM     11  N   UNL     1      34.566 -16.263 -23.926  0.00  0.00    -0.343 N 
ATOM     12  N   UNL     1      33.412 -18.150 -24.677  0.00  0.00    -0.285 NA
ATOM     13  C   UNL     1      34.149 -17.580 -23.742  0.00  0.00    +0.117 C 
ATOM     14  H   UNL     1      34.312 -15.775 -24.742  0.00  0.00    +0.144 HD
ATOM     15  H   UNL     1      35.114 -15.820 -23.237  0.00  0.00    +0.144 HD
ATOM     16  H   UNL     1      33.168 -17.647 -25.487  0.00  0.00    +0.188 HD
ENDBRANCH   8  13
BRANCH   2  17
ATOM     17  C   UNL     1      33.824 -21.831 -17.657  0.00  0.00    +0.047 C 
ATOM     18  C   UNL     1      32.535 -22.187 -17.255  0.00  0.00    +0.135 C 
ATOM     19  C   UNL     1      32.352 -22.999 -16.136  0.00  0.00    +0.034 C 
ATOM     20  C   UNL     1      34.928 -22.290 -16.935  0.00  0.00    +0.004 C 
ATOM     21  C   UNL     1      33.456 -23.457 -15.417  0.00  0.00    +0.003 C 
ATOM     22  C   UNL     1      34.744 -23.103 -15.817  0.00  0.00    +0.000 C 
BRANCH  19  23
ATOM     23  C   UNL     1      31.022 -23.382 -15.701  0.00  0.00    +0.003 C 
ATOM     24  C   UNL     1      30.857 -24.477 -14.854  0.00  0.00    +0.000 C 
ATOM     25  C   UNL     1      29.914 -22.655 -16.131  0.00  0.00    +0.000 C 
ATOM     26  C   UNL     1      29.579 -24.845 -14.435  0.00  0.00    +0.000 C 
ATOM     27  C   UNL     1      28.636 -23.024 -15.712  0.00  0.00    +0.000 C 
ATOM     28  C   UNL     1      28.469 -24.119 -14.864  0.00  0.00    +0.000 C 
ENDBRANCH  19  23
BRANCH  18  29
ATOM     29  O   UNL     1      31.453 -21.739 -17.959  0.00  0.00    -0.505 OA
ATOM     30  H   UNL     1      30.909 -22.347 -18.420  0.00  0.00    +0.292 HD
ENDBRANCH  18  29
ENDBRANCH   2  17
TORSDOF 4
ENDMDL
MODEL 7
REMARK VINA RESULT:     -10.8      8.481     13.940
REMARK  Name = 447476
REMARK  4 active torsions:
REMARK  status: ('A' for Active; 'I' for Inactive)
REMARK    1  A    between atoms: C_2  and  C_17
REMARK    2  A    between atoms: C_8  and  C_13
REMARK    3  A    between atoms: C_18  and  O_29
REMARK    4  A    between atoms: C_19  and  C_23
REMARK                            x       y       z     vdW  Elec       q    Type
REMARK                         _______ _______ _______ _____ _____    ______ ____
ROOT
ATOM      1  N   UNL     1      33.122 -21.458 -18.489  0.00  0.00    -0.312 N 
ATOM      2  C   UNL     1      34.114 -21.821 -17.618  0.00  0.00    +0.051 C 
ATOM      3  C   UNL     1      35.000 -20.511 -19.235  0.00  0.00    +0.015 C 
ATOM      4  C   UNL     1      33.634 -20.657 -19.486  0.00  0.00    +0.048 C 
ATOM      5  C   UNL     1      35.289 -21.250 -18.053  0.00  0.00    +0.016 C 
ATOM      6  C   UNL     1      35.771 -19.727 -20.115  0.00  0.00    +0.004 C 
ATOM      7  C   UNL     1      32.998 -20.059 -20.580  0.00  0.00    +0.015 C 
ATOM      8  C   UNL     1      35.149 -19.122 -21.214  0.00  0.00    +0.031 C 
ATOM      9  C   UNL     1      33.785 -19.287 -21.441  0.00  0.00    +0.004 C 
ATOM     10  H   UNL     1      32.179 -21.730 -18.413  0.00  0.00    +0.152 HD
ENDROOT
BRANCH   8  13
ATOM     11  N   UNL     1      37.320 -18.195 -21.983  0.00  0.00    -0.343 N 
ATOM     12  N   UNL     1      35.346 -17.668 -23.117  0.00  0.00    -0.285 NA
ATOM     13  C   UNL     1      35.939 -18.312 -22.129  0.00  0.00    +0.117 C 
ATOM     14  H   UNL     1      37.836 -17.641 -22.612  0.00  0.00    +0.144 HD
ATOM     15  H   UNL     1      37.780 -18.666 -21.250  0.00  0.00    +0.144 HD
ATOM     16  H   UNL     1      35.878 -17.119 -23.736  0.00  0.00    +0.188 HD
ENDBRANCH   8  13
BRANCH   2  17
ATOM     17  C   UNL     1      33.859 -22.661 -16.475  0.00  0.00    +0.047 C 
ATOM     18  C   UNL     1      34.907 -23.175 -15.708  0.00  0.00    +0.135 C 
ATOM     19  C   UNL     1      34.635 -23.985 -14.606  0.00  0.00    +0.034 C 
ATOM     20  C   UNL     1      32.538 -22.962 -16.135  0.00  0.00    +0.004 C 
ATOM     21  C   UNL     1      33.315 -24.284 -14.268  0.00  0.00    +0.003 C 
ATOM     22  C   UNL     1      32.267 -23.772 -15.032  0.00  0.00    +0.000 C 
BRANCH  19  23
ATOM     23  C   UNL     1      35.708 -24.528 -13.796  0.00  0.00    +0.003 C 
ATOM     24  C   UNL     1      36.119 -23.854 -12.647  0.00  0.00    +0.000 C 
ATOM     25  C   UNL     1      36.326 -25.721 -14.168  0.00  0.00    +0.000 C 
ATOM     26  C   UNL     1      37.152 -24.376 -11.867  0.00  0.00    +0.000 C 
ATOM     27  C   UNL     1      37.358 -26.241 -13.388  0.00  0.00    +0.000 C 
ATOM     28  C   UNL     1      37.770 -25.569 -12.238  0.00  0.00    +0.000 C 
ENDBRANCH  19  23
BRANCH  18  29
ATOM     29  O   UNL     1      36.200 -22.881 -16.039  0.00  0.00    -0.505 OA
ATOM     30  H   UNL     1      36.449 -21.996 -16.220  0.00  0.00    +0.292 HD
ENDBRANCH  18  29
ENDBRANCH   2  17
TORSDOF 4
ENDMDL
MODEL 8
REMARK VINA RESULT:     -10.8      8.373     11.860
REMARK  Name = 447476
REMARK  4 active torsions:
REMARK  status: ('A' for Active; 'I' for Inactive)
REMARK    1  A    between atoms: C_2  and  C_17
REMARK    2  A    between atoms: C_8  and  C_13
REMARK    3  A    between atoms: C_18  and  O_29
REMARK    4  A    between atoms: C_19  and  C_23
REMARK                            x       y       z     vdW  Elec       q    Type
REMARK                         _______ _______ _______ _____ _____    ______ ____
ROOT
ATOM      1  N   UNL     1      35.888 -22.226 -16.600  0.00  0.00    -0.312 N 
ATOM      2  C   UNL     1      34.535 -22.330 -16.783  0.00  0.00    +0.051 C 
ATOM      3  C   UNL     1      35.113 -23.475 -14.921  0.00  0.00    +0.015 C 
ATOM      4  C   UNL     1      36.269 -22.916 -15.471  0.00  0.00    +0.048 C 
ATOM      5  C   UNL     1      34.027 -23.097 -15.760  0.00  0.00    +0.016 C 
ATOM      6  C   UNL     1      35.224 -24.241 -13.743  0.00  0.00    +0.004 C 
ATOM      7  C   UNL     1      37.535 -23.085 -14.900  0.00  0.00    +0.015 C 
ATOM      8  C   UNL     1      36.485 -24.419 -13.162  0.00  0.00    +0.031 C 
ATOM      9  C   UNL     1      37.620 -23.850 -13.733  0.00  0.00    +0.004 C 
ATOM     10  H   UNL     1      36.500 -21.730 -17.191  0.00  0.00    +0.152 HD
ENDROOT
BRANCH   8  13
ATOM     11  N   UNL     1      37.597 -26.181 -11.810  0.00  0.00    -0.343 N 
ATOM     12  N   UNL     1      35.767 -25.012 -10.946  0.00  0.00    -0.285 NA
ATOM     13  C   UNL     1      36.607 -25.209 -11.946  0.00  0.00    +0.117 C 
ATOM     14  H   UNL     1      37.662 -26.705 -10.980  0.00  0.00    +0.144 HD
ATOM     15  H   UNL     1      38.231 -26.344 -12.547  0.00  0.00    +0.144 HD
ATOM     16  H   UNL     1      35.848 -25.546 -10.123  0.00  0.00    +0.188 HD
ENDBRANCH   8  13
BRANCH   2  17
ATOM     17  C   UNL     1      33.863 -21.701 -17.893  0.00  0.00    +0.047 C 
ATOM     18  C   UNL     1      34.563 -20.906 -18.803  0.00  0.00    +0.135 C 
ATOM     19  C   UNL     1      33.891 -20.308 -19.870  0.00  0.00    +0.034 C 
ATOM     20  C   UNL     1      32.489 -21.895 -18.054  0.00  0.00    +0.004 C 
ATOM     21  C   UNL     1      32.519 -20.504 -20.028  0.00  0.00    +0.003 C 
ATOM     22  C   UNL     1      31.819 -21.297 -19.120  0.00  0.00    +0.000 C 
BRANCH  19  23
ATOM     23  C   UNL     1      34.598 -19.480 -20.827  0.00  0.00    +0.003 C 
ATOM     24  C   UNL     1      33.975 -19.109 -22.017  0.00  0.00    +0.000 C 
ATOM     25  C   UNL     1      35.898 -19.057 -20.554  0.00  0.00    +0.000 C 
ATOM     26  C   UNL     1      34.655 -18.311 -22.939  0.00  0.00    +0.000 C 
ATOM     27  C   UNL     1      36.577 -18.261 -21.476  0.00  0.00    +0.000 C 
ATOM     28  C   UNL     1      35.955 -17.888 -22.667  0.00  0.00    +0.000 C 
ENDBRANCH  19  23
BRANCH  18  29
ATOM     29  O   UNL     1      35.907 -20.716 -18.649  0.00  0.00    -0.505 OA
ATOM     30  H   UNL     1      36.514 -21.281 -19.084  0.00  0.00    +0.292 HD
ENDBRANCH  18  29
ENDBRANCH   2  17
TORSDOF 4
ENDMDL
MODEL 9
REMARK VINA RESULT:     -10.7      3.454      8.956
REMARK  Name = 447476
REMARK  4 active torsions:
REMARK  status: ('A' for Active; 'I' for Inactive)
REMARK    1  A    between atoms: C_2  and  C_17
REMARK    2  A    between atoms: C_8  and  C_13
REMARK    3  A    between atoms: C_18  and  O_29
REMARK    4  A    between atoms: C_19  and  C_23
REMARK                            x       y       z     vdW  Elec       q    Type
REMARK                         _______ _______ _______ _____ _____    ______ ____
ROOT
ATOM      1  N   UNL     1      33.093  -8.225 -22.909  0.00  0.00    -0.312 N 
ATOM      2  C   UNL     1      31.926  -8.902 -22.679  0.00  0.00    +0.051 C 
ATOM      3  C   UNL     1      31.439  -6.877 -23.560  0.00  0.00    +0.015 C 
ATOM      4  C   UNL     1      32.827  -6.986 -23.447  0.00  0.00    +0.048 C 
ATOM      5  C   UNL     1      30.884  -8.094 -23.072  0.00  0.00    +0.016 C 
ATOM      6  C   UNL     1      30.893  -5.692 -24.090  0.00  0.00    +0.004 C 
ATOM      7  C   UNL     1      33.699  -5.964 -23.836  0.00  0.00    +0.015 C 
ATOM      8  C   UNL     1      31.753  -4.660 -24.485  0.00  0.00    +0.031 C 
ATOM      9  C   UNL     1      33.134  -4.796 -24.359  0.00  0.00    +0.004 C 
ATOM     10  H   UNL     1      33.994  -8.574 -22.717  0.00  0.00    +0.152 HD
ENDROOT
BRANCH   8  13
ATOM     11  N   UNL     1      30.151  -2.765 -24.397  0.00  0.00    -0.343 N 
ATOM     12  N   UNL     1      31.681  -2.934 -26.155  0.00  0.00    -0.285 NA
ATOM     13  C   UNL     1      31.196  -3.433 -25.032  0.00  0.00    +0.117 C 
ATOM     14  H   UNL     1      29.788  -1.937 -24.785  0.00  0.00    +0.144 HD
ATOM     15  H   UNL     1      29.774  -3.124 -23.560  0.00  0.00    +0.144 HD
ATOM     16  H   UNL     1      31.305  -2.104 -26.528  0.00  0.00    +0.188 HD
ENDBRANCH   8  13
BRANCH   2  17
ATOM     17  C   UNL     1      31.909 -10.230 -22.118  0.00  0.00    +0.047 C 
ATOM     18  C   UNL     1      32.512 -11.301 -22.782  0.00  0.00    +0.135 C 
ATOM     19  C   UNL     1      32.483 -12.577 -22.219  0.00  0.00    +0.034 C 
ATOM     20  C   UNL     1      31.278 -10.441 -20.891  0.00  0.00    +0.004 C 
ATOM     21  C   UNL     1      31.853 -12.785 -20.993  0.00  0.00    +0.003 C 
ATOM     22  C   UNL     1      31.250 -11.717 -20.329  0.00  0.00    +0.000 C 
BRANCH  19  23
ATOM     23  C   UNL     1      33.104 -13.702 -22.891  0.00  0.00    +0.003 C 
ATOM     24  C   UNL     1      33.981 -14.530 -22.191  0.00  0.00    +0.000 C 
ATOM     25  C   UNL     1      32.822 -13.954 -24.232  0.00  0.00    +0.000 C 
ATOM     26  C   UNL     1      34.578 -15.614 -22.837  0.00  0.00    +0.000 C 
ATOM     27  C   UNL     1      33.420 -15.037 -24.877  0.00  0.00    +0.000 C 
ATOM     28  C   UNL     1      34.297 -15.867 -24.179  0.00  0.00    +0.000 C 
ENDBRANCH  19  23
BRANCH  18  29
ATOM     29  O   UNL     1      33.131 -11.097 -23.983  0.00  0.00    -0.505 OA
ATOM     30  H   UNL     1      34.048 -11.265 -24.073  0.00  0.00    +0.292 HD
ENDBRANCH  18  29
ENDBRANCH   2  17
TORSDOF 4
ENDMDL
