MODEL 1
REMARK VINA RESULT:     -13.1      0.000      0.000
REMARK  Name = 10297043
REMARK  6 active torsions:
REMARK  status: ('A' for Active; 'I' for Inactive)
REMARK    1  A    between atoms: N_2  and  C_30
REMARK    2  A    between atoms: C_5  and  C_16
REMARK    3  A    between atoms: C_13  and  C_19
REMARK    4  A    between atoms: C_19  and  N_20
REMARK    5  A    between atoms: N_21  and  C_28
REMARK    6  A    between atoms: C_30  and  C_32
REMARK                            x       y       z     vdW  Elec       q    Type
REMARK                         _______ _______ _______ _____ _____    ______ ____
ROOT
ATOM      1  N   UNL     1      31.953 -21.784 -18.029  0.00  0.00    -0.301 N 
ATOM      2  N   UNL     1      34.678 -23.676 -14.749  0.00  0.00    -0.319 N 
ATOM      3  N   UNL     1      30.799 -22.987 -16.288  0.00  0.00    -0.233 NA
ATOM      4  N   UNL     1      32.307 -23.934 -14.628  0.00  0.00    -0.233 NA
ATOM      5  C   UNL     1      33.255 -21.486 -18.340  0.00  0.00    +0.046 C 
ATOM      6  C   UNL     1      33.221 -22.704 -16.441  0.00  0.00    +0.131 C 
ATOM      7  C   UNL     1      34.063 -22.043 -17.372  0.00  0.00    +0.003 C 
ATOM      8  C   UNL     1      31.914 -22.525 -16.878  0.00  0.00    +0.117 C 
ATOM      9  C   UNL     1      33.392 -23.441 -15.270  0.00  0.00    +0.113 C 
ATOM     10  C   UNL     1      31.095 -23.681 -15.170  0.00  0.00    +0.252 C 
ATOM     11  H   UNL     1      31.167 -21.508 -18.554  0.00  0.00    +0.153 HD
ATOM     12  H   UNL     1      35.454 -23.309 -15.231  0.00  0.00    +0.148 HD
ENDROOT
BRANCH   5  16
ATOM     13  C   UNL     1      34.281 -19.229 -21.757  0.00  0.00    -0.043 C 
ATOM     14  C   UNL     1      35.285 -19.783 -20.971  0.00  0.00    -0.006 C 
ATOM     15  C   UNL     1      32.943 -19.410 -21.430  0.00  0.00    -0.006 C 
ATOM     16  C   UNL     1      33.605 -20.715 -19.508  0.00  0.00    +0.013 C 
ATOM     17  C   UNL     1      34.945 -20.529 -19.843  0.00  0.00    +0.001 C 
ATOM     18  C   UNL     1      32.604 -20.156 -20.301  0.00  0.00    +0.001 C 
BRANCH  13  19
ATOM     19  C   UNL     1      34.646 -18.425 -22.972  0.00  0.00    -0.050 C 
BRANCH  19  20
ATOM     20  N   UNL     1      34.037 -17.097 -22.952  0.00  0.00    +0.387 N 
ATOM     21  N   UNL     1      34.128 -14.219 -23.206  0.00  0.00    +0.384 N 
ATOM     22  C   UNL     1      34.650 -16.259 -21.913  0.00  0.00    -0.100 C 
ATOM     23  C   UNL     1      34.150 -16.451 -24.265  0.00  0.00    -0.100 C 
ATOM     24  C   UNL     1      34.016 -14.864 -21.892  0.00  0.00    -0.101 C 
ATOM     25  C   UNL     1      33.514 -15.057 -24.243  0.00  0.00    -0.101 C 
ATOM     26  H   UNL     1      33.047 -17.209 -22.732  0.00  0.00    -0.079 HD
ATOM     27  H   UNL     1      35.118 -14.109 -23.426  0.00  0.00    -0.080 HD
BRANCH  21  28
ATOM     28  C   UNL     1      33.521 -12.890 -23.186  0.00  0.00    -0.078 C 
ATOM     29  C   UNL     1      32.665 -12.696 -21.945  0.00  0.00    -0.025 C 
ENDBRANCH  21  28
ENDBRANCH  19  20
ENDBRANCH  13  19
ENDBRANCH   5  16
BRANCH   2  30
ATOM     30  C   UNL     1      34.911 -24.426 -13.552  0.00  0.00    +0.093 C 
ATOM     31  C   UNL     1      34.397 -23.630 -12.354  0.00  0.00    +0.026 C 
BRANCH  30  32
ATOM     32  C   UNL     1      36.375 -24.791 -13.438  0.00  0.00    -0.005 C 
ATOM     33  C   UNL     1      36.896 -25.113 -12.196  0.00  0.00    -0.003 C 
ATOM     34  C   UNL     1      37.161 -24.796 -14.577  0.00  0.00    -0.003 C 
ATOM     35  C   UNL     1      38.245 -25.449 -12.091  0.00  0.00    -0.000 C 
ATOM     36  C   UNL     1      38.510 -25.132 -14.471  0.00  0.00    -0.000 C 
ATOM     37  C   UNL     1      39.053 -25.459 -13.228  0.00  0.00    -0.000 C 
ENDBRANCH  30  32
ENDBRANCH   2  30
TORSDOF 6
ENDMDL
MODEL 2
REMARK VINA RESULT:     -13.0      2.680     12.106
REMARK  Name = 10297043
REMARK  6 active torsions:
REMARK  status: ('A' for Active; 'I' for Inactive)
REMARK    1  A    between atoms: N_2  and  C_30
REMARK    2  A    between atoms: C_5  and  C_16
REMARK    3  A    between atoms: C_13  and  C_19
REMARK    4  A    between atoms: C_19  and  N_20
REMARK    5  A    between atoms: N_21  and  C_28
REMARK    6  A    between atoms: C_30  and  C_32
REMARK                            x       y       z     vdW  Elec       q    Type
REMARK                         _______ _______ _______ _____ _____    ______ ____
ROOT
ATOM      1  N   UNL     1      34.014 -16.520 -24.039  0.00  0.00    -0.301 N 
ATOM      2  N   UNL     1      32.901 -12.200 -22.672  0.00  0.00    -0.319 N 
ATOM      3  N   UNL     1      33.283 -15.032 -25.789  0.00  0.00    -0.233 NA
ATOM      4  N   UNL     1      32.727 -12.806 -24.974  0.00  0.00    -0.233 NA
ATOM      5  C   UNL     1      34.203 -16.445 -22.682  0.00  0.00    +0.046 C 
ATOM      6  C   UNL     1      33.472 -14.443 -23.426  0.00  0.00    +0.131 C 
ATOM      7  C   UNL     1      33.875 -15.169 -22.275  0.00  0.00    +0.003 C 
ATOM      8  C   UNL     1      33.569 -15.311 -24.506  0.00  0.00    +0.117 C 
ATOM      9  C   UNL     1      33.032 -13.150 -23.701  0.00  0.00    +0.113 C 
ATOM     10  C   UNL     1      32.869 -13.755 -25.926  0.00  0.00    +0.252 C 
ATOM     11  H   UNL     1      34.173 -17.319 -24.591  0.00  0.00    +0.153 HD
ATOM     12  H   UNL     1      33.128 -12.470 -21.752  0.00  0.00    +0.148 HD
ENDROOT
BRANCH   5  16
ATOM     13  C   UNL     1      35.558 -19.746 -20.427  0.00  0.00    -0.043 C 
ATOM     14  C   UNL     1      34.221 -19.672 -20.802  0.00  0.00    -0.006 C 
ATOM     15  C   UNL     1      36.453 -18.746 -20.786  0.00  0.00    -0.006 C 
ATOM     16  C   UNL     1      34.666 -17.573 -21.912  0.00  0.00    +0.013 C 
ATOM     17  C   UNL     1      33.774 -18.581 -21.548  0.00  0.00    +0.001 C 
ATOM     18  C   UNL     1      36.005 -17.655 -21.531  0.00  0.00    +0.001 C 
BRANCH  13  19
ATOM     19  C   UNL     1      36.040 -20.920 -19.624  0.00  0.00    -0.050 C 
BRANCH  19  20
ATOM     20  N   UNL     1      35.203 -21.159 -18.450  0.00  0.00    +0.387 N 
ATOM     21  N   UNL     1      34.087 -22.846 -16.383  0.00  0.00    +0.384 N 
ATOM     22  C   UNL     1      34.151 -22.140 -18.751  0.00  0.00    -0.100 C 
ATOM     23  C   UNL     1      36.015 -21.610 -17.313  0.00  0.00    -0.100 C 
ATOM     24  C   UNL     1      33.275 -22.395 -17.520  0.00  0.00    -0.101 C 
ATOM     25  C   UNL     1      35.136 -21.865 -16.083  0.00  0.00    -0.101 C 
ATOM     26  H   UNL     1      34.756 -20.277 -18.197  0.00  0.00    -0.079 HD
ATOM     27  H   UNL     1      34.535 -23.727 -16.637  0.00  0.00    -0.080 HD
BRANCH  21  28
ATOM     28  C   UNL     1      33.250 -23.087 -15.210  0.00  0.00    -0.078 C 
ATOM     29  C   UNL     1      31.789 -22.800 -15.510  0.00  0.00    -0.025 C 
ENDBRANCH  21  28
ENDBRANCH  19  20
ENDBRANCH  13  19
ENDBRANCH   5  16
BRANCH   2  30
ATOM     30  C   UNL     1      32.454 -10.859 -22.898  0.00  0.00    +0.093 C 
ATOM     31  C   UNL     1      33.577 -10.059 -23.554  0.00  0.00    +0.026 C 
BRANCH  30  32
ATOM     32  C   UNL     1      31.963 -10.244 -21.605  0.00  0.00    -0.005 C 
ATOM     33  C   UNL     1      31.782 -11.055 -20.498  0.00  0.00    -0.003 C 
ATOM     34  C   UNL     1      31.705  -8.885 -21.558  0.00  0.00    -0.003 C 
ATOM     35  C   UNL     1      31.330 -10.489 -19.306  0.00  0.00    -0.000 C 
ATOM     36  C   UNL     1      31.253  -8.319 -20.366  0.00  0.00    -0.000 C 
ATOM     37  C   UNL     1      31.065  -9.120 -19.241  0.00  0.00    -0.000 C 
ENDBRANCH  30  32
ENDBRANCH   2  30
TORSDOF 6
ENDMDL
MODEL 3
REMARK VINA RESULT:     -13.0      5.095      9.819
REMARK  Name = 10297043
REMARK  6 active torsions:
REMARK  status: ('A' for Active; 'I' for Inactive)
REMARK    1  A    between atoms: N_2  and  C_30
REMARK    2  A    between atoms: C_5  and  C_16
REMARK    3  A    between atoms: C_13  and  C_19
REMARK    4  A    between atoms: C_19  and  N_20
REMARK    5  A    between atoms: N_21  and  C_28
REMARK    6  A    between atoms: C_30  and  C_32
REMARK                            x       y       z     vdW  Elec       q    Type
REMARK                         _______ _______ _______ _____ _____    ______ ____
ROOT
ATOM      1  N   UNL     1      32.761 -14.192 -23.878  0.00  0.00    -0.301 N 
ATOM      2  N   UNL     1      35.265 -17.078 -21.201  0.00  0.00    -0.319 N 
ATOM      3  N   UNL     1      33.336 -16.306 -24.885  0.00  0.00    -0.233 NA
ATOM      4  N   UNL     1      34.641 -17.737 -23.409  0.00  0.00    -0.233 NA
ATOM      5  C   UNL     1      32.977 -13.570 -22.675  0.00  0.00    +0.046 C 
ATOM      6  C   UNL     1      33.959 -15.601 -22.630  0.00  0.00    +0.131 C 
ATOM      7  C   UNL     1      33.716 -14.421 -21.881  0.00  0.00    +0.003 C 
ATOM      8  C   UNL     1      33.352 -15.428 -23.868  0.00  0.00    +0.117 C 
ATOM      9  C   UNL     1      34.621 -16.811 -22.422  0.00  0.00    +0.113 C 
ATOM     10  C   UNL     1      34.007 -17.431 -24.564  0.00  0.00    +0.252 C 
ATOM     11  H   UNL     1      32.259 -13.809 -24.633  0.00  0.00    +0.153 HD
ATOM     12  H   UNL     1      35.239 -16.391 -20.496  0.00  0.00    +0.148 HD
ENDROOT
BRANCH   5  16
ATOM     13  C   UNL     1      31.500  -9.700 -21.861  0.00  0.00    -0.043 C 
ATOM     14  C   UNL     1      32.263  -9.918 -23.002  0.00  0.00    -0.006 C 
ATOM     15  C   UNL     1      31.217 -10.741 -20.985  0.00  0.00    -0.006 C 
ATOM     16  C   UNL     1      32.472 -12.248 -22.397  0.00  0.00    +0.013 C 
ATOM     17  C   UNL     1      32.750 -11.198 -23.271  0.00  0.00    +0.001 C 
ATOM     18  C   UNL     1      31.705 -12.020 -21.255  0.00  0.00    +0.001 C 
BRANCH  13  19
ATOM     19  C   UNL     1      30.975  -8.323 -21.571  0.00  0.00    -0.050 C 
BRANCH  19  20
ATOM     20  N   UNL     1      31.505  -7.329 -22.502  0.00  0.00    +0.387 N 
ATOM     21  N   UNL     1      31.862  -4.621 -23.449  0.00  0.00    +0.384 N 
ATOM     22  C   UNL     1      30.414  -6.603 -23.165  0.00  0.00    -0.100 C 
ATOM     23  C   UNL     1      32.400  -6.392 -21.812  0.00  0.00    -0.100 C 
ATOM     24  C   UNL     1      30.967  -5.558 -24.139  0.00  0.00    -0.101 C 
ATOM     25  C   UNL     1      32.953  -5.348 -22.789  0.00  0.00    -0.101 C 
ATOM     26  H   UNL     1      32.043  -7.822 -23.216  0.00  0.00    -0.079 HD
ATOM     27  H   UNL     1      31.325  -4.129 -22.735  0.00  0.00    -0.080 HD
BRANCH  21  28
ATOM     28  C   UNL     1      32.391  -3.626 -24.380  0.00  0.00    -0.078 C 
ATOM     29  C   UNL     1      33.668  -4.116 -25.041  0.00  0.00    -0.025 C 
ENDBRANCH  21  28
ENDBRANCH  19  20
ENDBRANCH  13  19
ENDBRANCH   5  16
BRANCH   2  30
ATOM     30  C   UNL     1      35.959 -18.302 -20.935  0.00  0.00    +0.093 C 
ATOM     31  C   UNL     1      36.714 -18.733 -22.191  0.00  0.00    +0.026 C 
BRANCH  30  32
ATOM     32  C   UNL     1      34.995 -19.353 -20.432  0.00  0.00    -0.005 C 
ATOM     33  C   UNL     1      35.487 -20.440 -19.728  0.00  0.00    -0.003 C 
ATOM     34  C   UNL     1      33.642 -19.208 -20.686  0.00  0.00    -0.003 C 
ATOM     35  C   UNL     1      34.599 -21.409 -19.264  0.00  0.00    -0.000 C 
ATOM     36  C   UNL     1      32.754 -20.178 -20.222  0.00  0.00    -0.000 C 
ATOM     37  C   UNL     1      33.232 -21.278 -19.511  0.00  0.00    -0.000 C 
ENDBRANCH  30  32
ENDBRANCH   2  30
TORSDOF 6
ENDMDL
MODEL 4
REMARK VINA RESULT:     -12.6      4.844     14.715
REMARK  Name = 10297043
REMARK  6 active torsions:
REMARK  status: ('A' for Active; 'I' for Inactive)
REMARK    1  A    between atoms: N_2  and  C_30
REMARK    2  A    between atoms: C_5  and  C_16
REMARK    3  A    between atoms: C_13  and  C_19
REMARK    4  A    between atoms: C_19  and  N_20
REMARK    5  A    between atoms: N_21  and  C_28
REMARK    6  A    between atoms: C_30  and  C_32
REMARK                            x       y       z     vdW  Elec       q    Type
REMARK                         _______ _______ _______ _____ _____    ______ ____
ROOT
ATOM      1  N   UNL     1      32.008 -11.459 -21.247  0.00  0.00    -0.301 N 
ATOM      2  N   UNL     1      32.202  -7.712 -24.020  0.00  0.00    -0.319 N 
ATOM      3  N   UNL     1      30.998  -9.457 -20.360  0.00  0.00    -0.233 NA
ATOM      4  N   UNL     1      31.151  -7.562 -21.882  0.00  0.00    -0.233 NA
ATOM      5  C   UNL     1      32.657 -11.821 -22.399  0.00  0.00    +0.046 C 
ATOM      6  C   UNL     1      32.080  -9.644 -22.544  0.00  0.00    +0.131 C 
ATOM      7  C   UNL     1      32.716 -10.716 -23.222  0.00  0.00    +0.003 C 
ATOM      8  C   UNL     1      31.651 -10.139 -21.318  0.00  0.00    +0.117 C 
ATOM      9  C   UNL     1      31.806  -8.303 -22.806  0.00  0.00    +0.113 C 
ATOM     10  C   UNL     1      30.794  -8.176 -20.731  0.00  0.00    +0.252 C 
ATOM     11  H   UNL     1      31.827 -12.056 -20.486  0.00  0.00    +0.153 HD
ATOM     12  H   UNL     1      32.677  -8.268 -24.680  0.00  0.00    +0.148 HD
ENDROOT
BRANCH   5  16
ATOM     13  C   UNL     1      34.116 -15.735 -23.010  0.00  0.00    -0.043 C 
ATOM     14  C   UNL     1      34.186 -15.165 -21.744  0.00  0.00    -0.006 C 
ATOM     15  C   UNL     1      33.572 -15.031 -24.077  0.00  0.00    -0.006 C 
ATOM     16  C   UNL     1      33.155 -13.158 -22.608  0.00  0.00    +0.013 C 
ATOM     17  C   UNL     1      33.702 -13.872 -21.543  0.00  0.00    +0.001 C 
ATOM     18  C   UNL     1      33.089 -13.738 -23.875  0.00  0.00    +0.001 C 
BRANCH  13  19
ATOM     19  C   UNL     1      34.636 -17.127 -23.228  0.00  0.00    -0.050 C 
BRANCH  19  20
ATOM     20  N   UNL     1      34.792 -17.854 -21.970  0.00  0.00    +0.387 N 
ATOM     21  N   UNL     1      35.479 -20.194 -20.417  0.00  0.00    +0.384 N 
ATOM     22  C   UNL     1      33.914 -19.031 -21.935  0.00  0.00    -0.100 C 
ATOM     23  C   UNL     1      36.191 -18.252 -21.767  0.00  0.00    -0.100 C 
ATOM     24  C   UNL     1      34.080 -19.798 -20.619  0.00  0.00    -0.101 C 
ATOM     25  C   UNL     1      36.355 -19.018 -20.450  0.00  0.00    -0.101 C 
ATOM     26  H   UNL     1      34.522 -17.230 -21.209  0.00  0.00    -0.079 HD
ATOM     27  H   UNL     1      35.749 -20.818 -21.178  0.00  0.00    -0.080 HD
BRANCH  21  28
ATOM     28  C   UNL     1      35.635 -20.923 -19.160  0.00  0.00    -0.078 C 
ATOM     29  C   UNL     1      34.365 -21.673 -18.797  0.00  0.00    -0.025 C 
ENDBRANCH  21  28
ENDBRANCH  19  20
ENDBRANCH  13  19
ENDBRANCH   5  16
BRANCH   2  30
ATOM     30  C   UNL     1      31.947  -6.340 -24.341  0.00  0.00    +0.093 C 
ATOM     31  C   UNL     1      30.471  -6.174 -24.693  0.00  0.00    +0.026 C 
BRANCH  30  32
ATOM     32  C   UNL     1      32.876  -5.878 -25.443  0.00  0.00    -0.005 C 
ATOM     33  C   UNL     1      32.422  -5.871 -26.751  0.00  0.00    -0.003 C 
ATOM     34  C   UNL     1      34.159  -5.473 -25.120  0.00  0.00    -0.003 C 
ATOM     35  C   UNL     1      33.277  -5.446 -27.766  0.00  0.00    -0.000 C 
ATOM     36  C   UNL     1      35.015  -5.047 -26.136  0.00  0.00    -0.000 C 
ATOM     37  C   UNL     1      34.574  -5.034 -27.459  0.00  0.00    -0.000 C 
ENDBRANCH  30  32
ENDBRANCH   2  30
TORSDOF 6
ENDMDL
MODEL 5
REMARK VINA RESULT:     -12.0      4.132     13.720
REMARK  Name = 10297043
REMARK  6 active torsions:
REMARK  status: ('A' for Active; 'I' for Inactive)
REMARK    1  A    between atoms: N_2  and  C_30
REMARK    2  A    between atoms: C_5  and  C_16
REMARK    3  A    between atoms: C_13  and  C_19
REMARK    4  A    between atoms: C_19  and  N_20
REMARK    5  A    between atoms: N_21  and  C_28
REMARK    6  A    between atoms: C_30  and  C_32
REMARK                            x       y       z     vdW  Elec       q    Type
REMARK                         _______ _______ _______ _____ _____    ______ ____
ROOT
ATOM      1  N   UNL     1      31.609 -12.661 -21.671  0.00  0.00    -0.301 N 
ATOM      2  N   UNL     1      33.034  -8.595 -23.461  0.00  0.00    -0.319 N 
ATOM      3  N   UNL     1      30.059 -10.828 -21.448  0.00  0.00    -0.233 NA
ATOM      4  N   UNL     1      30.895  -8.754 -22.413  0.00  0.00    -0.233 NA
ATOM      5  C   UNL     1      32.857 -12.851 -22.205  0.00  0.00    +0.046 C 
ATOM      6  C   UNL     1      32.253 -10.698 -22.515  0.00  0.00    +0.131 C 
ATOM      7  C   UNL     1      33.282 -11.650 -22.735  0.00  0.00    +0.003 C 
ATOM      8  C   UNL     1      31.226 -11.358 -21.850  0.00  0.00    +0.117 C 
ATOM      9  C   UNL     1      32.052  -9.347 -22.792  0.00  0.00    +0.113 C 
ATOM     10  C   UNL     1      29.983  -9.520 -21.772  0.00  0.00    +0.252 C 
ATOM     11  H   UNL     1      31.070 -13.355 -21.227  0.00  0.00    +0.153 HD
ATOM     12  H   UNL     1      33.868  -9.045 -23.728  0.00  0.00    +0.148 HD
ENDROOT
BRANCH   5  16
ATOM     13  C   UNL     1      34.800 -16.596 -22.078  0.00  0.00    -0.043 C 
ATOM     14  C   UNL     1      34.512 -16.012 -23.306  0.00  0.00    -0.006 C 
ATOM     15  C   UNL     1      34.456 -15.961 -20.891  0.00  0.00    -0.006 C 
ATOM     16  C   UNL     1      33.521 -14.130 -22.161  0.00  0.00    +0.013 C 
ATOM     17  C   UNL     1      33.871 -14.774 -23.347  0.00  0.00    +0.001 C 
ATOM     18  C   UNL     1      33.814 -14.723 -20.933  0.00  0.00    +0.001 C 
BRANCH  13  19
ATOM     19  C   UNL     1      35.491 -17.929 -22.032  0.00  0.00    -0.050 C 
BRANCH  19  20
ATOM     20  N   UNL     1      35.079 -18.718 -20.873  0.00  0.00    +0.387 N 
ATOM     21  N   UNL     1      34.443 -21.208 -19.548  0.00  0.00    +0.384 N 
ATOM     22  C   UNL     1      33.822 -19.428 -21.146  0.00  0.00    -0.100 C 
ATOM     23  C   UNL     1      36.131 -19.668 -20.488  0.00  0.00    -0.100 C 
ATOM     24  C   UNL     1      33.391 -20.259 -19.934  0.00  0.00    -0.101 C 
ATOM     25  C   UNL     1      35.698 -20.498 -19.275  0.00  0.00    -0.101 C 
ATOM     26  H   UNL     1      34.924 -18.077 -20.095  0.00  0.00    -0.079 HD
ATOM     27  H   UNL     1      34.599 -21.848 -20.327  0.00  0.00    -0.080 HD
BRANCH  21  28
ATOM     28  C   UNL     1      34.031 -21.999 -18.391  0.00  0.00    -0.078 C 
ATOM     29  C   UNL     1      32.523 -21.962 -18.209  0.00  0.00    -0.025 C 
ENDBRANCH  21  28
ENDBRANCH  19  20
ENDBRANCH  13  19
ENDBRANCH   5  16
BRANCH   2  30
ATOM     30  C   UNL     1      32.879  -7.206 -23.769  0.00  0.00    +0.093 C 
ATOM     31  C   UNL     1      34.189  -6.671 -24.345  0.00  0.00    +0.026 C 
BRANCH  30  32
ATOM     32  C   UNL     1      32.414  -6.445 -22.547  0.00  0.00    -0.005 C 
ATOM     33  C   UNL     1      33.059  -6.647 -21.339  0.00  0.00    -0.003 C 
ATOM     34  C   UNL     1      31.352  -5.564 -22.662  0.00  0.00    -0.003 C 
ATOM     35  C   UNL     1      32.630  -5.947 -20.212  0.00  0.00    -0.000 C 
ATOM     36  C   UNL     1      30.923  -4.864 -21.535  0.00  0.00    -0.000 C 
ATOM     37  C   UNL     1      31.561  -5.055 -20.310  0.00  0.00    -0.000 C 
ENDBRANCH  30  32
ENDBRANCH   2  30
TORSDOF 6
ENDMDL
MODEL 6
REMARK VINA RESULT:     -11.9      1.285      2.137
REMARK  Name = 10297043
REMARK  6 active torsions:
REMARK  status: ('A' for Active; 'I' for Inactive)
REMARK    1  A    between atoms: N_2  and  C_30
REMARK    2  A    between atoms: C_5  and  C_16
REMARK    3  A    between atoms: C_13  and  C_19
REMARK    4  A    between atoms: C_19  and  N_20
REMARK    5  A    between atoms: N_21  and  C_28
REMARK    6  A    between atoms: C_30  and  C_32
REMARK                            x       y       z     vdW  Elec       q    Type
REMARK                         _______ _______ _______ _____ _____    ______ ____
ROOT
ATOM      1  N   UNL     1      33.313 -21.760 -17.760  0.00  0.00    -0.301 N 
ATOM      2  N   UNL     1      36.648 -23.839 -15.246  0.00  0.00    -0.319 N 
ATOM      3  N   UNL     1      32.537 -23.105 -15.915  0.00  0.00    -0.233 NA
ATOM      4  N   UNL     1      34.352 -24.145 -14.668  0.00  0.00    -0.233 NA
ATOM      5  C   UNL     1      34.525 -21.419 -18.304  0.00  0.00    +0.046 C 
ATOM      6  C   UNL     1      34.878 -22.772 -16.532  0.00  0.00    +0.131 C 
ATOM      7  C   UNL     1      35.513 -22.032 -17.562  0.00  0.00    +0.003 C 
ATOM      8  C   UNL     1      33.510 -22.583 -16.682  0.00  0.00    +0.117 C 
ATOM      9  C   UNL     1      35.284 -23.589 -15.477  0.00  0.00    +0.113 C 
ATOM     10  C   UNL     1      33.054 -23.873 -14.934  0.00  0.00    +0.252 C 
ATOM     11  H   UNL     1      32.437 -21.460 -18.093  0.00  0.00    +0.153 HD
ATOM     12  H   UNL     1      37.310 -23.425 -15.846  0.00  0.00    +0.148 HD
ENDROOT
BRANCH   5  16
ATOM     13  C   UNL     1      34.833 -18.907 -21.682  0.00  0.00    -0.043 C 
ATOM     14  C   UNL     1      33.591 -19.412 -21.311  0.00  0.00    -0.006 C 
ATOM     15  C   UNL     1      35.973 -19.220 -20.953  0.00  0.00    -0.006 C 
ATOM     16  C   UNL     1      34.630 -20.561 -19.457  0.00  0.00    +0.013 C 
ATOM     17  C   UNL     1      33.490 -20.241 -20.194  0.00  0.00    +0.001 C 
ATOM     18  C   UNL     1      35.872 -20.050 -19.837  0.00  0.00    +0.001 C 
BRANCH  13  19
ATOM     19  C   UNL     1      34.942 -18.014 -22.885  0.00  0.00    -0.050 C 
BRANCH  19  20
ATOM     20  N   UNL     1      34.190 -16.773 -22.713  0.00  0.00    +0.387 N 
ATOM     21  N   UNL     1      33.967 -13.893 -22.596  0.00  0.00    +0.384 N 
ATOM     22  C   UNL     1      34.691 -16.015 -21.558  0.00  0.00    -0.100 C 
ATOM     23  C   UNL     1      34.251 -15.953 -23.930  0.00  0.00    -0.100 C 
ATOM     24  C   UNL     1      33.906 -14.711 -21.379  0.00  0.00    -0.101 C 
ATOM     25  C   UNL     1      33.465 -14.650 -23.749  0.00  0.00    -0.101 C 
ATOM     26  H   UNL     1      33.215 -17.017 -22.539  0.00  0.00    -0.079 HD
ATOM     27  H   UNL     1      34.943 -13.649 -22.771  0.00  0.00    -0.080 HD
BRANCH  21  28
ATOM     28  C   UNL     1      33.217 -12.650 -22.424  0.00  0.00    -0.078 C 
ATOM     29  C   UNL     1      33.084 -11.902 -23.740  0.00  0.00    -0.025 C 
ENDBRANCH  21  28
ENDBRANCH  19  20
ENDBRANCH  13  19
ENDBRANCH   5  16
BRANCH   2  30
ATOM     30  C   UNL     1      37.120 -24.669 -14.179  0.00  0.00    +0.093 C 
ATOM     31  C   UNL     1      36.634 -26.099 -14.405  0.00  0.00    +0.026 C 
BRANCH  30  32
ATOM     32  C   UNL     1      36.693 -24.101 -12.843  0.00  0.00    -0.005 C 
ATOM     33  C   UNL     1      35.987 -24.903 -11.963  0.00  0.00    -0.003 C 
ATOM     34  C   UNL     1      37.016 -22.792 -12.530  0.00  0.00    -0.003 C 
ATOM     35  C   UNL     1      35.592 -24.379 -10.732  0.00  0.00    -0.000 C 
ATOM     36  C   UNL     1      36.622 -22.269 -11.299  0.00  0.00    -0.000 C 
ATOM     37  C   UNL     1      35.909 -23.062 -10.400  0.00  0.00    -0.000 C 
ENDBRANCH  30  32
ENDBRANCH   2  30
TORSDOF 6
ENDMDL
MODEL 7
REMARK VINA RESULT:     -11.8      1.976      4.327
REMARK  Name = 10297043
REMARK  6 active torsions:
REMARK  status: ('A' for Active; 'I' for Inactive)
REMARK    1  A    between atoms: N_2  and  C_30
REMARK    2  A    between atoms: C_5  and  C_16
REMARK    3  A    between atoms: C_13  and  C_19
REMARK    4  A    between atoms: C_19  and  N_20
REMARK    5  A    between atoms: N_21  and  C_28
REMARK    6  A    between atoms: C_30  and  C_32
REMARK                            x       y       z     vdW  Elec       q    Type
REMARK                         _______ _______ _______ _____ _____    ______ ____
ROOT
ATOM      1  N   UNL     1      36.453 -20.800 -18.399  0.00  0.00    -0.301 N 
ATOM      2  N   UNL     1      33.285 -22.867 -15.668  0.00  0.00    -0.319 N 
ATOM      3  N   UNL     1      37.334 -21.943 -16.468  0.00  0.00    -0.233 NA
ATOM      4  N   UNL     1      35.603 -22.987 -15.110  0.00  0.00    -0.233 NA
ATOM      5  C   UNL     1      35.216 -20.577 -18.946  0.00  0.00    +0.046 C 
ATOM      6  C   UNL     1      34.970 -21.802 -17.067  0.00  0.00    +0.131 C 
ATOM      7  C   UNL     1      34.277 -21.187 -18.141  0.00  0.00    +0.003 C 
ATOM      8  C   UNL     1      36.322 -21.543 -17.256  0.00  0.00    +0.117 C 
ATOM      9  C   UNL     1      34.628 -22.554 -15.943  0.00  0.00    +0.113 C 
ATOM     10  C   UNL     1      36.878 -22.658 -15.419  0.00  0.00    +0.252 C 
ATOM     11  H   UNL     1      37.305 -20.476 -18.771  0.00  0.00    +0.153 HD
ATOM     12  H   UNL     1      32.591 -22.543 -16.287  0.00  0.00    +0.148 HD
ENDROOT
BRANCH   5  16
ATOM     13  C   UNL     1      34.706 -18.353 -22.498  0.00  0.00    -0.043 C 
ATOM     14  C   UNL     1      33.641 -19.085 -21.987  0.00  0.00    -0.006 C 
ATOM     15  C   UNL     1      35.937 -18.345 -21.854  0.00  0.00    -0.006 C 
ATOM     16  C   UNL     1      35.042 -19.817 -20.159  0.00  0.00    +0.013 C 
ATOM     17  C   UNL     1      33.809 -19.819 -20.812  0.00  0.00    +0.001 C 
ATOM     18  C   UNL     1      36.105 -19.080 -20.680  0.00  0.00    +0.001 C 
BRANCH  13  19
ATOM     19  C   UNL     1      34.525 -17.563 -23.762  0.00  0.00    -0.050 C 
BRANCH  19  20
ATOM     20  N   UNL     1      33.842 -16.293 -23.519  0.00  0.00    +0.387 N 
ATOM     21  N   UNL     1      33.727 -13.406 -23.443  0.00  0.00    +0.384 N 
ATOM     22  C   UNL     1      34.520 -15.531 -22.463  0.00  0.00    -0.100 C 
ATOM     23  C   UNL     1      33.760 -15.501 -24.752  0.00  0.00    -0.100 C 
ATOM     24  C   UNL     1      33.809 -14.198 -22.209  0.00  0.00    -0.101 C 
ATOM     25  C   UNL     1      33.048 -14.168 -24.497  0.00  0.00    -0.101 C 
ATOM     26  H   UNL     1      32.893 -16.501 -23.207  0.00  0.00    -0.079 HD
ATOM     27  H   UNL     1      34.676 -13.199 -23.756  0.00  0.00    -0.080 HD
BRANCH  21  28
ATOM     28  C   UNL     1      33.047 -12.135 -23.200  0.00  0.00    -0.078 C 
ATOM     29  C   UNL     1      31.966 -12.284 -22.142  0.00  0.00    -0.025 C 
ENDBRANCH  21  28
ENDBRANCH  19  20
ENDBRANCH  13  19
ENDBRANCH   5  16
BRANCH   2  30
ATOM     30  C   UNL     1      32.879 -23.634 -14.529  0.00  0.00    +0.093 C 
ATOM     31  C   UNL     1      33.720 -24.907 -14.458  0.00  0.00    +0.026 C 
BRANCH  30  32
ATOM     32  C   UNL     1      31.392 -23.906 -14.583  0.00  0.00    -0.005 C 
ATOM     33  C   UNL     1      30.627 -23.290 -15.558  0.00  0.00    -0.003 C 
ATOM     34  C   UNL     1      30.827 -24.765 -13.655  0.00  0.00    -0.003 C 
ATOM     35  C   UNL     1      29.256 -23.540 -15.608  0.00  0.00    -0.000 C 
ATOM     36  C   UNL     1      29.457 -25.015 -13.705  0.00  0.00    -0.000 C 
ATOM     37  C   UNL     1      28.671 -24.402 -14.680  0.00  0.00    -0.000 C 
ENDBRANCH  30  32
ENDBRANCH   2  30
TORSDOF 6
ENDMDL
MODEL 8
REMARK VINA RESULT:     -11.1      5.703     15.466
REMARK  Name = 10297043
REMARK  6 active torsions:
REMARK  status: ('A' for Active; 'I' for Inactive)
REMARK    1  A    between atoms: N_2  and  C_30
REMARK    2  A    between atoms: C_5  and  C_16
REMARK    3  A    between atoms: C_13  and  C_19
REMARK    4  A    between atoms: C_19  and  N_20
REMARK    5  A    between atoms: N_21  and  C_28
REMARK    6  A    between atoms: C_30  and  C_32
REMARK                            x       y       z     vdW  Elec       q    Type
REMARK                         _______ _______ _______ _____ _____    ______ ____
ROOT
ATOM      1  N   UNL     1      31.913 -10.240 -21.341  0.00  0.00    -0.301 N 
ATOM      2  N   UNL     1      32.140  -6.171 -23.613  0.00  0.00    -0.319 N 
ATOM      3  N   UNL     1      31.178  -8.311 -20.094  0.00  0.00    -0.233 NA
ATOM      4  N   UNL     1      31.335  -6.241 -21.367  0.00  0.00    -0.233 NA
ATOM      5  C   UNL     1      32.405 -10.485 -22.597  0.00  0.00    +0.046 C 
ATOM      6  C   UNL     1      32.006  -8.274 -22.393  0.00  0.00    +0.131 C 
ATOM      7  C   UNL     1      32.473  -9.284 -23.272  0.00  0.00    +0.003 C 
ATOM      8  C   UNL     1      31.666  -8.900 -21.200  0.00  0.00    +0.117 C 
ATOM      9  C   UNL     1      31.823  -6.893 -22.448  0.00  0.00    +0.113 C 
ATOM     10  C   UNL     1      31.048  -6.980 -20.271  0.00  0.00    +0.252 C 
ATOM     11  H   UNL     1      31.762 -10.921 -20.648  0.00  0.00    +0.153 HD
ATOM     12  H   UNL     1      32.494  -6.664 -24.389  0.00  0.00    +0.148 HD
ENDROOT
BRANCH   5  16
ATOM     13  C   UNL     1      33.449 -14.373 -23.870  0.00  0.00    -0.043 C 
ATOM     14  C   UNL     1      33.536 -14.044 -22.522  0.00  0.00    -0.006 C 
ATOM     15  C   UNL     1      33.023 -13.436 -24.804  0.00  0.00    -0.006 C 
ATOM     16  C   UNL     1      32.761 -11.813 -23.033  0.00  0.00    +0.013 C 
ATOM     17  C   UNL     1      33.190 -12.760 -22.102  0.00  0.00    +0.001 C 
ATOM     18  C   UNL     1      32.678 -12.152 -24.383  0.00  0.00    +0.001 C 
BRANCH  13  19
ATOM     19  C   UNL     1      33.821 -15.756 -24.323  0.00  0.00    -0.050 C 
BRANCH  19  20
ATOM     20  N   UNL     1      33.836 -16.708 -23.215  0.00  0.00    +0.387 N 
ATOM     21  N   UNL     1      34.979 -18.905 -21.723  0.00  0.00    +0.384 N 
ATOM     22  C   UNL     1      33.761 -18.088 -23.712  0.00  0.00    -0.100 C 
ATOM     23  C   UNL     1      35.034 -16.525 -22.386  0.00  0.00    -0.100 C 
ATOM     24  C   UNL     1      33.781 -19.088 -22.552  0.00  0.00    -0.101 C 
ATOM     25  C   UNL     1      35.052 -17.527 -21.226  0.00  0.00    -0.101 C 
ATOM     26  H   UNL     1      33.014 -16.530 -22.636  0.00  0.00    -0.079 HD
ATOM     27  H   UNL     1      35.800 -19.081 -22.302  0.00  0.00    -0.080 HD
BRANCH  21  28
ATOM     28  C   UNL     1      34.995 -19.859 -20.616  0.00  0.00    -0.078 C 
ATOM     29  C   UNL     1      33.589 -20.146 -20.118  0.00  0.00    -0.025 C 
ENDBRANCH  21  28
ENDBRANCH  19  20
ENDBRANCH  13  19
ENDBRANCH   5  16
BRANCH   2  30
ATOM     30  C   UNL     1      31.972  -4.753 -23.724  0.00  0.00    +0.093 C 
ATOM     31  C   UNL     1      30.528  -4.448 -24.113  0.00  0.00    +0.026 C 
BRANCH  30  32
ATOM     32  C   UNL     1      32.983  -4.180 -24.693  0.00  0.00    -0.005 C 
ATOM     33  C   UNL     1      32.710  -2.974 -25.318  0.00  0.00    -0.003 C 
ATOM     34  C   UNL     1      34.156  -4.871 -24.936  0.00  0.00    -0.003 C 
ATOM     35  C   UNL     1      33.640  -2.445 -26.212  0.00  0.00    -0.000 C 
ATOM     36  C   UNL     1      35.087  -4.342 -25.829  0.00  0.00    -0.000 C 
ATOM     37  C   UNL     1      34.829  -3.130 -26.468  0.00  0.00    -0.000 C 
ENDBRANCH  30  32
ENDBRANCH   2  30
TORSDOF 6
ENDMDL
MODEL 9
REMARK VINA RESULT:     -10.8      1.708      2.798
REMARK  Name = 10297043
REMARK  6 active torsions:
REMARK  status: ('A' for Active; 'I' for Inactive)
REMARK    1  A    between atoms: N_2  and  C_30
REMARK    2  A    between atoms: C_5  and  C_16
REMARK    3  A    between atoms: C_13  and  C_19
REMARK    4  A    between atoms: C_19  and  N_20
REMARK    5  A    between atoms: N_21  and  C_28
REMARK    6  A    between atoms: C_30  and  C_32
REMARK                            x       y       z     vdW  Elec       q    Type
REMARK                         _______ _______ _______ _____ _____    ______ ____
ROOT
ATOM      1  N   UNL     1      36.638 -20.359 -18.072  0.00  0.00    -0.301 N 
ATOM      2  N   UNL     1      33.991 -23.437 -15.772  0.00  0.00    -0.319 N 
ATOM      3  N   UNL     1      37.579 -21.210 -16.022  0.00  0.00    -0.233 NA
ATOM      4  N   UNL     1      36.123 -22.807 -14.900  0.00  0.00    -0.233 NA
ATOM      5  C   UNL     1      35.482 -20.537 -18.787  0.00  0.00    +0.046 C 
ATOM      6  C   UNL     1      35.403 -21.834 -16.942  0.00  0.00    +0.131 C 
ATOM      7  C   UNL     1      34.697 -21.447 -18.110  0.00  0.00    +0.003 C 
ATOM      8  C   UNL     1      36.607 -21.140 -16.947  0.00  0.00    +0.117 C 
ATOM      9  C   UNL     1      35.181 -22.691 -15.865  0.00  0.00    +0.113 C 
ATOM     10  C   UNL     1      37.247 -22.069 -15.035  0.00  0.00    +0.252 C 
ATOM     11  H   UNL     1      37.378 -19.762 -18.328  0.00  0.00    +0.153 HD
ATOM     12  H   UNL     1      33.319 -23.338 -16.485  0.00  0.00    +0.148 HD
ENDROOT
BRANCH   5  16
ATOM     13  C   UNL     1      34.749 -18.491 -22.406  0.00  0.00    -0.043 C 
ATOM     14  C   UNL     1      33.722 -19.204 -21.800  0.00  0.00    -0.006 C 
ATOM     15  C   UNL     1      36.015 -18.444 -21.835  0.00  0.00    -0.006 C 
ATOM     16  C   UNL     1      35.232 -19.838 -20.023  0.00  0.00    +0.013 C 
ATOM     17  C   UNL     1      33.964 -19.879 -20.603  0.00  0.00    +0.001 C 
ATOM     18  C   UNL     1      36.257 -19.120 -20.639  0.00  0.00    +0.001 C 
BRANCH  13  19
ATOM     19  C   UNL     1      34.489 -17.764 -23.694  0.00  0.00    -0.050 C 
BRANCH  19  20
ATOM     20  N   UNL     1      33.832 -16.478 -23.472  0.00  0.00    +0.387 N 
ATOM     21  N   UNL     1      33.792 -13.588 -23.387  0.00  0.00    +0.384 N 
ATOM     22  C   UNL     1      34.490 -15.737 -22.388  0.00  0.00    -0.100 C 
ATOM     23  C   UNL     1      33.818 -15.679 -24.704  0.00  0.00    -0.100 C 
ATOM     24  C   UNL     1      33.806 -14.386 -22.155  0.00  0.00    -0.101 C 
ATOM     25  C   UNL     1      33.133 -14.328 -24.470  0.00  0.00    -0.101 C 
ATOM     26  H   UNL     1      32.867 -16.660 -23.196  0.00  0.00    -0.079 HD
ATOM     27  H   UNL     1      34.758 -13.406 -23.664  0.00  0.00    -0.080 HD
BRANCH  21  28
ATOM     28  C   UNL     1      33.137 -12.300 -23.165  0.00  0.00    -0.078 C 
ATOM     29  C   UNL     1      32.104 -12.394 -22.055  0.00  0.00    -0.025 C 
ENDBRANCH  21  28
ENDBRANCH  19  20
ENDBRANCH  13  19
ENDBRANCH   5  16
BRANCH   2  30
ATOM     30  C   UNL     1      33.712 -24.330 -14.689  0.00  0.00    +0.093 C 
ATOM     31  C   UNL     1      32.972 -23.570 -13.590  0.00  0.00    +0.026 C 
BRANCH  30  32
ATOM     32  C   UNL     1      34.988 -24.983 -14.204  0.00  0.00    -0.005 C 
ATOM     33  C   UNL     1      35.676 -25.834 -15.052  0.00  0.00    -0.003 C 
ATOM     34  C   UNL     1      35.441 -24.715 -12.924  0.00  0.00    -0.003 C 
ATOM     35  C   UNL     1      36.852 -26.436 -14.606  0.00  0.00    -0.000 C 
ATOM     36  C   UNL     1      36.617 -25.317 -12.477  0.00  0.00    -0.000 C 
ATOM     37  C   UNL     1      37.322 -26.177 -13.318  0.00  0.00    -0.000 C 
ENDBRANCH  30  32
ENDBRANCH   2  30
TORSDOF 6
ENDMDL
