MODEL 1
REMARK VINA RESULT:     -12.6      0.000      0.000
REMARK  Name = 10429242
REMARK  7 active torsions:
REMARK  status: ('A' for Active; 'I' for Inactive)
REMARK    1  A    between atoms: C_1  and  C_19
REMARK    2  A    between atoms: C_4  and  O_7
REMARK    3  A    between atoms: O_7  and  C_8
REMARK    4  A    between atoms: C_8  and  C_10
REMARK    5  A    between atoms: C_10  and  C_13
REMARK    6  A    between atoms: C_12  and  C_17
REMARK    7  A    between atoms: C_19  and  C_24
REMARK                            x       y       z     vdW  Elec       q    Type
REMARK                         _______ _______ _______ _____ _____    ______ ____
ROOT
ATOM      1  C   UNL     1      34.921 -22.329 -16.373  0.00  0.00    -0.021 C 
ATOM      2  C   UNL     1      33.821 -22.481 -17.204  0.00  0.00    -0.001 C 
ATOM      3  C   UNL     1      36.072 -21.697 -16.816  0.00  0.00    -0.001 C 
ATOM      4  C   UNL     1      35.027 -21.353 -18.967  0.00  0.00    +0.139 C 
ATOM      5  C   UNL     1      33.874 -21.991 -18.508  0.00  0.00    +0.037 C 
ATOM      6  C   UNL     1      36.126 -21.206 -18.121  0.00  0.00    +0.037 C 
ENDROOT
BRANCH   4   7
ATOM      7  O   UNL     1      35.080 -20.874 -20.240  0.00  0.00    -0.467 OA
BRANCH   7   8
ATOM      8  C   UNL     1      34.375 -19.663 -20.508  0.00  0.00    +0.275 C 
BRANCH   8  10
ATOM      9  O   UNL     1      36.522 -18.596 -20.370  0.00  0.00    -0.286 OA
ATOM     10  C   UNL     1      35.358 -18.535 -20.757  0.00  0.00    +0.234 C 
BRANCH  10  13
ATOM     11  N   UNL     1      34.601 -16.284 -20.704  0.00  0.00    -0.241 NA
ATOM     12  C   UNL     1      34.032 -15.097 -22.731  0.00  0.00    -0.003 C 
ATOM     13  C   UNL     1      34.888 -17.325 -21.490  0.00  0.00    +0.120 C 
ATOM     14  C   UNL     1      34.349 -16.220 -23.486  0.00  0.00    -0.001 C 
ATOM     15  C   UNL     1      34.793 -17.375 -22.853  0.00  0.00    +0.022 C 
ATOM     16  C   UNL     1      34.173 -15.179 -21.355  0.00  0.00    +0.095 C 
BRANCH  12  17
ATOM     17  C   UNL     1      33.555 -13.846 -23.380  0.00  0.00    +0.028 C 
ATOM     18  C   UNL     1      33.389 -12.697 -22.385  0.00  0.00    +0.005 C 
ENDBRANCH  12  17
ENDBRANCH  10  13
ENDBRANCH   8  10
ENDBRANCH   7   8
ENDBRANCH   4   7
BRANCH   1  19
ATOM     19  C   UNL     1      34.862 -22.858 -14.963  0.00  0.00    +0.047 C 
BRANCH  19  24
ATOM     20  S   UNL     1      36.683 -23.232 -12.934  0.00  0.00    -0.048 S 
ATOM     21  O   UNL     1      35.368 -25.762 -15.533  0.00  0.00    -0.274 OA
ATOM     22  O   UNL     1      36.913 -25.210 -11.217  0.00  0.00    -0.263 OA
ATOM     23  N   UNL     1      36.129 -25.690 -13.351  0.00  0.00    -0.246 N 
ATOM     24  C   UNL     1      36.104 -23.656 -14.605  0.00  0.00    +0.137 C 
ATOM     25  C   UNL     1      35.818 -25.140 -14.577  0.00  0.00    +0.239 C 
ATOM     26  C   UNL     1      36.599 -24.880 -12.350  0.00  0.00    +0.279 C 
ATOM     27  H   UNL     1      36.016 -26.656 -13.196  0.00  0.00    +0.158 HD
ENDBRANCH  19  24
ENDBRANCH   1  19
TORSDOF 7
ENDMDL
MODEL 2
REMARK VINA RESULT:     -12.2      1.946      2.530
REMARK  Name = 10429242
REMARK  7 active torsions:
REMARK  status: ('A' for Active; 'I' for Inactive)
REMARK    1  A    between atoms: C_1  and  C_19
REMARK    2  A    between atoms: C_4  and  O_7
REMARK    3  A    between atoms: O_7  and  C_8
REMARK    4  A    between atoms: C_8  and  C_10
REMARK    5  A    between atoms: C_10  and  C_13
REMARK    6  A    between atoms: C_12  and  C_17
REMARK    7  A    between atoms: C_19  and  C_24
REMARK                            x       y       z     vdW  Elec       q    Type
REMARK                         _______ _______ _______ _____ _____    ______ ____
ROOT
ATOM      1  C   UNL     1      33.444 -22.034 -18.191  0.00  0.00    -0.021 C 
ATOM      2  C   UNL     1      34.663 -21.671 -18.741  0.00  0.00    -0.001 C 
ATOM      3  C   UNL     1      32.261 -21.454 -18.622  0.00  0.00    -0.001 C 
ATOM      4  C   UNL     1      33.519 -20.110 -20.188  0.00  0.00    +0.139 C 
ATOM      5  C   UNL     1      34.701 -20.703 -19.745  0.00  0.00    +0.037 C 
ATOM      6  C   UNL     1      32.298 -20.486 -19.626  0.00  0.00    +0.037 C 
ENDROOT
BRANCH   4   7
ATOM      7  O   UNL     1      33.555 -19.166 -21.167  0.00  0.00    -0.467 OA
BRANCH   7   8
ATOM      8  C   UNL     1      34.735 -19.102 -21.965  0.00  0.00    +0.275 C 
BRANCH   8  10
ATOM      9  O   UNL     1      36.698 -17.903 -21.276  0.00  0.00    -0.286 OA
ATOM     10  C   UNL     1      35.522 -17.850 -21.629  0.00  0.00    +0.234 C 
BRANCH  10  13
ATOM     11  N   UNL     1      34.433 -16.029 -20.563  0.00  0.00    -0.241 NA
ATOM     12  C   UNL     1      33.603 -14.142 -21.825  0.00  0.00    -0.003 C 
ATOM     13  C   UNL     1      34.842 -16.527 -21.732  0.00  0.00    +0.120 C 
ATOM     14  C   UNL     1      34.056 -14.722 -23.004  0.00  0.00    -0.001 C 
ATOM     15  C   UNL     1      34.697 -15.955 -22.965  0.00  0.00    +0.022 C 
ATOM     16  C   UNL     1      33.814 -14.829 -20.641  0.00  0.00    +0.095 C 
BRANCH  12  17
ATOM     17  C   UNL     1      32.913 -12.823 -21.835  0.00  0.00    +0.028 C 
ATOM     18  C   UNL     1      32.075 -12.592 -20.578  0.00  0.00    +0.005 C 
ENDBRANCH  12  17
ENDBRANCH  10  13
ENDBRANCH   8  10
ENDBRANCH   7   8
ENDBRANCH   4   7
BRANCH   1  19
ATOM     19  C   UNL     1      33.404 -23.081 -17.108  0.00  0.00    +0.047 C 
BRANCH  19  24
ATOM     20  S   UNL     1      32.410 -22.864 -14.549  0.00  0.00    -0.048 S 
ATOM     21  O   UNL     1      36.075 -23.091 -15.736  0.00  0.00    -0.274 OA
ATOM     22  O   UNL     1      33.107 -24.136 -12.356  0.00  0.00    -0.263 OA
ATOM     23  N   UNL     1      34.749 -23.687 -13.937  0.00  0.00    -0.246 N 
ATOM     24  C   UNL     1      33.732 -22.498 -15.744  0.00  0.00    +0.137 C 
ATOM     25  C   UNL     1      34.987 -23.112 -15.169  0.00  0.00    +0.239 C 
ATOM     26  C   UNL     1      33.479 -23.670 -13.422  0.00  0.00    +0.279 C 
ATOM     27  H   UNL     1      35.484 -24.105 -13.433  0.00  0.00    +0.158 HD
ENDBRANCH  19  24
ENDBRANCH   1  19
TORSDOF 7
ENDMDL
MODEL 3
REMARK VINA RESULT:     -11.7      3.291     10.199
REMARK  Name = 10429242
REMARK  7 active torsions:
REMARK  status: ('A' for Active; 'I' for Inactive)
REMARK    1  A    between atoms: C_1  and  C_19
REMARK    2  A    between atoms: C_4  and  O_7
REMARK    3  A    between atoms: O_7  and  C_8
REMARK    4  A    between atoms: C_8  and  C_10
REMARK    5  A    between atoms: C_10  and  C_13
REMARK    6  A    between atoms: C_12  and  C_17
REMARK    7  A    between atoms: C_19  and  C_24
REMARK                            x       y       z     vdW  Elec       q    Type
REMARK                         _______ _______ _______ _____ _____    ______ ____
ROOT
ATOM      1  C   UNL     1      33.474 -20.049 -20.307  0.00  0.00    -0.021 C 
ATOM      2  C   UNL     1      32.484 -20.632 -19.530  0.00  0.00    -0.001 C 
ATOM      3  C   UNL     1      34.814 -20.330 -20.090  0.00  0.00    -0.001 C 
ATOM      4  C   UNL     1      34.188 -21.806 -18.282  0.00  0.00    +0.139 C 
ATOM      5  C   UNL     1      32.843 -21.515 -18.512  0.00  0.00    +0.037 C 
ATOM      6  C   UNL     1      35.174 -21.213 -19.072  0.00  0.00    +0.037 C 
ENDROOT
BRANCH   4   7
ATOM      7  O   UNL     1      34.539 -22.667 -17.289  0.00  0.00    -0.467 OA
BRANCH   7   8
ATOM      8  C   UNL     1      33.480 -23.303 -16.576  0.00  0.00    +0.275 C 
BRANCH   8  10
ATOM      9  O   UNL     1      32.940 -22.993 -14.257  0.00  0.00    -0.286 OA
ATOM     10  C   UNL     1      33.785 -23.309 -15.090  0.00  0.00    +0.234 C 
BRANCH  10  13
ATOM     11  N   UNL     1      35.525 -24.925 -15.045  0.00  0.00    -0.241 NA
ATOM     12  C   UNL     1      37.600 -24.514 -13.875  0.00  0.00    -0.003 C 
ATOM     13  C   UNL     1      35.150 -23.709 -14.641  0.00  0.00    +0.120 C 
ATOM     14  C   UNL     1      37.142 -23.259 -13.490  0.00  0.00    -0.001 C 
ATOM     15  C   UNL     1      35.877 -22.835 -13.882  0.00  0.00    +0.022 C 
ATOM     16  C   UNL     1      36.761 -25.302 -14.646  0.00  0.00    +0.095 C 
BRANCH  12  17
ATOM     17  C   UNL     1      38.948 -24.994 -13.471  0.00  0.00    +0.028 C 
ATOM     18  C   UNL     1      39.903 -25.123 -14.659  0.00  0.00    +0.005 C 
ENDBRANCH  12  17
ENDBRANCH  10  13
ENDBRANCH   8  10
ENDBRANCH   7   8
ENDBRANCH   4   7
BRANCH   1  19
ATOM     19  C   UNL     1      33.085 -19.096 -21.408  0.00  0.00    +0.047 C 
BRANCH  19  24
ATOM     20  S   UNL     1      33.887 -18.374 -23.940  0.00  0.00    -0.048 S 
ATOM     21  O   UNL     1      35.069 -17.023 -20.524  0.00  0.00    -0.274 OA
ATOM     22  O   UNL     1      34.307 -15.986 -24.959  0.00  0.00    -0.263 OA
ATOM     23  N   UNL     1      34.764 -16.317 -22.705  0.00  0.00    -0.246 N 
ATOM     24  C   UNL     1      34.294 -18.601 -22.182  0.00  0.00    +0.137 C 
ATOM     25  C   UNL     1      34.751 -17.248 -21.687  0.00  0.00    +0.239 C 
ATOM     26  C   UNL     1      34.357 -16.687 -23.960  0.00  0.00    +0.279 C 
ATOM     27  H   UNL     1      35.065 -15.396 -22.532  0.00  0.00    +0.158 HD
ENDBRANCH  19  24
ENDBRANCH   1  19
TORSDOF 7
ENDMDL
MODEL 4
REMARK VINA RESULT:     -11.7      6.513     12.312
REMARK  Name = 10429242
REMARK  7 active torsions:
REMARK  status: ('A' for Active; 'I' for Inactive)
REMARK    1  A    between atoms: C_1  and  C_19
REMARK    2  A    between atoms: C_4  and  O_7
REMARK    3  A    between atoms: O_7  and  C_8
REMARK    4  A    between atoms: C_8  and  C_10
REMARK    5  A    between atoms: C_10  and  C_13
REMARK    6  A    between atoms: C_12  and  C_17
REMARK    7  A    between atoms: C_19  and  C_24
REMARK                            x       y       z     vdW  Elec       q    Type
REMARK                         _______ _______ _______ _____ _____    ______ ____
ROOT
ATOM      1  C   UNL     1      31.789 -11.658 -21.502  0.00  0.00    -0.021 C 
ATOM      2  C   UNL     1      32.561 -11.841 -22.639  0.00  0.00    -0.001 C 
ATOM      3  C   UNL     1      31.780 -12.597 -20.482  0.00  0.00    -0.001 C 
ATOM      4  C   UNL     1      33.344 -13.943 -21.741  0.00  0.00    +0.139 C 
ATOM      5  C   UNL     1      33.343 -12.989 -22.759  0.00  0.00    +0.037 C 
ATOM      6  C   UNL     1      32.563 -13.747 -20.602  0.00  0.00    +0.037 C 
ENDROOT
BRANCH   4   7
ATOM      7  O   UNL     1      34.106 -15.064 -21.857  0.00  0.00    -0.467 OA
BRANCH   7   8
ATOM      8  C   UNL     1      34.570 -15.402 -23.164  0.00  0.00    +0.275 C 
BRANCH   8  10
ATOM      9  O   UNL     1      33.833 -17.267 -24.485  0.00  0.00    -0.286 OA
ATOM     10  C   UNL     1      34.333 -16.875 -23.433  0.00  0.00    +0.234 C 
BRANCH  10  13
ATOM     11  N   UNL     1      33.757 -18.738 -22.076  0.00  0.00    -0.241 NA
ATOM     12  C   UNL     1      35.330 -19.691 -20.508  0.00  0.00    -0.003 C 
ATOM     13  C   UNL     1      34.719 -17.866 -22.388  0.00  0.00    +0.120 C 
ATOM     14  C   UNL     1      36.284 -18.751 -20.883  0.00  0.00    -0.001 C 
ATOM     15  C   UNL     1      35.976 -17.804 -21.854  0.00  0.00    +0.022 C 
ATOM     16  C   UNL     1      34.093 -19.642 -21.129  0.00  0.00    +0.095 C 
BRANCH  12  17
ATOM     17  C   UNL     1      35.631 -20.716 -19.473  0.00  0.00    +0.028 C 
ATOM     18  C   UNL     1      34.404 -21.549 -19.101  0.00  0.00    +0.005 C 
ENDBRANCH  12  17
ENDBRANCH  10  13
ENDBRANCH   8  10
ENDBRANCH   7   8
ENDBRANCH   4   7
BRANCH   1  19
ATOM     19  C   UNL     1      30.945 -10.417 -21.373  0.00  0.00    +0.047 C 
BRANCH  19  24
ATOM     20  S   UNL     1      31.212  -8.289 -23.099  0.00  0.00    -0.048 S 
ATOM     21  O   UNL     1      31.802  -8.432 -19.288  0.00  0.00    -0.274 OA
ATOM     22  O   UNL     1      30.448  -5.788 -22.824  0.00  0.00    -0.263 OA
ATOM     23  N   UNL     1      31.109  -6.952 -20.925  0.00  0.00    -0.246 N 
ATOM     24  C   UNL     1      31.758  -9.153 -21.595  0.00  0.00    +0.137 C 
ATOM     25  C   UNL     1      31.569  -8.169 -20.464  0.00  0.00    +0.239 C 
ATOM     26  C   UNL     1      30.859  -6.792 -22.263  0.00  0.00    +0.279 C 
ATOM     27  H   UNL     1      30.964  -6.206 -20.300  0.00  0.00    +0.158 HD
ENDBRANCH  19  24
ENDBRANCH   1  19
TORSDOF 7
ENDMDL
MODEL 5
REMARK VINA RESULT:     -11.7      4.076     10.923
REMARK  Name = 10429242
REMARK  7 active torsions:
REMARK  status: ('A' for Active; 'I' for Inactive)
REMARK    1  A    between atoms: C_1  and  C_19
REMARK    2  A    between atoms: C_4  and  O_7
REMARK    3  A    between atoms: O_7  and  C_8
REMARK    4  A    between atoms: C_8  and  C_10
REMARK    5  A    between atoms: C_10  and  C_13
REMARK    6  A    between atoms: C_12  and  C_17
REMARK    7  A    between atoms: C_19  and  C_24
REMARK                            x       y       z     vdW  Elec       q    Type
REMARK                         _______ _______ _______ _____ _____    ______ ____
ROOT
ATOM      1  C   UNL     1      34.576 -16.640 -22.796  0.00  0.00    -0.021 C 
ATOM      2  C   UNL     1      34.932 -16.780 -21.464  0.00  0.00    -0.001 C 
ATOM      3  C   UNL     1      34.134 -17.724 -23.538  0.00  0.00    -0.001 C 
ATOM      4  C   UNL     1      34.404 -19.134 -21.594  0.00  0.00    +0.139 C 
ATOM      5  C   UNL     1      34.846 -18.034 -20.859  0.00  0.00    +0.037 C 
ATOM      6  C   UNL     1      34.048 -18.979 -22.934  0.00  0.00    +0.037 C 
ENDROOT
BRANCH   4   7
ATOM      7  O   UNL     1      34.320 -20.358 -21.005  0.00  0.00    -0.467 OA
BRANCH   7   8
ATOM      8  C   UNL     1      35.150 -20.591 -19.869  0.00  0.00    +0.275 C 
BRANCH   8  10
ATOM      9  O   UNL     1      33.187 -21.624 -18.949  0.00  0.00    -0.286 OA
ATOM     10  C   UNL     1      34.376 -21.351 -18.809  0.00  0.00    +0.234 C 
BRANCH  10  13
ATOM     11  N   UNL     1      34.371 -22.564 -16.766  0.00  0.00    -0.241 NA
ATOM     12  C   UNL     1      36.296 -22.582 -15.304  0.00  0.00    -0.003 C 
ATOM     13  C   UNL     1      35.088 -21.773 -17.568  0.00  0.00    +0.120 C 
ATOM     14  C   UNL     1      36.983 -21.757 -16.187  0.00  0.00    -0.001 C 
ATOM     15  C   UNL     1      36.366 -21.334 -17.359  0.00  0.00    +0.022 C 
ATOM     16  C   UNL     1      35.004 -22.955 -15.637  0.00  0.00    +0.095 C 
BRANCH  12  17
ATOM     17  C   UNL     1      36.930 -23.051 -14.043  0.00  0.00    +0.028 C 
ATOM     18  C   UNL     1      37.361 -24.516 -14.115  0.00  0.00    +0.005 C 
ENDBRANCH  12  17
ENDBRANCH  10  13
ENDBRANCH   8  10
ENDBRANCH   7   8
ENDBRANCH   4   7
BRANCH   1  19
ATOM     19  C   UNL     1      34.669 -15.285 -23.448  0.00  0.00    +0.047 C 
BRANCH  19  24
ATOM     20  S   UNL     1      33.351 -13.146 -22.322  0.00  0.00    -0.048 S 
ATOM     21  O   UNL     1      32.964 -14.676 -25.844  0.00  0.00    -0.274 OA
ATOM     22  O   UNL     1      32.766 -10.796 -23.346  0.00  0.00    -0.263 OA
ATOM     23  N   UNL     1      32.802 -12.637 -24.764  0.00  0.00    -0.246 N 
ATOM     24  C   UNL     1      33.330 -14.567 -23.457  0.00  0.00    +0.137 C 
ATOM     25  C   UNL     1      33.018 -13.999 -24.822  0.00  0.00    +0.239 C 
ATOM     26  C   UNL     1      32.920 -11.989 -23.562  0.00  0.00    +0.279 C 
ATOM     27  H   UNL     1      32.563 -12.136 -25.577  0.00  0.00    +0.158 HD
ENDBRANCH  19  24
ENDBRANCH   1  19
TORSDOF 7
ENDMDL
MODEL 6
REMARK VINA RESULT:     -11.6      2.262      3.028
REMARK  Name = 10429242
REMARK  7 active torsions:
REMARK  status: ('A' for Active; 'I' for Inactive)
REMARK    1  A    between atoms: C_1  and  C_19
REMARK    2  A    between atoms: C_4  and  O_7
REMARK    3  A    between atoms: O_7  and  C_8
REMARK    4  A    between atoms: C_8  and  C_10
REMARK    5  A    between atoms: C_10  and  C_13
REMARK    6  A    between atoms: C_12  and  C_17
REMARK    7  A    between atoms: C_19  and  C_24
REMARK                            x       y       z     vdW  Elec       q    Type
REMARK                         _______ _______ _______ _____ _____    ______ ____
ROOT
ATOM      1  C   UNL     1      33.370 -22.185 -18.107  0.00  0.00    -0.021 C 
ATOM      2  C   UNL     1      34.748 -22.036 -18.069  0.00  0.00    -0.001 C 
ATOM      3  C   UNL     1      32.594 -21.458 -18.997  0.00  0.00    -0.001 C 
ATOM      4  C   UNL     1      34.596 -20.397 -19.837  0.00  0.00    +0.139 C 
ATOM      5  C   UNL     1      35.364 -21.137 -18.938  0.00  0.00    +0.037 C 
ATOM      6  C   UNL     1      33.211 -20.558 -19.867  0.00  0.00    +0.037 C 
ENDROOT
BRANCH   4   7
ATOM      7  O   UNL     1      35.197 -19.519 -20.686  0.00  0.00    -0.467 OA
BRANCH   7   8
ATOM      8  C   UNL     1      34.362 -18.544 -21.309  0.00  0.00    +0.275 C 
BRANCH   8  10
ATOM      9  O   UNL     1      36.429 -17.635 -22.125  0.00  0.00    -0.286 OA
ATOM     10  C   UNL     1      35.214 -17.500 -22.005  0.00  0.00    +0.234 C 
BRANCH  10  13
ATOM     11  N   UNL     1      34.338 -16.322 -23.873  0.00  0.00    -0.241 NA
ATOM     12  C   UNL     1      33.353 -14.128 -23.631  0.00  0.00    -0.003 C 
ATOM     13  C   UNL     1      34.549 -16.284 -22.555  0.00  0.00    +0.120 C 
ATOM     14  C   UNL     1      33.605 -14.158 -22.264  0.00  0.00    -0.001 C 
ATOM     15  C   UNL     1      34.222 -15.268 -21.700  0.00  0.00    +0.022 C 
ATOM     16  C   UNL     1      33.736 -15.225 -24.385  0.00  0.00    +0.095 C 
BRANCH  12  17
ATOM     17  C   UNL     1      32.694 -12.954 -24.264  0.00  0.00    +0.028 C 
ATOM     18  C   UNL     1      32.694 -13.035 -25.791  0.00  0.00    +0.005 C 
ENDBRANCH  12  17
ENDBRANCH  10  13
ENDBRANCH   8  10
ENDBRANCH   7   8
ENDBRANCH   4   7
BRANCH   1  19
ATOM     19  C   UNL     1      32.705 -23.158 -17.169  0.00  0.00    +0.047 C 
BRANCH  19  24
ATOM     20  S   UNL     1      31.351 -22.720 -14.812  0.00  0.00    -0.048 S 
ATOM     21  O   UNL     1      34.889 -24.157 -15.367  0.00  0.00    -0.274 OA
ATOM     22  O   UNL     1      31.132 -24.249 -12.684  0.00  0.00    -0.263 OA
ATOM     23  N   UNL     1      33.110 -24.332 -13.900  0.00  0.00    -0.246 N 
ATOM     24  C   UNL     1      32.929 -22.786 -15.713  0.00  0.00    +0.137 C 
ATOM     25  C   UNL     1      33.767 -23.823 -15.001  0.00  0.00    +0.239 C 
ATOM     26  C   UNL     1      31.843 -23.896 -13.612  0.00  0.00    +0.279 C 
ATOM     27  H   UNL     1      33.548 -25.001 -13.325  0.00  0.00    +0.158 HD
ENDBRANCH  19  24
ENDBRANCH   1  19
TORSDOF 7
ENDMDL
MODEL 7
REMARK VINA RESULT:     -11.6      5.252     11.123
REMARK  Name = 10429242
REMARK  7 active torsions:
REMARK  status: ('A' for Active; 'I' for Inactive)
REMARK    1  A    between atoms: C_1  and  C_19
REMARK    2  A    between atoms: C_4  and  O_7
REMARK    3  A    between atoms: O_7  and  C_8
REMARK    4  A    between atoms: C_8  and  C_10
REMARK    5  A    between atoms: C_10  and  C_13
REMARK    6  A    between atoms: C_12  and  C_17
REMARK    7  A    between atoms: C_19  and  C_24
REMARK                            x       y       z     vdW  Elec       q    Type
REMARK                         _______ _______ _______ _____ _____    ______ ____
ROOT
ATOM      1  C   UNL     1      33.141 -14.047 -23.462  0.00  0.00    -0.021 C 
ATOM      2  C   UNL     1      33.241 -14.953 -24.507  0.00  0.00    -0.001 C 
ATOM      3  C   UNL     1      33.738 -14.296 -22.236  0.00  0.00    -0.001 C 
ATOM      4  C   UNL     1      34.559 -16.402 -23.092  0.00  0.00    +0.139 C 
ATOM      5  C   UNL     1      33.954 -16.137 -24.320  0.00  0.00    +0.037 C 
ATOM      6  C   UNL     1      34.451 -15.481 -22.049  0.00  0.00    +0.037 C 
ENDROOT
BRANCH   4   7
ATOM      7  O   UNL     1      35.255 -17.557 -22.909  0.00  0.00    -0.467 OA
BRANCH   7   8
ATOM      8  C   UNL     1      34.566 -18.638 -22.283  0.00  0.00    +0.275 C 
BRANCH   8  10
ATOM      9  O   UNL     1      36.292 -18.464 -20.623  0.00  0.00    -0.286 OA
ATOM     10  C   UNL     1      35.238 -18.991 -20.970  0.00  0.00    +0.234 C 
BRANCH  10  13
ATOM     11  N   UNL     1      35.446 -20.663 -19.295  0.00  0.00    -0.241 NA
ATOM     12  C   UNL     1      33.518 -21.854 -18.456  0.00  0.00    -0.003 C 
ATOM     13  C   UNL     1      34.595 -20.005 -20.086  0.00  0.00    +0.120 C 
ATOM     14  C   UNL     1      32.691 -21.130 -19.307  0.00  0.00    -0.001 C 
ATOM     15  C   UNL     1      33.240 -20.172 -20.153  0.00  0.00    +0.022 C 
ATOM     16  C   UNL     1      34.877 -21.585 -18.488  0.00  0.00    +0.095 C 
BRANCH  12  17
ATOM     17  C   UNL     1      32.961 -22.885 -17.540  0.00  0.00    +0.028 C 
ATOM     18  C   UNL     1      31.681 -22.420 -16.846  0.00  0.00    +0.005 C 
ENDBRANCH  12  17
ENDBRANCH  10  13
ENDBRANCH   8  10
ENDBRANCH   7   8
ENDBRANCH   4   7
BRANCH   1  19
ATOM     19  C   UNL     1      32.371 -12.767 -23.664  0.00  0.00    +0.047 C 
BRANCH  19  24
ATOM     20  S   UNL     1      32.571 -10.055 -23.239  0.00  0.00    -0.048 S 
ATOM     21  O   UNL     1      31.428 -12.831 -20.814  0.00  0.00    -0.274 OA
ATOM     22  O   UNL     1      30.908  -8.409 -22.040  0.00  0.00    -0.263 OA
ATOM     23  N   UNL     1      31.039 -10.596 -21.268  0.00  0.00    -0.246 N 
ATOM     24  C   UNL     1      32.673 -11.747 -22.580  0.00  0.00    +0.137 C 
ATOM     25  C   UNL     1      31.658 -11.815 -21.462  0.00  0.00    +0.239 C 
ATOM     26  C   UNL     1      31.365  -9.541 -22.079  0.00  0.00    +0.279 C 
ATOM     27  H   UNL     1      30.371 -10.486 -20.554  0.00  0.00    +0.158 HD
ENDBRANCH  19  24
ENDBRANCH   1  19
TORSDOF 7
ENDMDL
MODEL 8
REMARK VINA RESULT:     -11.4      3.703      9.914
REMARK  Name = 10429242
REMARK  7 active torsions:
REMARK  status: ('A' for Active; 'I' for Inactive)
REMARK    1  A    between atoms: C_1  and  C_19
REMARK    2  A    between atoms: C_4  and  O_7
REMARK    3  A    between atoms: O_7  and  C_8
REMARK    4  A    between atoms: C_8  and  C_10
REMARK    5  A    between atoms: C_10  and  C_13
REMARK    6  A    between atoms: C_12  and  C_17
REMARK    7  A    between atoms: C_19  and  C_24
REMARK                            x       y       z     vdW  Elec       q    Type
REMARK                         _______ _______ _______ _____ _____    ______ ____
ROOT
ATOM      1  C   UNL     1      33.858 -20.083 -20.275  0.00  0.00    -0.021 C 
ATOM      2  C   UNL     1      32.970 -20.796 -19.484  0.00  0.00    -0.001 C 
ATOM      3  C   UNL     1      35.227 -20.161 -20.066  0.00  0.00    -0.001 C 
ATOM      4  C   UNL     1      34.835 -21.691 -18.237  0.00  0.00    +0.139 C 
ATOM      5  C   UNL     1      33.461 -21.604 -18.459  0.00  0.00    +0.037 C 
ATOM      6  C   UNL     1      35.719 -20.969 -19.040  0.00  0.00    +0.037 C 
ENDROOT
BRANCH   4   7
ATOM      7  O   UNL     1      35.316 -22.479 -17.237  0.00  0.00    -0.467 OA
BRANCH   7   8
ATOM      8  C   UNL     1      35.160 -22.001 -15.902  0.00  0.00    +0.275 C 
BRANCH   8  10
ATOM      9  O   UNL     1      35.670 -23.840 -14.443  0.00  0.00    -0.286 OA
ATOM     10  C   UNL     1      34.805 -23.151 -14.978  0.00  0.00    +0.234 C 
BRANCH  10  13
ATOM     11  N   UNL     1      33.149 -24.269 -13.694  0.00  0.00    -0.241 NA
ATOM     12  C   UNL     1      30.795 -24.025 -14.182  0.00  0.00    -0.003 C 
ATOM     13  C   UNL     1      33.365 -23.443 -14.720  0.00  0.00    +0.120 C 
ATOM     14  C   UNL     1      31.095 -23.171 -15.237  0.00  0.00    -0.001 C 
ATOM     15  C   UNL     1      32.421 -22.865 -15.522  0.00  0.00    +0.022 C 
ATOM     16  C   UNL     1      31.848 -24.543 -13.447  0.00  0.00    +0.095 C 
BRANCH  12  17
ATOM     17  C   UNL     1      29.386 -24.371 -13.854  0.00  0.00    +0.028 C 
ATOM     18  C   UNL     1      28.472 -24.329 -15.079  0.00  0.00    +0.005 C 
ENDBRANCH  12  17
ENDBRANCH  10  13
ENDBRANCH   8  10
ENDBRANCH   7   8
ENDBRANCH   4   7
BRANCH   1  19
ATOM     19  C   UNL     1      33.327 -19.211 -21.383  0.00  0.00    +0.047 C 
BRANCH  19  24
ATOM     20  S   UNL     1      33.962 -18.441 -23.948  0.00  0.00    -0.048 S 
ATOM     21  O   UNL     1      35.076 -16.904 -20.588  0.00  0.00    -0.274 OA
ATOM     22  O   UNL     1      34.065 -16.037 -25.010  0.00  0.00    -0.263 OA
ATOM     23  N   UNL     1      34.625 -16.275 -22.768  0.00  0.00    -0.246 N 
ATOM     24  C   UNL     1      34.445 -18.590 -22.201  0.00  0.00    +0.137 C 
ATOM     25  C   UNL     1      34.753 -17.184 -21.738  0.00  0.00    +0.239 C 
ATOM     26  C   UNL     1      34.228 -16.711 -24.005  0.00  0.00    +0.279 C 
ATOM     27  H   UNL     1      34.819 -15.322 -22.616  0.00  0.00    +0.158 HD
ENDBRANCH  19  24
ENDBRANCH   1  19
TORSDOF 7
ENDMDL
MODEL 9
REMARK VINA RESULT:     -11.3      2.788      3.457
REMARK  Name = 10429242
REMARK  7 active torsions:
REMARK  status: ('A' for Active; 'I' for Inactive)
REMARK    1  A    between atoms: C_1  and  C_19
REMARK    2  A    between atoms: C_4  and  O_7
REMARK    3  A    between atoms: O_7  and  C_8
REMARK    4  A    between atoms: C_8  and  C_10
REMARK    5  A    between atoms: C_10  and  C_13
REMARK    6  A    between atoms: C_12  and  C_17
REMARK    7  A    between atoms: C_19  and  C_24
REMARK                            x       y       z     vdW  Elec       q    Type
REMARK                         _______ _______ _______ _____ _____    ______ ____
ROOT
ATOM      1  C   UNL     1      33.877 -22.590 -16.846  0.00  0.00    -0.021 C 
ATOM      2  C   UNL     1      35.140 -22.019 -16.837  0.00  0.00    -0.001 C 
ATOM      3  C   UNL     1      33.071 -22.532 -17.973  0.00  0.00    -0.001 C 
ATOM      4  C   UNL     1      34.809 -21.308 -19.122  0.00  0.00    +0.139 C 
ATOM      5  C   UNL     1      35.609 -21.375 -17.981  0.00  0.00    +0.037 C 
ATOM      6  C   UNL     1      33.540 -21.887 -19.118  0.00  0.00    +0.037 C 
ENDROOT
BRANCH   4   7
ATOM      7  O   UNL     1      35.265 -20.679 -20.239  0.00  0.00    -0.467 OA
BRANCH   7   8
ATOM      8  C   UNL     1      34.512 -19.562 -20.709  0.00  0.00    +0.275 C 
BRANCH   8  10
ATOM      9  O   UNL     1      36.532 -18.323 -20.319  0.00  0.00    -0.286 OA
ATOM     10  C   UNL     1      35.404 -18.339 -20.804  0.00  0.00    +0.234 C 
BRANCH  10  13
ATOM     11  N   UNL     1      34.543 -16.128 -20.695  0.00  0.00    -0.241 NA
ATOM     12  C   UNL     1      33.943 -14.907 -22.693  0.00  0.00    -0.003 C 
ATOM     13  C   UNL     1      34.887 -17.130 -21.508  0.00  0.00    +0.120 C 
ATOM     14  C   UNL     1      34.321 -15.991 -23.477  0.00  0.00    -0.001 C 
ATOM     15  C   UNL     1      34.809 -17.144 -22.872  0.00  0.00    +0.022 C 
ATOM     16  C   UNL     1      34.073 -15.024 -21.319  0.00  0.00    +0.095 C 
BRANCH  12  17
ATOM     17  C   UNL     1      33.417 -13.660 -23.311  0.00  0.00    +0.028 C 
ATOM     18  C   UNL     1      33.308 -12.511 -22.308  0.00  0.00    +0.005 C 
ENDBRANCH  12  17
ENDBRANCH  10  13
ENDBRANCH   8  10
ENDBRANCH   7   8
ENDBRANCH   4   7
BRANCH   1  19
ATOM     19  C   UNL     1      33.372 -23.288 -15.609  0.00  0.00    +0.047 C 
BRANCH  19  24
ATOM     20  S   UNL     1      30.703 -22.754 -16.027  0.00  0.00    -0.048 S 
ATOM     21  O   UNL     1      32.612 -23.216 -12.705  0.00  0.00    -0.274 OA
ATOM     22  O   UNL     1      28.577 -23.787 -14.876  0.00  0.00    -0.263 OA
ATOM     23  N   UNL     1      30.514 -23.567 -13.613  0.00  0.00    -0.246 N 
ATOM     24  C   UNL     1      32.187 -22.563 -14.993  0.00  0.00    +0.137 C 
ATOM     25  C   UNL     1      31.827 -23.142 -13.644  0.00  0.00    +0.239 C 
ATOM     26  C   UNL     1      29.744 -23.456 -14.741  0.00  0.00    +0.279 C 
ATOM     27  H   UNL     1      30.134 -23.944 -12.787  0.00  0.00    +0.158 HD
ENDBRANCH  19  24
ENDBRANCH   1  19
TORSDOF 7
ENDMDL
