MODEL 1
REMARK VINA RESULT:     -13.0      0.000      0.000
REMARK  Name = 54671008
REMARK  7 active torsions:
REMARK  status: ('A' for Active; 'I' for Inactive)
REMARK    1  A    between atoms: C_4  and  C_21
REMARK    2  A    between atoms: C_6  and  C_11
REMARK    3  A    between atoms: C_8  and  O_34
REMARK    4  A    between atoms: N_10  and  C_13
REMARK    5  A    between atoms: C_13  and  C_15
REMARK    6  A    between atoms: C_21  and  N_25
REMARK    7  A    between atoms: C_26  and  C_31
REMARK                            x       y       z     vdW  Elec       q    Type
REMARK                         _______ _______ _______ _____ _____    ______ ____
ROOT
ATOM      1  O   UNL     1      35.901 -22.721 -14.549  0.00  0.00    -0.271 OA
ATOM      2  N   UNL     1      33.591 -23.075 -14.422  0.00  0.00    -0.232 N 
ATOM      3  N   UNL     1      32.276 -22.858 -16.391  0.00  0.00    -0.386 NA
ATOM      4  C   UNL     1      32.386 -23.101 -15.122  0.00  0.00    +0.182 C 
ATOM      5  C   UNL     1      34.790 -22.773 -15.073  0.00  0.00    +0.265 C 
ATOM      6  C   UNL     1      33.427 -22.559 -17.068  0.00  0.00    +0.199 C 
ATOM      7  C   UNL     1      33.599 -23.367 -12.990  0.00  0.00    +0.122 C 
ATOM      8  C   UNL     1      34.652 -22.497 -16.529  0.00  0.00    +0.245 C 
ENDROOT
BRANCH   6  11
ATOM      9  O   UNL     1      33.460 -23.176 -19.334  0.00  0.00    -0.268 OA
ATOM     10  N   UNL     1      32.924 -20.979 -18.770  0.00  0.00    -0.295 N 
ATOM     11  C   UNL     1      33.276 -22.289 -18.505  0.00  0.00    +0.275 C 
ATOM     12  H   UNL     1      32.806 -20.363 -18.011  0.00  0.00    +0.150 HD
BRANCH  10  13
ATOM     13  C   UNL     1      32.718 -20.469 -20.107  0.00  0.00    +0.117 C 
BRANCH  13  15
ATOM     14  F   UNL     1      37.309 -17.901 -22.113  0.00  0.00    -0.204 F 
ATOM     15  C   UNL     1      33.942 -19.784 -20.642  0.00  0.00    -0.002 C 
ATOM     16  C   UNL     1      35.157 -19.898 -19.965  0.00  0.00    -0.000 C 
ATOM     17  C   UNL     1      33.866 -19.035 -21.816  0.00  0.00    -0.000 C 
ATOM     18  C   UNL     1      36.294 -19.261 -20.462  0.00  0.00    +0.029 C 
ATOM     19  C   UNL     1      35.003 -18.398 -22.313  0.00  0.00    +0.029 C 
ATOM     20  C   UNL     1      36.217 -18.512 -21.636  0.00  0.00    +0.140 C 
ENDBRANCH  13  15
ENDBRANCH  10  13
ENDBRANCH   6  11
BRANCH   4  21
ATOM     21  C   UNL     1      31.127 -23.434 -14.358  0.00  0.00    +0.117 C 
ATOM     22  C   UNL     1      31.067 -24.932 -14.094  0.00  0.00    +0.028 C 
ATOM     23  C   UNL     1      31.085 -22.637 -13.061  0.00  0.00    +0.028 C 
BRANCH  21  25
ATOM     24  O   UNL     1      28.395 -24.315 -14.322  0.00  0.00    -0.265 OA
ATOM     25  N   UNL     1      30.079 -23.022 -15.256  0.00  0.00    -0.293 N 
ATOM     26  C   UNL     1      28.781 -23.505 -15.160  0.00  0.00    +0.302 C 
ATOM     27  H   UNL     1      30.292 -22.372 -15.965  0.00  0.00    +0.150 HD
BRANCH  26  31
ATOM     28  O   UNL     1      27.179 -21.818 -15.980  0.00  0.00    -0.416 OA
ATOM     29  N   UNL     1      27.502 -23.590 -17.306  0.00  0.00    -0.102 NA
ATOM     30  N   UNL     1      26.584 -22.760 -17.919  0.00  0.00    -0.111 NA
ATOM     31  C   UNL     1      27.822 -23.001 -16.178  0.00  0.00    +0.304 A 
ATOM     32  C   UNL     1      26.425 -21.739 -17.110  0.00  0.00    +0.227 A 
ATOM     33  C   UNL     1      25.569 -20.555 -17.253  0.00  0.00    +0.097 C 
ENDBRANCH  26  31
ENDBRANCH  21  25
ENDBRANCH   4  21
BRANCH   8  34
ATOM     34  O   UNL     1      35.787 -22.192 -17.246  0.00  0.00    -0.370 OA
ATOM     35  H   UNL     1      35.973 -22.647 -18.044  0.00  0.00    +0.211 HD
ENDBRANCH   8  34
TORSDOF 7
ENDMDL
MODEL 2
REMARK VINA RESULT:     -11.7      2.382      6.013
REMARK  Name = 54671008
REMARK  7 active torsions:
REMARK  status: ('A' for Active; 'I' for Inactive)
REMARK    1  A    between atoms: C_4  and  C_21
REMARK    2  A    between atoms: C_6  and  C_11
REMARK    3  A    between atoms: C_8  and  O_34
REMARK    4  A    between atoms: N_10  and  C_13
REMARK    5  A    between atoms: C_13  and  C_15
REMARK    6  A    between atoms: C_21  and  N_25
REMARK    7  A    between atoms: C_26  and  C_31
REMARK                            x       y       z     vdW  Elec       q    Type
REMARK                         _______ _______ _______ _____ _____    ______ ____
ROOT
ATOM      1  O   UNL     1      29.540 -21.774 -16.680  0.00  0.00    -0.271 OA
ATOM      2  N   UNL     1      31.152 -22.774 -15.309  0.00  0.00    -0.232 N 
ATOM      3  N   UNL     1      33.359 -23.069 -16.143  0.00  0.00    -0.386 NA
ATOM      4  C   UNL     1      32.476 -23.193 -15.200  0.00  0.00    +0.182 C 
ATOM      5  C   UNL     1      30.685 -22.175 -16.482  0.00  0.00    +0.265 C 
ATOM      6  C   UNL     1      32.945 -22.486 -17.309  0.00  0.00    +0.199 C 
ATOM      7  C   UNL     1      30.241 -22.963 -14.182  0.00  0.00    +0.122 C 
ATOM      8  C   UNL     1      31.706 -22.036 -17.556  0.00  0.00    +0.245 C 
ENDROOT
BRANCH   6  11
ATOM      9  O   UNL     1      33.966 -23.109 -19.330  0.00  0.00    -0.268 OA
ATOM     10  N   UNL     1      34.858 -21.330 -18.115  0.00  0.00    -0.295 N 
ATOM     11  C   UNL     1      33.963 -22.355 -18.360  0.00  0.00    +0.275 C 
ATOM     12  H   UNL     1      34.745 -20.796 -17.296  0.00  0.00    +0.150 HD
BRANCH  10  13
ATOM     13  C   UNL     1      35.951 -21.003 -19.003  0.00  0.00    +0.117 C 
BRANCH  13  15
ATOM     14  F   UNL     1      34.456 -17.198 -22.874  0.00  0.00    -0.204 F 
ATOM     15  C   UNL     1      35.552 -19.988 -20.035  0.00  0.00    -0.002 C 
ATOM     16  C   UNL     1      34.262 -20.002 -20.565  0.00  0.00    -0.000 C 
ATOM     17  C   UNL     1      36.472 -19.032 -20.465  0.00  0.00    -0.000 C 
ATOM     18  C   UNL     1      33.892 -19.060 -21.524  0.00  0.00    +0.029 C 
ATOM     19  C   UNL     1      36.102 -18.089 -21.424  0.00  0.00    +0.029 C 
ATOM     20  C   UNL     1      34.812 -18.103 -21.954  0.00  0.00    +0.140 C 
ENDBRANCH  13  15
ENDBRANCH  10  13
ENDBRANCH   6  11
BRANCH   4  21
ATOM     21  C   UNL     1      32.915 -23.834 -13.905  0.00  0.00    +0.117 C 
ATOM     22  C   UNL     1      33.057 -22.768 -12.827  0.00  0.00    +0.028 C 
ATOM     23  C   UNL     1      31.918 -24.909 -13.498  0.00  0.00    +0.028 C 
BRANCH  21  25
ATOM     24  O   UNL     1      35.089 -24.344 -12.101  0.00  0.00    -0.265 OA
ATOM     25  N   UNL     1      34.193 -24.409 -14.239  0.00  0.00    -0.293 N 
ATOM     26  C   UNL     1      35.187 -24.619 -13.294  0.00  0.00    +0.302 C 
ATOM     27  H   UNL     1      34.367 -24.663 -15.175  0.00  0.00    +0.150 HD
BRANCH  26  31
ATOM     28  O   UNL     1      37.551 -24.402 -13.965  0.00  0.00    -0.416 OA
ATOM     29  N   UNL     1      36.666 -26.450 -14.135  0.00  0.00    -0.102 NA
ATOM     30  N   UNL     1      37.982 -26.518 -14.550  0.00  0.00    -0.111 NA
ATOM     31  C   UNL     1      36.458 -25.198 -13.803  0.00  0.00    +0.304 A 
ATOM     32  C   UNL     1      38.459 -25.301 -14.434  0.00  0.00    +0.227 A 
ATOM     33  C   UNL     1      39.802 -24.788 -14.732  0.00  0.00    +0.097 C 
ENDBRANCH  26  31
ENDBRANCH  21  25
ENDBRANCH   4  21
BRANCH   8  34
ATOM     34  O   UNL     1      31.329 -21.455 -18.745  0.00  0.00    -0.370 OA
ATOM     35  H   UNL     1      31.670 -20.616 -18.985  0.00  0.00    +0.211 HD
ENDBRANCH   8  34
TORSDOF 7
ENDMDL
MODEL 3
REMARK VINA RESULT:     -11.2      2.028      2.871
REMARK  Name = 54671008
REMARK  7 active torsions:
REMARK  status: ('A' for Active; 'I' for Inactive)
REMARK    1  A    between atoms: C_4  and  C_21
REMARK    2  A    between atoms: C_6  and  C_11
REMARK    3  A    between atoms: C_8  and  O_34
REMARK    4  A    between atoms: N_10  and  C_13
REMARK    5  A    between atoms: C_13  and  C_15
REMARK    6  A    between atoms: C_21  and  N_25
REMARK    7  A    between atoms: C_26  and  C_31
REMARK                            x       y       z     vdW  Elec       q    Type
REMARK                         _______ _______ _______ _____ _____    ______ ____
ROOT
ATOM      1  O   UNL     1      37.697 -20.676 -16.309  0.00  0.00    -0.271 OA
ATOM      2  N   UNL     1      36.114 -22.155 -15.420  0.00  0.00    -0.232 N 
ATOM      3  N   UNL     1      34.239 -22.776 -16.743  0.00  0.00    -0.386 NA
ATOM      4  C   UNL     1      34.923 -22.842 -15.643  0.00  0.00    +0.182 C 
ATOM      5  C   UNL     1      36.657 -21.326 -16.405  0.00  0.00    +0.265 C 
ATOM      6  C   UNL     1      34.735 -21.976 -17.736  0.00  0.00    +0.199 C 
ATOM      7  C   UNL     1      36.804 -22.305 -14.140  0.00  0.00    +0.122 C 
ATOM      8  C   UNL     1      35.865 -21.258 -17.664  0.00  0.00    +0.245 C 
ENDROOT
BRANCH   6  11
ATOM      9  O   UNL     1      33.412 -22.929 -19.426  0.00  0.00    -0.268 OA
ATOM     10  N   UNL     1      33.890 -20.649 -19.516  0.00  0.00    -0.295 N 
ATOM     11  C   UNL     1      33.943 -21.919 -18.973  0.00  0.00    +0.275 C 
ATOM     12  H   UNL     1      34.363 -19.921 -19.052  0.00  0.00    +0.150 HD
BRANCH  10  13
ATOM     13  C   UNL     1      33.173 -20.338 -20.732  0.00  0.00    +0.117 C 
BRANCH  13  15
ATOM     14  F   UNL     1      35.311 -15.833 -23.346  0.00  0.00    -0.204 F 
ATOM     15  C   UNL     1      33.743 -19.136 -21.429  0.00  0.00    -0.002 C 
ATOM     16  C   UNL     1      34.498 -18.208 -20.713  0.00  0.00    -0.000 C 
ATOM     17  C   UNL     1      33.518 -18.949 -22.793  0.00  0.00    -0.000 C 
ATOM     18  C   UNL     1      35.027 -17.092 -21.360  0.00  0.00    +0.029 C 
ATOM     19  C   UNL     1      34.047 -17.833 -23.441  0.00  0.00    +0.029 C 
ATOM     20  C   UNL     1      34.802 -16.904 -22.724  0.00  0.00    +0.140 C 
ENDBRANCH  13  15
ENDBRANCH  10  13
ENDBRANCH   6  11
BRANCH   4  21
ATOM     21  C   UNL     1      34.391 -23.721 -14.537  0.00  0.00    +0.117 C 
ATOM     22  C   UNL     1      35.033 -25.099 -14.620  0.00  0.00    +0.028 C 
ATOM     23  C   UNL     1      34.652 -23.066 -13.187  0.00  0.00    +0.028 C 
BRANCH  21  25
ATOM     24  O   UNL     1      32.312 -24.478 -12.707  0.00  0.00    -0.265 OA
ATOM     25  N   UNL     1      32.980 -23.788 -14.818  0.00  0.00    -0.293 N 
ATOM     26  C   UNL     1      32.045 -24.166 -13.865  0.00  0.00    +0.302 C 
ATOM     27  H   UNL     1      32.667 -23.555 -15.723  0.00  0.00    +0.150 HD
BRANCH  26  31
ATOM     28  O   UNL     1      30.204 -23.358 -15.294  0.00  0.00    -0.416 OA
ATOM     29  N   UNL     1      29.692 -25.010 -13.874  0.00  0.00    -0.102 NA
ATOM     30  N   UNL     1      28.552 -24.690 -14.586  0.00  0.00    -0.111 NA
ATOM     31  C   UNL     1      30.631 -24.209 -14.320  0.00  0.00    +0.304 A 
ATOM     32  C   UNL     1      28.897 -23.722 -15.402  0.00  0.00    +0.227 A 
ATOM     33  C   UNL     1      28.088 -22.996 -16.389  0.00  0.00    +0.097 C 
ENDBRANCH  26  31
ENDBRANCH  21  25
ENDBRANCH   4  21
BRANCH   8  34
ATOM     34  O   UNL     1      36.331 -20.464 -18.687  0.00  0.00    -0.370 OA
ATOM     35  H   UNL     1      37.197 -20.591 -19.021  0.00  0.00    +0.211 HD
ENDBRANCH   8  34
TORSDOF 7
ENDMDL
MODEL 4
REMARK VINA RESULT:     -10.7      6.294      9.681
REMARK  Name = 54671008
REMARK  7 active torsions:
REMARK  status: ('A' for Active; 'I' for Inactive)
REMARK    1  A    between atoms: C_4  and  C_21
REMARK    2  A    between atoms: C_6  and  C_11
REMARK    3  A    between atoms: C_8  and  O_34
REMARK    4  A    between atoms: N_10  and  C_13
REMARK    5  A    between atoms: C_13  and  C_15
REMARK    6  A    between atoms: C_21  and  N_25
REMARK    7  A    between atoms: C_26  and  C_31
REMARK                            x       y       z     vdW  Elec       q    Type
REMARK                         _______ _______ _______ _____ _____    ______ ____
ROOT
ATOM      1  O   UNL     1      33.043 -15.571 -25.442  0.00  0.00    -0.271 OA
ATOM      2  N   UNL     1      34.093 -16.925 -23.847  0.00  0.00    -0.232 N 
ATOM      3  N   UNL     1      34.342 -16.116 -21.625  0.00  0.00    -0.386 NA
ATOM      4  C   UNL     1      34.511 -17.037 -22.523  0.00  0.00    +0.182 C 
ATOM      5  C   UNL     1      33.447 -15.771 -24.298  0.00  0.00    +0.265 C 
ATOM      6  C   UNL     1      33.712 -14.969 -22.023  0.00  0.00    +0.199 C 
ATOM      7  C   UNL     1      34.333 -18.029 -24.774  0.00  0.00    +0.122 C 
ATOM      8  C   UNL     1      33.258 -14.721 -23.260  0.00  0.00    +0.245 C 
ENDROOT
BRANCH   6  11
ATOM      9  O   UNL     1      34.495 -13.501 -20.365  0.00  0.00    -0.268 OA
ATOM     10  N   UNL     1      32.211 -13.567 -20.829  0.00  0.00    -0.295 N 
ATOM     11  C   UNL     1      33.532 -13.940 -20.989  0.00  0.00    +0.275 C 
ATOM     12  H   UNL     1      31.531 -13.998 -21.395  0.00  0.00    +0.150 HD
BRANCH  10  13
ATOM     13  C   UNL     1      31.779 -12.572 -19.873  0.00  0.00    +0.117 C 
BRANCH  13  15
ATOM     14  F   UNL     1      30.933  -7.555 -22.282  0.00  0.00    -0.204 F 
ATOM     15  C   UNL     1      31.554 -11.234 -20.515  0.00  0.00    -0.002 C 
ATOM     16  C   UNL     1      31.352 -10.105 -19.722  0.00  0.00    -0.000 C 
ATOM     17  C   UNL     1      31.545 -11.120 -21.905  0.00  0.00    -0.000 C 
ATOM     18  C   UNL     1      31.142  -8.862 -20.319  0.00  0.00    +0.029 C 
ATOM     19  C   UNL     1      31.335  -9.878 -22.503  0.00  0.00    +0.029 C 
ATOM     20  C   UNL     1      31.134  -8.748 -21.709  0.00  0.00    +0.140 C 
ENDBRANCH  13  15
ENDBRANCH  10  13
ENDBRANCH   6  11
BRANCH   4  21
ATOM     21  C   UNL     1      35.203 -18.311 -22.100  0.00  0.00    +0.117 C 
ATOM     22  C   UNL     1      35.485 -19.173 -23.323  0.00  0.00    +0.028 C 
ATOM     23  C   UNL     1      36.484 -17.976 -21.348  0.00  0.00    +0.028 C 
BRANCH  21  25
ATOM     24  O   UNL     1      35.675 -20.518 -20.326  0.00  0.00    -0.265 OA
ATOM     25  N   UNL     1      34.239 -18.938 -21.233  0.00  0.00    -0.293 N 
ATOM     26  C   UNL     1      34.562 -20.005 -20.406  0.00  0.00    +0.302 C 
ATOM     27  H   UNL     1      33.316 -18.596 -21.227  0.00  0.00    +0.150 HD
BRANCH  26  31
ATOM     28  O   UNL     1      33.703 -21.489 -18.633  0.00  0.00    -0.416 OA
ATOM     29  N   UNL     1      32.179 -20.237 -19.688  0.00  0.00    -0.102 NA
ATOM     30  N   UNL     1      31.524 -20.997 -18.738  0.00  0.00    -0.111 NA
ATOM     31  C   UNL     1      33.448 -20.556 -19.591  0.00  0.00    +0.304 A 
ATOM     32  C   UNL     1      32.452 -21.712 -18.146  0.00  0.00    +0.227 A 
ATOM     33  C   UNL     1      32.329 -22.693 -17.061  0.00  0.00    +0.097 C 
ENDBRANCH  26  31
ENDBRANCH  21  25
ENDBRANCH   4  21
BRANCH   8  34
ATOM     34  O   UNL     1      32.628 -13.551 -23.621  0.00  0.00    -0.370 OA
ATOM     35  H   UNL     1      31.809 -13.320 -23.230  0.00  0.00    +0.211 HD
ENDBRANCH   8  34
TORSDOF 7
ENDMDL
MODEL 5
REMARK VINA RESULT:     -10.5      4.903      9.048
REMARK  Name = 54671008
REMARK  7 active torsions:
REMARK  status: ('A' for Active; 'I' for Inactive)
REMARK    1  A    between atoms: C_4  and  C_21
REMARK    2  A    between atoms: C_6  and  C_11
REMARK    3  A    between atoms: C_8  and  O_34
REMARK    4  A    between atoms: N_10  and  C_13
REMARK    5  A    between atoms: C_13  and  C_15
REMARK    6  A    between atoms: C_21  and  N_25
REMARK    7  A    between atoms: C_26  and  C_31
REMARK                            x       y       z     vdW  Elec       q    Type
REMARK                         _______ _______ _______ _____ _____    ______ ____
ROOT
ATOM      1  O   UNL     1      32.336 -21.598 -19.537  0.00  0.00    -0.271 OA
ATOM      2  N   UNL     1      33.839 -20.109 -20.539  0.00  0.00    -0.232 N 
ATOM      3  N   UNL     1      35.945 -19.721 -19.507  0.00  0.00    -0.386 NA
ATOM      4  C   UNL     1      35.091 -19.504 -20.459  0.00  0.00    +0.182 C 
ATOM      5  C   UNL     1      33.418 -21.014 -19.561  0.00  0.00    +0.265 C 
ATOM      6  C   UNL     1      35.574 -20.603 -18.529  0.00  0.00    +0.199 C 
ATOM      7  C   UNL     1      32.955 -19.792 -21.659  0.00  0.00    +0.122 C 
ATOM      8  C   UNL     1      34.406 -21.257 -18.474  0.00  0.00    +0.245 C 
ENDROOT
BRANCH   6  11
ATOM      9  O   UNL     1      37.251 -19.912 -17.036  0.00  0.00    -0.268 OA
ATOM     10  N   UNL     1      36.592 -22.148 -17.038  0.00  0.00    -0.295 N 
ATOM     11  C   UNL     1      36.559 -20.833 -17.462  0.00  0.00    +0.275 C 
ATOM     12  H   UNL     1      35.982 -22.793 -17.464  0.00  0.00    +0.150 HD
BRANCH  10  13
ATOM     13  C   UNL     1      37.479 -22.623 -16.000  0.00  0.00    +0.117 C 
BRANCH  13  15
ATOM     14  F   UNL     1      34.646 -24.569 -11.539  0.00  0.00    -0.204 F 
ATOM     15  C   UNL     1      36.723 -23.142 -14.810  0.00  0.00    -0.002 C 
ATOM     16  C   UNL     1      35.466 -22.623 -14.502  0.00  0.00    -0.000 C 
ATOM     17  C   UNL     1      37.278 -24.144 -14.014  0.00  0.00    -0.000 C 
ATOM     18  C   UNL     1      34.765 -23.104 -13.397  0.00  0.00    +0.029 C 
ATOM     19  C   UNL     1      36.577 -24.626 -12.909  0.00  0.00    +0.029 C 
ATOM     20  C   UNL     1      35.320 -24.106 -12.600  0.00  0.00    +0.140 C 
ENDBRANCH  13  15
ENDBRANCH  10  13
ENDBRANCH   6  11
BRANCH   4  21
ATOM     21  C   UNL     1      35.484 -18.535 -21.548  0.00  0.00    +0.117 C 
ATOM     22  C   UNL     1      36.994 -18.338 -21.541  0.00  0.00    +0.028 C 
ATOM     23  C   UNL     1      34.995 -19.048 -22.895  0.00  0.00    +0.028 C 
BRANCH  21  25
ATOM     24  O   UNL     1      35.029 -16.239 -23.211  0.00  0.00    -0.265 OA
ATOM     25  N   UNL     1      34.801 -17.324 -21.173  0.00  0.00    -0.293 N 
ATOM     26  C   UNL     1      34.628 -16.262 -22.050  0.00  0.00    +0.302 C 
ATOM     27  H   UNL     1      34.441 -17.247 -20.259  0.00  0.00    +0.150 HD
BRANCH  26  31
ATOM     28  O   UNL     1      33.217 -14.258 -22.334  0.00  0.00    -0.416 OA
ATOM     29  N   UNL     1      33.898 -14.693 -20.247  0.00  0.00    -0.102 NA
ATOM     30  N   UNL     1      33.127 -13.546 -20.215  0.00  0.00    -0.111 NA
ATOM     31  C   UNL     1      33.923 -15.074 -21.503  0.00  0.00    +0.304 A 
ATOM     32  C   UNL     1      32.752 -13.330 -21.454  0.00  0.00    +0.227 A 
ATOM     33  C   UNL     1      31.920 -12.254 -22.006  0.00  0.00    +0.097 C 
ENDBRANCH  26  31
ENDBRANCH  21  25
ENDBRANCH   4  21
BRANCH   8  34
ATOM     34  O   UNL     1      34.070 -22.137 -17.471  0.00  0.00    -0.370 OA
ATOM     35  H   UNL     1      33.385 -22.762 -17.606  0.00  0.00    +0.211 HD
ENDBRANCH   8  34
TORSDOF 7
ENDMDL
MODEL 6
REMARK VINA RESULT:     -10.5      7.572     11.193
REMARK  Name = 54671008
REMARK  7 active torsions:
REMARK  status: ('A' for Active; 'I' for Inactive)
REMARK    1  A    between atoms: C_4  and  C_21
REMARK    2  A    between atoms: C_6  and  C_11
REMARK    3  A    between atoms: C_8  and  O_34
REMARK    4  A    between atoms: N_10  and  C_13
REMARK    5  A    between atoms: C_13  and  C_15
REMARK    6  A    between atoms: C_21  and  N_25
REMARK    7  A    between atoms: C_26  and  C_31
REMARK                            x       y       z     vdW  Elec       q    Type
REMARK                         _______ _______ _______ _____ _____    ______ ____
ROOT
ATOM      1  O   UNL     1      33.022 -14.253 -25.857  0.00  0.00    -0.271 OA
ATOM      2  N   UNL     1      33.021 -13.739 -23.573  0.00  0.00    -0.232 N 
ATOM      3  N   UNL     1      33.861 -15.337 -22.026  0.00  0.00    -0.386 NA
ATOM      4  C   UNL     1      33.335 -14.181 -22.290  0.00  0.00    +0.182 C 
ATOM      5  C   UNL     1      33.263 -14.546 -24.687  0.00  0.00    +0.265 C 
ATOM      6  C   UNL     1      34.117 -16.160 -23.089  0.00  0.00    +0.199 C 
ATOM      7  C   UNL     1      32.431 -12.414 -23.754  0.00  0.00    +0.122 C 
ATOM      8  C   UNL     1      33.869 -15.870 -24.374  0.00  0.00    +0.245 C 
ENDROOT
BRANCH   6  11
ATOM      9  O   UNL     1      34.567 -18.425 -23.514  0.00  0.00    -0.268 OA
ATOM     10  N   UNL     1      35.417 -17.450 -21.575  0.00  0.00    -0.295 N 
ATOM     11  C   UNL     1      34.715 -17.463 -22.765  0.00  0.00    +0.275 C 
ATOM     12  H   UNL     1      35.459 -16.608 -21.065  0.00  0.00    +0.150 HD
BRANCH  10  13
ATOM     13  C   UNL     1      36.094 -18.610 -21.042  0.00  0.00    +0.117 C 
BRANCH  13  15
ATOM     14  F   UNL     1      32.522 -22.168 -18.533  0.00  0.00    -0.204 F 
ATOM     15  C   UNL     1      35.141 -19.559 -20.373  0.00  0.00    -0.002 C 
ATOM     16  C   UNL     1      35.631 -20.575 -19.552  0.00  0.00    -0.000 C 
ATOM     17  C   UNL     1      33.767 -19.424 -20.572  0.00  0.00    -0.000 C 
ATOM     18  C   UNL     1      34.746 -21.456 -18.931  0.00  0.00    +0.029 C 
ATOM     19  C   UNL     1      32.883 -20.305 -19.951  0.00  0.00    +0.029 C 
ATOM     20  C   UNL     1      33.372 -21.322 -19.130  0.00  0.00    +0.140 C 
ENDBRANCH  13  15
ENDBRANCH  10  13
ENDBRANCH   6  11
BRANCH   4  21
ATOM     21  C   UNL     1      33.046 -13.259 -21.129  0.00  0.00    +0.117 C 
ATOM     22  C   UNL     1      31.964 -13.866 -20.247  0.00  0.00    +0.028 C 
ATOM     23  C   UNL     1      34.326 -13.003 -20.344  0.00  0.00    +0.028 C 
BRANCH  21  25
ATOM     24  O   UNL     1      31.631 -11.092 -19.887  0.00  0.00    -0.265 OA
ATOM     25  N   UNL     1      32.580 -12.057 -21.771  0.00  0.00    -0.293 N 
ATOM     26  C   UNL     1      31.902 -11.059 -21.084  0.00  0.00    +0.302 C 
ATOM     27  H   UNL     1      32.750 -11.939 -22.733  0.00  0.00    +0.150 HD
BRANCH  26  31
ATOM     28  O   UNL     1      32.389  -9.115 -22.522  0.00  0.00    -0.416 OA
ATOM     29  N   UNL     1      30.228  -9.500 -22.092  0.00  0.00    -0.102 NA
ATOM     30  N   UNL     1      30.310  -8.384 -22.903  0.00  0.00    -0.111 NA
ATOM     31  C   UNL     1      31.465  -9.893 -21.895  0.00  0.00    +0.304 A 
ATOM     32  C   UNL     1      31.589  -8.197 -23.129  0.00  0.00    +0.227 A 
ATOM     33  C   UNL     1      32.258  -7.160 -23.925  0.00  0.00    +0.097 C 
ENDBRANCH  26  31
ENDBRANCH  21  25
ENDBRANCH   4  21
BRANCH   8  34
ATOM     34  O   UNL     1      34.141 -16.727 -25.416  0.00  0.00    -0.370 OA
ATOM     35  H   UNL     1      34.709 -17.460 -25.283  0.00  0.00    +0.211 HD
ENDBRANCH   8  34
TORSDOF 7
ENDMDL
MODEL 7
REMARK VINA RESULT:     -10.5      8.297     12.271
REMARK  Name = 54671008
REMARK  7 active torsions:
REMARK  status: ('A' for Active; 'I' for Inactive)
REMARK    1  A    between atoms: C_4  and  C_21
REMARK    2  A    between atoms: C_6  and  C_11
REMARK    3  A    between atoms: C_8  and  O_34
REMARK    4  A    between atoms: N_10  and  C_13
REMARK    5  A    between atoms: C_13  and  C_15
REMARK    6  A    between atoms: C_21  and  N_25
REMARK    7  A    between atoms: C_26  and  C_31
REMARK                            x       y       z     vdW  Elec       q    Type
REMARK                         _______ _______ _______ _____ _____    ______ ____
ROOT
ATOM      1  O   UNL     1      33.312 -14.811 -25.846  0.00  0.00    -0.271 OA
ATOM      2  N   UNL     1      32.745 -13.466 -24.016  0.00  0.00    -0.232 N 
ATOM      3  N   UNL     1      33.410 -14.139 -21.835  0.00  0.00    -0.386 NA
ATOM      4  C   UNL     1      32.819 -13.305 -22.634  0.00  0.00    +0.182 C 
ATOM      5  C   UNL     1      33.323 -14.575 -24.639  0.00  0.00    +0.265 C 
ATOM      6  C   UNL     1      33.991 -15.239 -22.404  0.00  0.00    +0.199 C 
ATOM      7  C   UNL     1      32.054 -12.461 -24.822  0.00  0.00    +0.122 C 
ATOM      8  C   UNL     1      33.999 -15.524 -23.713  0.00  0.00    +0.245 C 
ENDROOT
BRANCH   6  11
ATOM      9  O   UNL     1      34.546 -16.028 -20.262  0.00  0.00    -0.268 OA
ATOM     10  N   UNL     1      35.373 -17.152 -22.130  0.00  0.00    -0.295 N 
ATOM     11  C   UNL     1      34.655 -16.168 -21.478  0.00  0.00    +0.275 C 
ATOM     12  H   UNL     1      35.380 -17.152 -23.114  0.00  0.00    +0.150 HD
BRANCH  10  13
ATOM     13  C   UNL     1      36.113 -18.183 -21.437  0.00  0.00    +0.117 C 
BRANCH  13  15
ATOM     14  F   UNL     1      32.709 -21.930 -18.974  0.00  0.00    -0.204 F 
ATOM     15  C   UNL     1      35.205 -19.182 -20.780  0.00  0.00    -0.002 C 
ATOM     16  C   UNL     1      35.726 -20.109 -19.878  0.00  0.00    -0.000 C 
ATOM     17  C   UNL     1      33.841 -19.183 -21.072  0.00  0.00    -0.000 C 
ATOM     18  C   UNL     1      34.883 -21.038 -19.268  0.00  0.00    +0.029 C 
ATOM     19  C   UNL     1      32.998 -20.112 -20.463  0.00  0.00    +0.029 C 
ATOM     20  C   UNL     1      33.519 -21.039 -19.560  0.00  0.00    +0.140 C 
ENDBRANCH  13  15
ENDBRANCH  10  13
ENDBRANCH   6  11
BRANCH   4  21
ATOM     21  C   UNL     1      32.173 -12.084 -22.024  0.00  0.00    +0.117 C 
ATOM     22  C   UNL     1      30.706 -12.023 -22.427  0.00  0.00    +0.028 C 
ATOM     23  C   UNL     1      32.334 -12.119 -20.510  0.00  0.00    +0.028 C 
BRANCH  21  25
ATOM     24  O   UNL     1      31.407  -9.318 -22.064  0.00  0.00    -0.265 OA
ATOM     25  N   UNL     1      32.917 -10.994 -22.602  0.00  0.00    -0.293 N 
ATOM     26  C   UNL     1      32.464  -9.683 -22.572  0.00  0.00    +0.302 C 
ATOM     27  H   UNL     1      33.781 -11.188 -23.033  0.00  0.00    +0.150 HD
BRANCH  26  31
ATOM     28  O   UNL     1      32.882  -7.410 -23.435  0.00  0.00    -0.416 OA
ATOM     29  N   UNL     1      34.557  -8.874 -23.674  0.00  0.00    -0.102 NA
ATOM     30  N   UNL     1      34.965  -7.667 -24.208  0.00  0.00    -0.111 NA
ATOM     31  C   UNL     1      33.336  -8.678 -23.234  0.00  0.00    +0.304 A 
ATOM     32  C   UNL     1      33.957  -6.843 -24.048  0.00  0.00    +0.227 A 
ATOM     33  C   UNL     1      33.832  -5.430 -24.428  0.00  0.00    +0.097 C 
ENDBRANCH  26  31
ENDBRANCH  21  25
ENDBRANCH   4  21
BRANCH   8  34
ATOM     34  O   UNL     1      34.596 -16.643 -24.247  0.00  0.00    -0.370 OA
ATOM     35  H   UNL     1      34.210 -17.488 -24.115  0.00  0.00    +0.211 HD
ENDBRANCH   8  34
TORSDOF 7
ENDMDL
