MODEL 1
REMARK VINA RESULT:     -10.8      0.000      0.000
REMARK  Name = 57394020
REMARK  9 active torsions:
REMARK  status: ('A' for Active; 'I' for Inactive)
REMARK    1  A    between atoms: N_1  and  C_3
REMARK    2  A    between atoms: N_1  and  C_14
REMARK    3  A    between atoms: N_1  and  C_22
REMARK    4  A    between atoms: C_3  and  C_6
REMARK    5  A    between atoms: C_10  and  O_11
REMARK    6  A    between atoms: O_11  and  C_12
REMARK    7  A    between atoms: C_14  and  C_16
REMARK    8  A    between atoms: C_22  and  C_24
REMARK    9  A    between atoms: C_27  and  N_30
REMARK                            x       y       z     vdW  Elec       q    Type
REMARK                         _______ _______ _______ _____ _____    ______ ____
ROOT
ATOM      1  N   UNL     1      33.813 -22.705 -15.916  0.00  0.00    +0.393 N 
ATOM      2  H   UNL     1      34.528 -21.984 -16.011  0.00  0.00    -0.079 HD
ENDROOT
BRANCH   1   3
ATOM      3  C   UNL     1      32.689 -22.137 -15.182  0.00  0.00    -0.075 C 
BRANCH   3   6
ATOM      4  O   UNL     1      26.809 -23.309 -15.347  0.00  0.00    -0.226 OA
ATOM      5  N   UNL     1      29.085 -22.914 -15.401  0.00  0.00    -0.246 N 
ATOM      6  C   UNL     1      31.442 -22.988 -15.343  0.00  0.00    +0.001 C 
ATOM      7  C   UNL     1      30.886 -23.507 -14.014  0.00  0.00    +0.021 C 
ATOM      8  C   UNL     1      30.256 -22.220 -15.925  0.00  0.00    +0.095 C 
ATOM      9  C   UNL     1      29.451 -23.868 -14.366  0.00  0.00    +0.097 C 
ATOM     10  C   UNL     1      27.778 -22.711 -15.810  0.00  0.00    +0.405 C 
BRANCH  10  11
ATOM     11  O   UNL     1      27.690 -21.761 -16.792  0.00  0.00    -0.435 OA
BRANCH  11  12
ATOM     12  C   UNL     1      26.529 -21.829 -17.628  0.00  0.00    +0.210 C 
ATOM     13  C   UNL     1      25.569 -20.729 -17.228  0.00  0.00    +0.051 C 
ENDBRANCH  11  12
ENDBRANCH  10  11
ENDBRANCH   3   6
ENDBRANCH   1   3
BRANCH   1  14
ATOM     14  C   UNL     1      33.396 -23.125 -17.255  0.00  0.00    -0.049 C 
BRANCH  14  16
ATOM     15 CL   UNL     1      34.378 -18.838 -21.359  0.00  0.00    -0.082 Cl
ATOM     16  C   UNL     1      33.641 -22.051 -18.282  0.00  0.00    -0.043 C 
ATOM     17  C   UNL     1      34.947 -21.703 -18.629  0.00  0.00    -0.005 C 
ATOM     18  C   UNL     1      32.563 -21.405 -18.886  0.00  0.00    -0.005 C 
ATOM     19  C   UNL     1      35.174 -20.709 -19.579  0.00  0.00    +0.011 C 
ATOM     20  C   UNL     1      32.791 -20.410 -19.837  0.00  0.00    +0.011 C 
ATOM     21  C   UNL     1      34.096 -20.062 -20.184  0.00  0.00    +0.058 C 
ENDBRANCH  14  16
ENDBRANCH   1  14
BRANCH   1  22
ATOM     22  C   UNL     1      34.388 -23.836 -15.186  0.00  0.00    -0.043 C 
BRANCH  22  24
ATOM     23  S   UNL     1      36.779 -25.092 -14.520  0.00  0.00    -0.070 S 
ATOM     24  C   UNL     1      35.890 -23.757 -15.121  0.00  0.00    -0.012 C 
ATOM     25  C   UNL     1      36.711 -22.714 -15.490  0.00  0.00    +0.002 C 
ATOM     26  C   UNL     1      38.086 -23.014 -15.278  0.00  0.00    +0.031 C 
ATOM     27  C   UNL     1      38.266 -24.276 -14.753  0.00  0.00    +0.172 C 
BRANCH  27  30
ATOM     28  O   UNL     1      39.488 -26.183 -14.321  0.00  0.00    -0.126 OA
ATOM     29  O   UNL     1      40.503 -24.240 -14.198  0.00  0.00    -0.126 OA
ATOM     30  N   UNL     1      39.462 -24.923 -14.411  0.00  0.00    +0.064 N 
ENDBRANCH  27  30
ENDBRANCH  22  24
ENDBRANCH   1  22
TORSDOF 9
ENDMDL
MODEL 2
REMARK VINA RESULT:     -10.3      3.304      5.662
REMARK  Name = 57394020
REMARK  9 active torsions:
REMARK  status: ('A' for Active; 'I' for Inactive)
REMARK    1  A    between atoms: N_1  and  C_3
REMARK    2  A    between atoms: N_1  and  C_14
REMARK    3  A    between atoms: N_1  and  C_22
REMARK    4  A    between atoms: C_3  and  C_6
REMARK    5  A    between atoms: C_10  and  O_11
REMARK    6  A    between atoms: O_11  and  C_12
REMARK    7  A    between atoms: C_14  and  C_16
REMARK    8  A    between atoms: C_22  and  C_24
REMARK    9  A    between atoms: C_27  and  N_30
REMARK                            x       y       z     vdW  Elec       q    Type
REMARK                         _______ _______ _______ _____ _____    ______ ____
ROOT
ATOM      1  N   UNL     1      34.295 -23.905 -14.340  0.00  0.00    +0.393 N 
ATOM      2  H   UNL     1      33.923 -23.698 -15.267  0.00  0.00    -0.079 HD
ENDROOT
BRANCH   1   3
ATOM      3  C   UNL     1      35.319 -22.915 -14.030  0.00  0.00    -0.075 C 
BRANCH   3   6
ATOM      4  O   UNL     1      35.815 -20.932 -19.668  0.00  0.00    -0.226 OA
ATOM      5  N   UNL     1      35.523 -21.615 -17.481  0.00  0.00    -0.246 N 
ATOM      6  C   UNL     1      35.444 -21.886 -15.139  0.00  0.00    +0.001 C 
ATOM      7  C   UNL     1      36.891 -21.632 -15.570  0.00  0.00    +0.021 C 
ATOM      8  C   UNL     1      34.776 -22.317 -16.443  0.00  0.00    +0.095 C 
ATOM      9  C   UNL     1      36.727 -21.000 -16.945  0.00  0.00    +0.097 C 
ATOM     10  C   UNL     1      35.162 -21.528 -18.815  0.00  0.00    +0.405 C 
BRANCH  10  11
ATOM     11  O   UNL     1      33.992 -22.190 -19.074  0.00  0.00    -0.435 OA
BRANCH  11  12
ATOM     12  C   UNL     1      32.788 -21.462 -18.808  0.00  0.00    +0.210 C 
ATOM     13  C   UNL     1      32.558 -20.467 -19.926  0.00  0.00    +0.051 C 
ENDBRANCH  11  12
ENDBRANCH  10  11
ENDBRANCH   3   6
ENDBRANCH   1   3
BRANCH   1  14
ATOM     14  C   UNL     1      33.200 -23.833 -13.372  0.00  0.00    -0.049 C 
BRANCH  14  16
ATOM     15 CL   UNL     1      27.825 -23.694 -16.072  0.00  0.00    -0.082 Cl
ATOM     16  C   UNL     1      31.854 -23.798 -14.049  0.00  0.00    -0.043 C 
ATOM     17  C   UNL     1      30.877 -24.733 -13.706  0.00  0.00    -0.005 C 
ATOM     18  C   UNL     1      31.586 -22.832 -15.018  0.00  0.00    -0.005 C 
ATOM     19  C   UNL     1      29.632 -24.701 -14.333  0.00  0.00    +0.011 C 
ATOM     20  C   UNL     1      30.340 -22.800 -15.645  0.00  0.00    +0.011 C 
ATOM     21  C   UNL     1      29.363 -23.735 -15.302  0.00  0.00    +0.058 C 
ENDBRANCH  14  16
ENDBRANCH   1  14
BRANCH   1  22
ATOM     22  C   UNL     1      34.868 -25.252 -14.359  0.00  0.00    -0.043 C 
BRANCH  22  24
ATOM     23  S   UNL     1      37.605 -25.240 -14.858  0.00  0.00    -0.070 S 
ATOM     24  C   UNL     1      36.263 -25.275 -13.793  0.00  0.00    -0.012 C 
ATOM     25  C   UNL     1      36.653 -25.326 -12.473  0.00  0.00    +0.002 C 
ATOM     26  C   UNL     1      38.070 -25.335 -12.333  0.00  0.00    +0.031 C 
ATOM     27  C   UNL     1      38.712 -25.293 -13.552  0.00  0.00    +0.172 C 
BRANCH  27  30
ATOM     28  O   UNL     1      40.754 -26.354 -13.698  0.00  0.00    -0.126 OA
ATOM     29  O   UNL     1      40.649 -24.215 -14.185  0.00  0.00    -0.126 OA
ATOM     30  N   UNL     1      40.087 -25.287 -13.821  0.00  0.00    +0.064 N 
ENDBRANCH  27  30
ENDBRANCH  22  24
ENDBRANCH   1  22
TORSDOF 9
ENDMDL
MODEL 3
REMARK VINA RESULT:     -10.3      2.265      2.546
REMARK  Name = 57394020
REMARK  9 active torsions:
REMARK  status: ('A' for Active; 'I' for Inactive)
REMARK    1  A    between atoms: N_1  and  C_3
REMARK    2  A    between atoms: N_1  and  C_14
REMARK    3  A    between atoms: N_1  and  C_22
REMARK    4  A    between atoms: C_3  and  C_6
REMARK    5  A    between atoms: C_10  and  O_11
REMARK    6  A    between atoms: O_11  and  C_12
REMARK    7  A    between atoms: C_14  and  C_16
REMARK    8  A    between atoms: C_22  and  C_24
REMARK    9  A    between atoms: C_27  and  N_30
REMARK                            x       y       z     vdW  Elec       q    Type
REMARK                         _______ _______ _______ _____ _____    ______ ____
ROOT
ATOM      1  N   UNL     1      34.005 -22.590 -16.059  0.00  0.00    +0.393 N 
ATOM      2  H   UNL     1      34.540 -21.729 -16.173  0.00  0.00    -0.079 HD
ENDROOT
BRANCH   1   3
ATOM      3  C   UNL     1      32.954 -22.346 -15.078  0.00  0.00    -0.075 C 
BRANCH   3   6
ATOM      4  O   UNL     1      27.126 -23.752 -15.233  0.00  0.00    -0.226 OA
ATOM      5  N   UNL     1      29.378 -23.243 -15.300  0.00  0.00    -0.246 N 
ATOM      6  C   UNL     1      31.736 -23.210 -15.350  0.00  0.00    +0.001 C 
ATOM      7  C   UNL     1      31.267 -23.999 -14.125  0.00  0.00    +0.021 C 
ATOM      8  C   UNL     1      30.494 -22.405 -15.727  0.00  0.00    +0.095 C 
ATOM      9  C   UNL     1      29.832 -24.357 -14.483  0.00  0.00    +0.097 C 
ATOM     10  C   UNL     1      28.046 -23.030 -15.611  0.00  0.00    +0.405 C 
BRANCH  10  11
ATOM     11  O   UNL     1      27.872 -21.917 -16.388  0.00  0.00    -0.435 OA
BRANCH  11  12
ATOM     12  C   UNL     1      26.808 -21.979 -17.344  0.00  0.00    +0.210 C 
ATOM     13  C   UNL     1      25.779 -20.921 -17.005  0.00  0.00    +0.051 C 
ENDBRANCH  11  12
ENDBRANCH  10  11
ENDBRANCH   3   6
ENDBRANCH   1   3
BRANCH   1  14
ATOM     14  C   UNL     1      33.427 -22.953 -17.353  0.00  0.00    -0.049 C 
BRANCH  14  16
ATOM     15 CL   UNL     1      34.477 -18.755 -21.533  0.00  0.00    -0.082 Cl
ATOM     16  C   UNL     1      33.690 -21.903 -18.400  0.00  0.00    -0.043 C 
ATOM     17  C   UNL     1      32.622 -21.258 -19.025  0.00  0.00    -0.005 C 
ATOM     18  C   UNL     1      35.001 -21.574 -18.744  0.00  0.00    -0.005 C 
ATOM     19  C   UNL     1      32.866 -20.286 -19.994  0.00  0.00    +0.011 C 
ATOM     20  C   UNL     1      35.245 -20.601 -19.714  0.00  0.00    +0.011 C 
ATOM     21  C   UNL     1      34.177 -19.957 -20.339  0.00  0.00    +0.058 C 
ENDBRANCH  14  16
ENDBRANCH   1  14
BRANCH   1  22
ATOM     22  C   UNL     1      34.910 -23.643 -15.594  0.00  0.00    -0.043 C 
BRANCH  22  24
ATOM     23  S   UNL     1      34.789 -24.395 -12.919  0.00  0.00    -0.070 S 
ATOM     24  C   UNL     1      35.375 -23.399 -14.183  0.00  0.00    -0.012 C 
ATOM     25  C   UNL     1      36.250 -22.441 -13.722  0.00  0.00    +0.002 C 
ATOM     26  C   UNL     1      36.443 -22.525 -12.313  0.00  0.00    +0.031 C 
ATOM     27  C   UNL     1      35.707 -23.545 -11.750  0.00  0.00    +0.172 C 
BRANCH  27  30
ATOM     28  O   UNL     1      36.293 -23.304  -9.533  0.00  0.00    -0.126 OA
ATOM     29  O   UNL     1      34.910 -24.919 -10.080  0.00  0.00    -0.126 OA
ATOM     30  N   UNL     1      35.634 -23.937 -10.406  0.00  0.00    +0.064 N 
ENDBRANCH  27  30
ENDBRANCH  22  24
ENDBRANCH   1  22
TORSDOF 9
ENDMDL
MODEL 4
REMARK VINA RESULT:      -9.8      2.231      7.963
REMARK  Name = 57394020
REMARK  9 active torsions:
REMARK  status: ('A' for Active; 'I' for Inactive)
REMARK    1  A    between atoms: N_1  and  C_3
REMARK    2  A    between atoms: N_1  and  C_14
REMARK    3  A    between atoms: N_1  and  C_22
REMARK    4  A    between atoms: C_3  and  C_6
REMARK    5  A    between atoms: C_10  and  O_11
REMARK    6  A    between atoms: O_11  and  C_12
REMARK    7  A    between atoms: C_14  and  C_16
REMARK    8  A    between atoms: C_22  and  C_24
REMARK    9  A    between atoms: C_27  and  N_30
REMARK                            x       y       z     vdW  Elec       q    Type
REMARK                         _______ _______ _______ _____ _____    ______ ____
ROOT
ATOM      1  N   UNL     1      33.473 -23.113 -16.241  0.00  0.00    +0.393 N 
ATOM      2  H   UNL     1      32.974 -23.400 -17.083  0.00  0.00    -0.079 HD
ENDROOT
BRANCH   1   3
ATOM      3  C   UNL     1      33.819 -24.312 -15.487  0.00  0.00    -0.075 C 
BRANCH   3   6
ATOM      4  O   UNL     1      37.847 -25.456 -11.193  0.00  0.00    -0.226 OA
ATOM      5  N   UNL     1      36.377 -24.925 -12.895  0.00  0.00    -0.246 N 
ATOM      6  C   UNL     1      34.777 -23.991 -14.353  0.00  0.00    +0.001 C 
ATOM      7  C   UNL     1      34.154 -24.168 -12.965  0.00  0.00    +0.021 C 
ATOM      8  C   UNL     1      35.986 -24.922 -14.300  0.00  0.00    +0.095 C 
ATOM      9  C   UNL     1      35.373 -24.284 -12.062  0.00  0.00    +0.097 C 
ATOM     10  C   UNL     1      37.546 -25.465 -12.385  0.00  0.00    +0.405 C 
BRANCH  10  11
ATOM     11  O   UNL     1      38.327 -26.015 -13.365  0.00  0.00    -0.435 OA
BRANCH  11  12
ATOM     12  C   UNL     1      39.592 -25.381 -13.588  0.00  0.00    +0.210 C 
ATOM     13  C   UNL     1      39.676 -24.947 -15.036  0.00  0.00    +0.051 C 
ENDBRANCH  11  12
ENDBRANCH  10  11
ENDBRANCH   3   6
ENDBRANCH   1   3
BRANCH   1  14
ATOM     14  C   UNL     1      34.680 -22.388 -16.639  0.00  0.00    -0.049 C 
BRANCH  14  16
ATOM     15 CL   UNL     1      33.902 -19.412 -21.809  0.00  0.00    -0.082 Cl
ATOM     16  C   UNL     1      34.486 -21.643 -17.934  0.00  0.00    -0.043 C 
ATOM     17  C   UNL     1      33.206 -21.498 -18.469  0.00  0.00    -0.005 C 
ATOM     18  C   UNL     1      35.585 -21.100 -18.597  0.00  0.00    -0.005 C 
ATOM     19  C   UNL     1      33.026 -20.809 -19.668  0.00  0.00    +0.011 C 
ATOM     20  C   UNL     1      35.405 -20.410 -19.796  0.00  0.00    +0.011 C 
ATOM     21  C   UNL     1      34.125 -20.265 -20.332  0.00  0.00    +0.058 C 
ENDBRANCH  14  16
ENDBRANCH   1  14
BRANCH   1  22
ATOM     22  C   UNL     1      32.596 -22.244 -15.454  0.00  0.00    -0.043 C 
BRANCH  22  24
ATOM     23  S   UNL     1      29.986 -22.239 -16.417  0.00  0.00    -0.070 S 
ATOM     24  C   UNL     1      31.201 -22.802 -15.349  0.00  0.00    -0.012 C 
ATOM     25  C   UNL     1      30.720 -23.751 -14.473  0.00  0.00    +0.002 C 
ATOM     26  C   UNL     1      29.337 -24.020 -14.682  0.00  0.00    +0.031 C 
ATOM     27  C   UNL     1      28.812 -23.266 -15.709  0.00  0.00    +0.172 C 
BRANCH  27  30
ATOM     28  O   UNL     1      26.636 -22.502 -15.668  0.00  0.00    -0.126 OA
ATOM     29  O   UNL     1      27.196 -23.985 -17.187  0.00  0.00    -0.126 OA
ATOM     30  N   UNL     1      27.501 -23.250 -16.206  0.00  0.00    +0.064 N 
ENDBRANCH  27  30
ENDBRANCH  22  24
ENDBRANCH   1  22
TORSDOF 9
ENDMDL
MODEL 5
REMARK VINA RESULT:      -9.6      3.830      7.996
REMARK  Name = 57394020
REMARK  9 active torsions:
REMARK  status: ('A' for Active; 'I' for Inactive)
REMARK    1  A    between atoms: N_1  and  C_3
REMARK    2  A    between atoms: N_1  and  C_14
REMARK    3  A    between atoms: N_1  and  C_22
REMARK    4  A    between atoms: C_3  and  C_6
REMARK    5  A    between atoms: C_10  and  O_11
REMARK    6  A    between atoms: O_11  and  C_12
REMARK    7  A    between atoms: C_14  and  C_16
REMARK    8  A    between atoms: C_22  and  C_24
REMARK    9  A    between atoms: C_27  and  N_30
REMARK                            x       y       z     vdW  Elec       q    Type
REMARK                         _______ _______ _______ _____ _____    ______ ____
ROOT
ATOM      1  N   UNL     1      33.522 -22.358 -16.369  0.00  0.00    +0.393 N 
ATOM      2  H   UNL     1      32.900 -21.560 -16.499  0.00  0.00    -0.079 HD
ENDROOT
BRANCH   1   3
ATOM      3  C   UNL     1      34.655 -21.925 -15.561  0.00  0.00    -0.075 C 
BRANCH   3   6
ATOM      4  O   UNL     1      39.354 -25.320 -14.023  0.00  0.00    -0.226 OA
ATOM      5  N   UNL     1      37.502 -24.111 -14.689  0.00  0.00    -0.246 N 
ATOM      6  C   UNL     1      35.864 -22.815 -15.786  0.00  0.00    +0.001 C 
ATOM      7  C   UNL     1      37.190 -22.050 -15.775  0.00  0.00    +0.021 C 
ATOM      8  C   UNL     1      36.066 -23.853 -14.683  0.00  0.00    +0.095 C 
ATOM      9  C   UNL     1      38.211 -23.150 -15.518  0.00  0.00    +0.097 C 
ATOM     10  C   UNL     1      38.140 -25.129 -14.001  0.00  0.00    +0.405 C 
BRANCH  10  11
ATOM     11  O   UNL     1      37.259 -25.899 -13.291  0.00  0.00    -0.435 OA
BRANCH  11  12
ATOM     12  C   UNL     1      37.312 -25.760 -11.866  0.00  0.00    +0.210 C 
ATOM     13  C   UNL     1      36.286 -24.736 -11.432  0.00  0.00    +0.051 C 
ENDBRANCH  11  12
ENDBRANCH  10  11
ENDBRANCH   3   6
ENDBRANCH   1   3
BRANCH   1  14
ATOM     14  C   UNL     1      32.781 -23.422 -15.691  0.00  0.00    -0.049 C 
BRANCH  14  16
ATOM     15 CL   UNL     1      26.916 -22.152 -15.271  0.00  0.00    -0.082 Cl
ATOM     16  C   UNL     1      31.313 -23.104 -15.587  0.00  0.00    -0.043 C 
ATOM     17  C   UNL     1      30.588 -23.518 -14.469  0.00  0.00    -0.005 C 
ATOM     18  C   UNL     1      30.678 -22.397 -16.607  0.00  0.00    -0.005 C 
ATOM     19  C   UNL     1      29.228 -23.224 -14.373  0.00  0.00    +0.011 C 
ATOM     20  C   UNL     1      29.318 -22.103 -16.511  0.00  0.00    +0.011 C 
ATOM     21  C   UNL     1      28.592 -22.516 -15.393  0.00  0.00    +0.058 C 
ENDBRANCH  14  16
ENDBRANCH   1  14
BRANCH   1  22
ATOM     22  C   UNL     1      33.973 -22.814 -17.686  0.00  0.00    -0.043 C 
BRANCH  22  24
ATOM     23  S   UNL     1      35.436 -20.996 -19.200  0.00  0.00    -0.070 S 
ATOM     24  C   UNL     1      33.957 -21.701 -18.700  0.00  0.00    -0.012 C 
ATOM     25  C   UNL     1      32.873 -21.125 -19.325  0.00  0.00    +0.002 C 
ATOM     26  C   UNL     1      33.261 -20.093 -20.226  0.00  0.00    +0.031 C 
ATOM     27  C   UNL     1      34.628 -19.917 -20.255  0.00  0.00    +0.172 C 
BRANCH  27  30
ATOM     28  O   UNL     1      35.070 -18.786 -22.216  0.00  0.00    -0.126 OA
ATOM     29  O   UNL     1      36.362 -18.415 -20.480  0.00  0.00    -0.126 OA
ATOM     30  N   UNL     1      35.380 -19.007 -21.011  0.00  0.00    +0.064 N 
ENDBRANCH  27  30
ENDBRANCH  22  24
ENDBRANCH   1  22
TORSDOF 9
ENDMDL
MODEL 6
REMARK VINA RESULT:      -9.5      3.832      7.931
REMARK  Name = 57394020
REMARK  9 active torsions:
REMARK  status: ('A' for Active; 'I' for Inactive)
REMARK    1  A    between atoms: N_1  and  C_3
REMARK    2  A    between atoms: N_1  and  C_14
REMARK    3  A    between atoms: N_1  and  C_22
REMARK    4  A    between atoms: C_3  and  C_6
REMARK    5  A    between atoms: C_10  and  O_11
REMARK    6  A    between atoms: O_11  and  C_12
REMARK    7  A    between atoms: C_14  and  C_16
REMARK    8  A    between atoms: C_22  and  C_24
REMARK    9  A    between atoms: C_27  and  N_30
REMARK                            x       y       z     vdW  Elec       q    Type
REMARK                         _______ _______ _______ _____ _____    ______ ____
ROOT
ATOM      1  N   UNL     1      33.634 -23.627 -13.828  0.00  0.00    +0.393 N 
ATOM      2  H   UNL     1      33.343 -22.650 -13.833  0.00  0.00    -0.079 HD
ENDROOT
BRANCH   1   3
ATOM      3  C   UNL     1      34.470 -23.860 -14.999  0.00  0.00    -0.075 C 
BRANCH   3   6
ATOM      4  O   UNL     1      36.203 -20.195 -19.419  0.00  0.00    -0.226 OA
ATOM      5  N   UNL     1      35.442 -21.521 -17.687  0.00  0.00    -0.246 N 
ATOM      6  C   UNL     1      34.903 -22.551 -15.634  0.00  0.00    +0.001 C 
ATOM      7  C   UNL     1      36.423 -22.404 -15.743  0.00  0.00    +0.021 C 
ATOM      8  C   UNL     1      34.447 -22.402 -17.084  0.00  0.00    +0.095 C 
ATOM      9  C   UNL     1      36.583 -21.327 -16.806  0.00  0.00    +0.097 C 
ATOM     10  C   UNL     1      35.345 -20.932 -18.936  0.00  0.00    +0.405 C 
BRANCH  10  11
ATOM     11  O   UNL     1      34.182 -21.268 -19.573  0.00  0.00    -0.435 OA
BRANCH  11  12
ATOM     12  C   UNL     1      33.505 -20.202 -20.247  0.00  0.00    +0.210 C 
ATOM     13  C   UNL     1      32.034 -20.248 -19.891  0.00  0.00    +0.051 C 
ENDBRANCH  11  12
ENDBRANCH  10  11
ENDBRANCH   3   6
ENDBRANCH   1   3
BRANCH   1  14
ATOM     14  C   UNL     1      34.386 -23.883 -12.598  0.00  0.00    -0.049 C 
BRANCH  14  16
ATOM     15 CL   UNL     1      40.028 -25.632 -13.742  0.00  0.00    -0.082 Cl
ATOM     16  C   UNL     1      35.798 -24.321 -12.886  0.00  0.00    -0.043 C 
ATOM     17  C   UNL     1      36.871 -23.538 -12.459  0.00  0.00    -0.005 C 
ATOM     18  C   UNL     1      36.033 -25.508 -13.578  0.00  0.00    -0.005 C 
ATOM     19  C   UNL     1      38.179 -23.943 -12.725  0.00  0.00    +0.011 C 
ATOM     20  C   UNL     1      37.341 -25.914 -13.844  0.00  0.00    +0.011 C 
ATOM     21  C   UNL     1      38.414 -25.131 -13.417  0.00  0.00    +0.058 C 
ENDBRANCH  14  16
ENDBRANCH   1  14
BRANCH   1  22
ATOM     22  C   UNL     1      32.437 -24.469 -13.873  0.00  0.00    -0.043 C 
BRANCH  22  24
ATOM     23  S   UNL     1      29.811 -24.612 -14.782  0.00  0.00    -0.070 S 
ATOM     24  C   UNL     1      31.290 -23.776 -14.560  0.00  0.00    -0.012 C 
ATOM     25  C   UNL     1      31.243 -22.498 -15.071  0.00  0.00    +0.002 C 
ATOM     26  C   UNL     1      29.976 -22.200 -15.652  0.00  0.00    +0.031 C 
ATOM     27  C   UNL     1      29.104 -23.263 -15.564  0.00  0.00    +0.172 C 
BRANCH  27  30
ATOM     28  O   UNL     1      26.884 -22.644 -15.474  0.00  0.00    -0.126 OA
ATOM     29  O   UNL     1      27.494 -24.140 -16.961  0.00  0.00    -0.126 OA
ATOM     30  N   UNL     1      27.779 -23.352 -16.016  0.00  0.00    +0.064 N 
ENDBRANCH  27  30
ENDBRANCH  22  24
ENDBRANCH   1  22
TORSDOF 9
ENDMDL
MODEL 7
REMARK VINA RESULT:      -9.0      4.375      7.994
REMARK  Name = 57394020
REMARK  9 active torsions:
REMARK  status: ('A' for Active; 'I' for Inactive)
REMARK    1  A    between atoms: N_1  and  C_3
REMARK    2  A    between atoms: N_1  and  C_14
REMARK    3  A    between atoms: N_1  and  C_22
REMARK    4  A    between atoms: C_3  and  C_6
REMARK    5  A    between atoms: C_10  and  O_11
REMARK    6  A    between atoms: O_11  and  C_12
REMARK    7  A    between atoms: C_14  and  C_16
REMARK    8  A    between atoms: C_22  and  C_24
REMARK    9  A    between atoms: C_27  and  N_30
REMARK                            x       y       z     vdW  Elec       q    Type
REMARK                         _______ _______ _______ _____ _____    ______ ____
ROOT
ATOM      1  N   UNL     1      33.035 -22.349 -17.378  0.00  0.00    +0.393 N 
ATOM      2  H   UNL     1      33.591 -21.559 -17.053  0.00  0.00    -0.079 HD
ENDROOT
BRANCH   1   3
ATOM      3  C   UNL     1      33.445 -23.532 -16.633  0.00  0.00    -0.075 C 
BRANCH   3   6
ATOM      4  O   UNL     1      37.499 -22.698 -12.293  0.00  0.00    -0.226 OA
ATOM      5  N   UNL     1      36.007 -23.123 -14.004  0.00  0.00    -0.246 N 
ATOM      6  C   UNL     1      34.829 -23.353 -16.034  0.00  0.00    +0.001 C 
ATOM      7  C   UNL     1      35.220 -21.886 -15.840  0.00  0.00    +0.021 C 
ATOM      8  C   UNL     1      34.957 -23.924 -14.624  0.00  0.00    +0.095 C 
ATOM      9  C   UNL     1      36.347 -21.969 -14.821  0.00  0.00    +0.097 C 
ATOM     10  C   UNL     1      36.619 -23.394 -12.792  0.00  0.00    +0.405 C 
BRANCH  10  11
ATOM     11  O   UNL     1      36.125 -24.532 -12.212  0.00  0.00    -0.435 OA
BRANCH  11  12
ATOM     12  C   UNL     1      37.041 -25.627 -12.099  0.00  0.00    +0.210 C 
ATOM     13  C   UNL     1      37.011 -26.428 -13.383  0.00  0.00    +0.051 C 
ENDBRANCH  11  12
ENDBRANCH  10  11
ENDBRANCH   3   6
ENDBRANCH   1   3
BRANCH   1  14
ATOM     14  C   UNL     1      31.622 -22.053 -17.139  0.00  0.00    -0.049 C 
BRANCH  14  16
ATOM     15 CL   UNL     1      29.661 -24.500 -12.004  0.00  0.00    -0.082 Cl
ATOM     16  C   UNL     1      31.131 -22.665 -15.853  0.00  0.00    -0.043 C 
ATOM     17  C   UNL     1      30.182 -23.687 -15.885  0.00  0.00    -0.005 C 
ATOM     18  C   UNL     1      31.625 -22.210 -14.631  0.00  0.00    -0.005 C 
ATOM     19  C   UNL     1      29.727 -24.253 -14.695  0.00  0.00    +0.011 C 
ATOM     20  C   UNL     1      31.169 -22.776 -13.440  0.00  0.00    +0.011 C 
ATOM     21  C   UNL     1      30.221 -23.799 -13.472  0.00  0.00    +0.058 C 
ENDBRANCH  14  16
ENDBRANCH   1  14
BRANCH   1  22
ATOM     22  C   UNL     1      33.279 -22.531 -18.810  0.00  0.00    -0.043 C 
BRANCH  22  24
ATOM     23  S   UNL     1      33.277 -20.125 -20.207  0.00  0.00    -0.070 S 
ATOM     24  C   UNL     1      34.082 -21.398 -19.390  0.00  0.00    -0.012 C 
ATOM     25  C   UNL     1      35.447 -21.214 -19.368  0.00  0.00    +0.002 C 
ATOM     26  C   UNL     1      35.837 -20.014 -20.028  0.00  0.00    +0.031 C 
ATOM     27  C   UNL     1      34.756 -19.325 -20.532  0.00  0.00    +0.172 C 
BRANCH  27  30
ATOM     28  O   UNL     1      34.307 -18.088 -22.426  0.00  0.00    -0.126 OA
ATOM     29  O   UNL     1      35.150 -17.059 -20.680  0.00  0.00    -0.126 OA
ATOM     30  N   UNL     1      34.737 -18.114 -21.238  0.00  0.00    +0.064 N 
ENDBRANCH  27  30
ENDBRANCH  22  24
ENDBRANCH   1  22
TORSDOF 9
ENDMDL
MODEL 8
REMARK VINA RESULT:      -8.9      3.892      8.032
REMARK  Name = 57394020
REMARK  9 active torsions:
REMARK  status: ('A' for Active; 'I' for Inactive)
REMARK    1  A    between atoms: N_1  and  C_3
REMARK    2  A    between atoms: N_1  and  C_14
REMARK    3  A    between atoms: N_1  and  C_22
REMARK    4  A    between atoms: C_3  and  C_6
REMARK    5  A    between atoms: C_10  and  O_11
REMARK    6  A    between atoms: O_11  and  C_12
REMARK    7  A    between atoms: C_14  and  C_16
REMARK    8  A    between atoms: C_22  and  C_24
REMARK    9  A    between atoms: C_27  and  N_30
REMARK                            x       y       z     vdW  Elec       q    Type
REMARK                         _______ _______ _______ _____ _____    ______ ____
ROOT
ATOM      1  N   UNL     1      32.826 -22.762 -16.062  0.00  0.00    +0.393 N 
ATOM      2  H   UNL     1      32.721 -21.813 -15.703  0.00  0.00    -0.079 HD
ENDROOT
BRANCH   1   3
ATOM      3  C   UNL     1      34.222 -23.153 -15.916  0.00  0.00    -0.075 C 
BRANCH   3   6
ATOM      4  O   UNL     1      37.423 -24.118 -10.937  0.00  0.00    -0.226 OA
ATOM      5  N   UNL     1      36.237 -23.624 -12.857  0.00  0.00    -0.246 N 
ATOM      6  C   UNL     1      34.725 -22.884 -14.510  0.00  0.00    +0.001 C 
ATOM      7  C   UNL     1      33.960 -23.659 -13.434  0.00  0.00    +0.021 C 
ATOM      8  C   UNL     1      36.167 -23.335 -14.286  0.00  0.00    +0.095 C 
ATOM      9  C   UNL     1      34.916 -23.627 -12.250  0.00  0.00    +0.097 C 
ATOM     10  C   UNL     1      37.396 -23.873 -12.141  0.00  0.00    +0.405 C 
BRANCH  10  11
ATOM     11  O   UNL     1      38.510 -23.817 -12.934  0.00  0.00    -0.435 OA
BRANCH  11  12
ATOM     12  C   UNL     1      39.066 -25.078 -13.324  0.00  0.00    +0.210 C 
ATOM     13  C   UNL     1      39.812 -24.906 -14.629  0.00  0.00    +0.051 C 
ENDBRANCH  11  12
ENDBRANCH  10  11
ENDBRANCH   3   6
ENDBRANCH   1   3
BRANCH   1  14
ATOM     14  C   UNL     1      31.958 -23.651 -15.287  0.00  0.00    -0.049 C 
BRANCH  14  16
ATOM     15 CL   UNL     1      26.216 -21.861 -15.436  0.00  0.00    -0.082 Cl
ATOM     16  C   UNL     1      30.521 -23.203 -15.324  0.00  0.00    -0.043 C 
ATOM     17  C   UNL     1      30.142 -22.022 -14.687  0.00  0.00    -0.005 C 
ATOM     18  C   UNL     1      29.569 -23.971 -15.995  0.00  0.00    -0.005 C 
ATOM     19  C   UNL     1      28.811 -21.608 -14.721  0.00  0.00    +0.011 C 
ATOM     20  C   UNL     1      28.237 -23.556 -16.029  0.00  0.00    +0.011 C 
ATOM     21  C   UNL     1      27.858 -22.374 -15.392  0.00  0.00    +0.058 C 
ENDBRANCH  14  16
ENDBRANCH   1  14
BRANCH   1  22
ATOM     22  C   UNL     1      32.431 -22.771 -17.472  0.00  0.00    -0.043 C 
BRANCH  22  24
ATOM     23  S   UNL     1      32.645 -20.769 -19.392  0.00  0.00    -0.070 S 
ATOM     24  C   UNL     1      33.334 -21.907 -18.312  0.00  0.00    -0.012 C 
ATOM     25  C   UNL     1      34.711 -21.889 -18.352  0.00  0.00    +0.002 C 
ATOM     26  C   UNL     1      35.207 -20.929 -19.279  0.00  0.00    +0.031 C 
ATOM     27  C   UNL     1      34.190 -20.250 -19.916  0.00  0.00    +0.172 C 
BRANCH  27  30
ATOM     28  O   UNL     1      34.947 -18.195 -20.639  0.00  0.00    -0.126 OA
ATOM     29  O   UNL     1      33.694 -19.385 -21.994  0.00  0.00    -0.126 OA
ATOM     30  N   UNL     1      34.280 -19.241 -20.884  0.00  0.00    +0.064 N 
ENDBRANCH  27  30
ENDBRANCH  22  24
ENDBRANCH   1  22
TORSDOF 9
ENDMDL
MODEL 9
REMARK VINA RESULT:      -8.8      3.836      7.968
REMARK  Name = 57394020
REMARK  9 active torsions:
REMARK  status: ('A' for Active; 'I' for Inactive)
REMARK    1  A    between atoms: N_1  and  C_3
REMARK    2  A    between atoms: N_1  and  C_14
REMARK    3  A    between atoms: N_1  and  C_22
REMARK    4  A    between atoms: C_3  and  C_6
REMARK    5  A    between atoms: C_10  and  O_11
REMARK    6  A    between atoms: O_11  and  C_12
REMARK    7  A    between atoms: C_14  and  C_16
REMARK    8  A    between atoms: C_22  and  C_24
REMARK    9  A    between atoms: C_27  and  N_30
REMARK                            x       y       z     vdW  Elec       q    Type
REMARK                         _______ _______ _______ _____ _____    ______ ____
ROOT
ATOM      1  N   UNL     1      32.990 -22.659 -15.750  0.00  0.00    +0.393 N 
ATOM      2  H   UNL     1      32.314 -22.004 -16.140  0.00  0.00    -0.079 HD
ENDROOT
BRANCH   1   3
ATOM      3  C   UNL     1      33.696 -23.296 -16.854  0.00  0.00    -0.075 C 
BRANCH   3   6
ATOM      4  O   UNL     1      33.699 -19.029 -21.069  0.00  0.00    -0.226 OA
ATOM      5  N   UNL     1      33.734 -20.758 -19.537  0.00  0.00    -0.246 N 
ATOM      6  C   UNL     1      33.343 -22.648 -18.180  0.00  0.00    +0.001 C 
ATOM      7  C   UNL     1      32.141 -21.703 -18.091  0.00  0.00    +0.021 C 
ATOM      8  C   UNL     1      34.444 -21.739 -18.723  0.00  0.00    +0.095 C 
ATOM      9  C   UNL     1      32.296 -20.841 -19.336  0.00  0.00    +0.097 C 
ATOM     10  C   UNL     1      34.323 -19.847 -20.397  0.00  0.00    +0.405 C 
BRANCH  10  11
ATOM     11  O   UNL     1      35.687 -19.963 -20.411  0.00  0.00    -0.435 OA
BRANCH  11  12
ATOM     12  C   UNL     1      36.420 -18.733 -20.449  0.00  0.00    +0.210 C 
ATOM     13  C   UNL     1      36.639 -18.334 -21.893  0.00  0.00    +0.051 C 
ENDBRANCH  11  12
ENDBRANCH  10  11
ENDBRANCH   3   6
ENDBRANCH   1   3
BRANCH   1  14
ATOM     14  C   UNL     1      33.924 -21.916 -14.902  0.00  0.00    -0.049 C 
BRANCH  14  16
ATOM     15 CL   UNL     1      39.382 -24.445 -14.818  0.00  0.00    -0.082 Cl
ATOM     16  C   UNL     1      35.290 -22.550 -14.881  0.00  0.00    -0.043 C 
ATOM     17  C   UNL     1      36.323 -22.005 -15.643  0.00  0.00    -0.005 C 
ATOM     18  C   UNL     1      35.521 -23.681 -14.100  0.00  0.00    -0.005 C 
ATOM     19  C   UNL     1      37.587 -22.592 -15.624  0.00  0.00    +0.011 C 
ATOM     20  C   UNL     1      36.787 -24.269 -14.081  0.00  0.00    +0.011 C 
ATOM     21  C   UNL     1      37.820 -23.724 -14.843  0.00  0.00    +0.058 C 
ENDBRANCH  14  16
ENDBRANCH   1  14
BRANCH   1  22
ATOM     22  C   UNL     1      32.268 -23.656 -14.956  0.00  0.00    -0.043 C 
BRANCH  22  24
ATOM     23  S   UNL     1      30.109 -22.356 -16.133  0.00  0.00    -0.070 S 
ATOM     24  C   UNL     1      30.798 -23.671 -15.279  0.00  0.00    -0.012 C 
ATOM     25  C   UNL     1      29.863 -24.636 -14.975  0.00  0.00    +0.002 C 
ATOM     26  C   UNL     1      28.565 -24.292 -15.449  0.00  0.00    +0.031 C 
ATOM     27  C   UNL     1      28.556 -23.076 -16.097  0.00  0.00    +0.172 C 
BRANCH  27  30
ATOM     28  O   UNL     1      27.111 -21.284 -16.245  0.00  0.00    -0.126 OA
ATOM     29  O   UNL     1      26.883 -22.933 -17.677  0.00  0.00    -0.126 OA
ATOM     30  N   UNL     1      27.478 -22.407 -16.694  0.00  0.00    +0.064 N 
ENDBRANCH  27  30
ENDBRANCH  22  24
ENDBRANCH   1  22
TORSDOF 9
ENDMDL
