MODEL 1
REMARK VINA RESULT:     -10.8      0.000      0.000
REMARK  Name = 16229
REMARK  9 active torsions:
REMARK  status: ('A' for Active; 'I' for Inactive)
REMARK    1  A    between atoms: N_3  and  C_14
REMARK    2  A    between atoms: C_8  and  C_24
REMARK    3  A    between atoms: C_14  and  C_15
REMARK    4  A    between atoms: C_15  and  N_16
REMARK    5  A    between atoms: N_16  and  C_18
REMARK    6  A    between atoms: N_16  and  C_20
REMARK    7  A    between atoms: C_20  and  C_21
REMARK    8  A    between atoms: C_21  and  O_22
REMARK    9  A    between atoms: C_24  and  C_25
REMARK                            x       y       z     vdW  Elec       q    Type
REMARK                         _______ _______ _______ _____ _____    ______ ____
ROOT
ATOM      1  O   UNL     1      32.711 -24.027 -13.007  0.00  0.00    -0.272 OA
ATOM      2  O   UNL     1      37.276 -22.983 -12.720  0.00  0.00    -0.252 OA
ATOM      3  N   UNL     1      32.899 -23.090 -15.842  0.00  0.00    -0.276 N 
ATOM      4  N   UNL     1      36.192 -22.616 -14.746  0.00  0.00    -0.218 N 
ATOM      5  N   UNL     1      34.791 -22.334 -16.749  0.00  0.00    -0.378 NA
ATOM      6  N   UNL     1      34.997 -23.511 -12.840  0.00  0.00    -0.210 N 
ATOM      7  C   UNL     1      33.848 -23.162 -14.863  0.00  0.00    +0.220 C 
ATOM      8  C   UNL     1      33.515 -22.586 -16.958  0.00  0.00    +0.166 C 
ATOM      9  C   UNL     1      34.996 -22.694 -15.444  0.00  0.00    +0.195 C 
ATOM     10  C   UNL     1      33.750 -23.611 -13.512  0.00  0.00    +0.259 C 
ATOM     11  C   UNL     1      36.239 -23.029 -13.391  0.00  0.00    +0.318 C 
ATOM     12  C   UNL     1      37.387 -22.110 -15.409  0.00  0.00    +0.124 C 
ATOM     13  C   UNL     1      35.025 -23.941 -11.445  0.00  0.00    +0.124 C 
ENDROOT
BRANCH   3  14
ATOM     14  C   UNL     1      31.510 -23.471 -15.732  0.00  0.00    +0.071 C 
BRANCH  14  15
ATOM     15  C   UNL     1      30.662 -22.359 -15.119  0.00  0.00    -0.055 C 
BRANCH  15  16
ATOM     16  N   UNL     1      29.352 -22.877 -14.744  0.00  0.00    +0.390 N 
ATOM     17  H   UNL     1      29.286 -22.867 -13.726  0.00  0.00    -0.080 HD
BRANCH  16  18
ATOM     18  C   UNL     1      28.288 -22.032 -15.289  0.00  0.00    -0.077 C 
ATOM     19  C   UNL     1      27.677 -22.654 -16.533  0.00  0.00    -0.025 C 
ENDBRANCH  16  18
BRANCH  16  20
ATOM     20  C   UNL     1      29.192 -24.257 -15.208  0.00  0.00    -0.045 C 
BRANCH  20  21
ATOM     21  C   UNL     1      28.862 -25.179 -14.045  0.00  0.00    +0.115 C 
BRANCH  21  22
ATOM     22  O   UNL     1      29.747 -24.896 -12.971  0.00  0.00    -0.384 OA
ATOM     23  H   UNL     1      30.391 -25.615 -12.883  0.00  0.00    +0.210 HD
ENDBRANCH  21  22
ENDBRANCH  20  21
ENDBRANCH  16  20
ENDBRANCH  15  16
ENDBRANCH  14  15
ENDBRANCH   3  14
BRANCH   8  24
ATOM     24  C   UNL     1      32.787 -22.367 -18.226  0.00  0.00    +0.101 C 
BRANCH  24  25
ATOM     25  C   UNL     1      33.443 -21.346 -19.146  0.00  0.00    -0.014 C 
ATOM     26  C   UNL     1      34.817 -21.340 -19.262  0.00  0.00    -0.004 C 
ATOM     27  C   UNL     1      32.641 -20.459 -19.836  0.00  0.00    -0.004 C 
ATOM     28  C   UNL     1      35.417 -20.405 -20.105  0.00  0.00    -0.000 C 
ATOM     29  C   UNL     1      33.242 -19.525 -20.679  0.00  0.00    -0.000 C 
ATOM     30  C   UNL     1      34.630 -19.498 -20.814  0.00  0.00    -0.000 C 
ENDBRANCH  24  25
ENDBRANCH   8  24
TORSDOF 9
ENDMDL
MODEL 2
REMARK VINA RESULT:     -10.1      1.410      2.038
REMARK  Name = 16229
REMARK  9 active torsions:
REMARK  status: ('A' for Active; 'I' for Inactive)
REMARK    1  A    between atoms: N_3  and  C_14
REMARK    2  A    between atoms: C_8  and  C_24
REMARK    3  A    between atoms: C_14  and  C_15
REMARK    4  A    between atoms: C_15  and  N_16
REMARK    5  A    between atoms: N_16  and  C_18
REMARK    6  A    between atoms: N_16  and  C_20
REMARK    7  A    between atoms: C_20  and  C_21
REMARK    8  A    between atoms: C_21  and  O_22
REMARK    9  A    between atoms: C_24  and  C_25
REMARK                            x       y       z     vdW  Elec       q    Type
REMARK                         _______ _______ _______ _____ _____    ______ ____
ROOT
ATOM      1  O   UNL     1      33.072 -24.230 -14.100  0.00  0.00    -0.272 OA
ATOM      2  O   UNL     1      37.556 -23.046 -13.395  0.00  0.00    -0.252 OA
ATOM      3  N   UNL     1      33.353 -22.858 -16.744  0.00  0.00    -0.276 N 
ATOM      4  N   UNL     1      36.558 -22.416 -15.400  0.00  0.00    -0.218 N 
ATOM      5  N   UNL     1      35.246 -21.888 -17.414  0.00  0.00    -0.378 NA
ATOM      6  N   UNL     1      35.317 -23.647 -13.724  0.00  0.00    -0.210 N 
ATOM      7  C   UNL     1      34.254 -23.039 -15.734  0.00  0.00    +0.220 C 
ATOM      8  C   UNL     1      33.997 -22.160 -17.733  0.00  0.00    +0.166 C 
ATOM      9  C   UNL     1      35.403 -22.437 -16.170  0.00  0.00    +0.195 C 
ATOM     10  C   UNL     1      34.112 -23.696 -14.475  0.00  0.00    +0.259 C 
ATOM     11  C   UNL     1      36.558 -23.032 -14.123  0.00  0.00    +0.318 C 
ATOM     12  C   UNL     1      37.757 -21.762 -15.908  0.00  0.00    +0.124 C 
ATOM     13  C   UNL     1      35.297 -24.287 -12.412  0.00  0.00    +0.124 C 
ENDROOT
BRANCH   3  14
ATOM     14  C   UNL     1      31.982 -23.310 -16.773  0.00  0.00    +0.071 C 
BRANCH  14  15
ATOM     15  C   UNL     1      31.065 -22.404 -15.955  0.00  0.00    -0.055 C 
BRANCH  15  16
ATOM     16  N   UNL     1      29.773 -23.048 -15.755  0.00  0.00    +0.390 N 
ATOM     17  H   UNL     1      29.745 -23.892 -16.327  0.00  0.00    -0.080 HD
BRANCH  16  18
ATOM     18  C   UNL     1      29.598 -23.429 -14.352  0.00  0.00    -0.077 C 
ATOM     19  C   UNL     1      29.525 -24.939 -14.199  0.00  0.00    -0.025 C 
ENDBRANCH  16  18
BRANCH  16  20
ATOM     20  C   UNL     1      28.685 -22.163 -16.179  0.00  0.00    -0.045 C 
BRANCH  20  21
ATOM     21  C   UNL     1      27.389 -22.942 -16.336  0.00  0.00    +0.115 C 
BRANCH  21  22
ATOM     22  O   UNL     1      27.084 -23.047 -17.720  0.00  0.00    -0.384 OA
ATOM     23  H   UNL     1      26.547 -22.288 -17.992  0.00  0.00    +0.210 HD
ENDBRANCH  21  22
ENDBRANCH  20  21
ENDBRANCH  16  20
ENDBRANCH  15  16
ENDBRANCH  14  15
ENDBRANCH   3  14
BRANCH   8  24
ATOM     24  C   UNL     1      33.323 -21.778 -18.992  0.00  0.00    +0.101 C 
BRANCH  24  25
ATOM     25  C   UNL     1      34.054 -20.701 -19.781  0.00  0.00    -0.014 C 
ATOM     26  C   UNL     1      33.321 -19.848 -20.580  0.00  0.00    -0.004 C 
ATOM     27  C   UNL     1      35.427 -20.611 -19.673  0.00  0.00    -0.004 C 
ATOM     28  C   UNL     1      33.992 -18.861 -21.303  0.00  0.00    -0.000 C 
ATOM     29  C   UNL     1      36.096 -19.625 -20.396  0.00  0.00    -0.000 C 
ATOM     30  C   UNL     1      35.378 -18.749 -21.211  0.00  0.00    -0.000 C 
ENDBRANCH  24  25
ENDBRANCH   8  24
TORSDOF 9
ENDMDL
MODEL 3
REMARK VINA RESULT:      -9.8      1.619      5.212
REMARK  Name = 16229
REMARK  9 active torsions:
REMARK  status: ('A' for Active; 'I' for Inactive)
REMARK    1  A    between atoms: N_3  and  C_14
REMARK    2  A    between atoms: C_8  and  C_24
REMARK    3  A    between atoms: C_14  and  C_15
REMARK    4  A    between atoms: C_15  and  N_16
REMARK    5  A    between atoms: N_16  and  C_18
REMARK    6  A    between atoms: N_16  and  C_20
REMARK    7  A    between atoms: C_20  and  C_21
REMARK    8  A    between atoms: C_21  and  O_22
REMARK    9  A    between atoms: C_24  and  C_25
REMARK                            x       y       z     vdW  Elec       q    Type
REMARK                         _______ _______ _______ _____ _____    ______ ____
ROOT
ATOM      1  O   UNL     1      32.775 -24.083 -12.831  0.00  0.00    -0.272 OA
ATOM      2  O   UNL     1      28.377 -23.562 -14.381  0.00  0.00    -0.252 OA
ATOM      3  N   UNL     1      33.610 -23.085 -15.524  0.00  0.00    -0.276 N 
ATOM      4  N   UNL     1      30.120 -23.015 -15.822  0.00  0.00    -0.218 N 
ATOM      5  N   UNL     1      32.154 -22.518 -17.116  0.00  0.00    -0.378 NA
ATOM      6  N   UNL     1      30.564 -23.831 -13.586  0.00  0.00    -0.210 N 
ATOM      7  C   UNL     1      32.368 -23.293 -14.997  0.00  0.00    +0.220 C 
ATOM      8  C   UNL     1      33.429 -22.619 -16.801  0.00  0.00    +0.166 C 
ATOM      9  C   UNL     1      31.496 -22.938 -15.991  0.00  0.00    +0.195 C 
ATOM     10  C   UNL     1      31.977 -23.769 -13.710  0.00  0.00    +0.259 C 
ATOM     11  C   UNL     1      29.592 -23.474 -14.588  0.00  0.00    +0.318 C 
ATOM     12  C   UNL     1      29.232 -22.626 -16.910  0.00  0.00    +0.124 C 
ATOM     13  C   UNL     1      30.040 -24.307 -12.309  0.00  0.00    +0.124 C 
ENDROOT
BRANCH   3  14
ATOM     14  C   UNL     1      34.877 -23.311 -14.870  0.00  0.00    +0.071 C 
BRANCH  14  15
ATOM     15  C   UNL     1      35.289 -24.780 -14.917  0.00  0.00    -0.055 C 
BRANCH  15  16
ATOM     16  N   UNL     1      35.732 -25.219 -13.599  0.00  0.00    +0.390 N 
ATOM     17  H   UNL     1      34.942 -25.660 -13.129  0.00  0.00    -0.080 HD
BRANCH  16  18
ATOM     18  C   UNL     1      36.812 -26.200 -13.718  0.00  0.00    -0.077 C 
ATOM     19  C   UNL     1      38.088 -25.553 -14.229  0.00  0.00    -0.025 C 
ENDBRANCH  16  18
BRANCH  16  20
ATOM     20  C   UNL     1      36.172 -24.076 -12.796  0.00  0.00    -0.045 C 
BRANCH  20  21
ATOM     21  C   UNL     1      36.055 -24.385 -11.313  0.00  0.00    +0.115 C 
BRANCH  21  22
ATOM     22  O   UNL     1      34.709 -24.736 -11.023  0.00  0.00    -0.384 OA
ATOM     23  H   UNL     1      34.405 -24.242 -10.247  0.00  0.00    +0.210 HD
ENDBRANCH  21  22
ENDBRANCH  20  21
ENDBRANCH  16  20
ENDBRANCH  15  16
ENDBRANCH  14  15
ENDBRANCH   3  14
BRANCH   8  24
ATOM     24  C   UNL     1      34.566 -22.285 -17.684  0.00  0.00    +0.101 C 
BRANCH  24  25
ATOM     25  C   UNL     1      34.210 -21.333 -18.817  0.00  0.00    -0.014 C 
ATOM     26  C   UNL     1      35.228 -20.718 -19.516  0.00  0.00    -0.004 C 
ATOM     27  C   UNL     1      32.878 -21.115 -19.111  0.00  0.00    -0.004 C 
ATOM     28  C   UNL     1      34.900 -19.845 -20.554  0.00  0.00    -0.000 C 
ATOM     29  C   UNL     1      32.552 -20.243 -20.148  0.00  0.00    -0.000 C 
ATOM     30  C   UNL     1      33.563 -19.608 -20.871  0.00  0.00    -0.000 C 
ENDBRANCH  24  25
ENDBRANCH   8  24
TORSDOF 9
ENDMDL
MODEL 4
REMARK VINA RESULT:      -9.6      1.791      5.344
REMARK  Name = 16229
REMARK  9 active torsions:
REMARK  status: ('A' for Active; 'I' for Inactive)
REMARK    1  A    between atoms: N_3  and  C_14
REMARK    2  A    between atoms: C_8  and  C_24
REMARK    3  A    between atoms: C_14  and  C_15
REMARK    4  A    between atoms: C_15  and  N_16
REMARK    5  A    between atoms: N_16  and  C_18
REMARK    6  A    between atoms: N_16  and  C_20
REMARK    7  A    between atoms: C_20  and  C_21
REMARK    8  A    between atoms: C_21  and  O_22
REMARK    9  A    between atoms: C_24  and  C_25
REMARK                            x       y       z     vdW  Elec       q    Type
REMARK                         _______ _______ _______ _____ _____    ______ ____
ROOT
ATOM      1  O   UNL     1      32.410 -23.239 -12.588  0.00  0.00    -0.272 OA
ATOM      2  O   UNL     1      28.084 -23.659 -14.356  0.00  0.00    -0.252 OA
ATOM      3  N   UNL     1      33.287 -22.810 -15.416  0.00  0.00    -0.276 N 
ATOM      4  N   UNL     1      29.837 -23.253 -15.831  0.00  0.00    -0.218 N 
ATOM      5  N   UNL     1      31.875 -22.825 -17.142  0.00  0.00    -0.378 NA
ATOM      6  N   UNL     1      30.235 -23.454 -13.451  0.00  0.00    -0.210 N 
ATOM      7  C   UNL     1      32.047 -23.042 -14.894  0.00  0.00    +0.220 C 
ATOM      8  C   UNL     1      33.132 -22.687 -16.772  0.00  0.00    +0.166 C 
ATOM      9  C   UNL     1      31.202 -23.045 -15.971  0.00  0.00    +0.195 C 
ATOM     10  C   UNL     1      31.636 -23.245 -13.542  0.00  0.00    +0.259 C 
ATOM     11  C   UNL     1      29.291 -23.469 -14.541  0.00  0.00    +0.318 C 
ATOM     12  C   UNL     1      28.979 -23.248 -17.009  0.00  0.00    +0.124 C 
ATOM     13  C   UNL     1      29.692 -23.675 -12.114  0.00  0.00    +0.124 C 
ENDROOT
BRANCH   3  14
ATOM     14  C   UNL     1      34.530 -22.713 -14.687  0.00  0.00    +0.071 C 
BRANCH  14  15
ATOM     15  C   UNL     1      35.194 -24.076 -14.507  0.00  0.00    -0.055 C 
BRANCH  15  16
ATOM     16  N   UNL     1      36.519 -24.072 -15.115  0.00  0.00    +0.390 N 
ATOM     17  H   UNL     1      36.406 -24.152 -16.126  0.00  0.00    -0.080 HD
BRANCH  16  18
ATOM     18  C   UNL     1      37.218 -22.820 -14.821  0.00  0.00    -0.077 C 
ATOM     19  C   UNL     1      37.553 -22.066 -16.097  0.00  0.00    -0.025 C 
ENDBRANCH  16  18
BRANCH  16  20
ATOM     20  C   UNL     1      37.305 -25.214 -14.644  0.00  0.00    -0.045 C 
BRANCH  20  21
ATOM     21  C   UNL     1      36.486 -26.493 -14.708  0.00  0.00    +0.115 C 
BRANCH  21  22
ATOM     22  O   UNL     1      36.474 -26.962 -16.050  0.00  0.00    -0.384 OA
ATOM     23  H   UNL     1      36.466 -26.206 -16.657  0.00  0.00    +0.210 HD
ENDBRANCH  21  22
ENDBRANCH  20  21
ENDBRANCH  16  20
ENDBRANCH  15  16
ENDBRANCH  14  15
ENDBRANCH   3  14
BRANCH   8  24
ATOM     24  C   UNL     1      34.276 -22.431 -17.674  0.00  0.00    +0.101 C 
BRANCH  24  25
ATOM     25  C   UNL     1      33.979 -21.423 -18.776  0.00  0.00    -0.014 C 
ATOM     26  C   UNL     1      35.035 -20.821 -19.430  0.00  0.00    -0.004 C 
ATOM     27  C   UNL     1      32.664 -21.143 -19.087  0.00  0.00    -0.004 C 
ATOM     28  C   UNL     1      34.763 -19.898 -20.439  0.00  0.00    -0.000 C 
ATOM     29  C   UNL     1      32.393 -20.220 -20.097  0.00  0.00    -0.000 C 
ATOM     30  C   UNL     1      33.443 -19.598 -20.773  0.00  0.00    -0.000 C 
ENDBRANCH  24  25
ENDBRANCH   8  24
TORSDOF 9
ENDMDL
MODEL 5
REMARK VINA RESULT:      -9.2      2.284      6.072
REMARK  Name = 16229
REMARK  9 active torsions:
REMARK  status: ('A' for Active; 'I' for Inactive)
REMARK    1  A    between atoms: N_3  and  C_14
REMARK    2  A    between atoms: C_8  and  C_24
REMARK    3  A    between atoms: C_14  and  C_15
REMARK    4  A    between atoms: C_15  and  N_16
REMARK    5  A    between atoms: N_16  and  C_18
REMARK    6  A    between atoms: N_16  and  C_20
REMARK    7  A    between atoms: C_20  and  C_21
REMARK    8  A    between atoms: C_21  and  O_22
REMARK    9  A    between atoms: C_24  and  C_25
REMARK                            x       y       z     vdW  Elec       q    Type
REMARK                         _______ _______ _______ _____ _____    ______ ____
ROOT
ATOM      1  O   UNL     1      36.122 -22.062 -14.293  0.00  0.00    -0.272 OA
ATOM      2  O   UNL     1      35.913 -21.058 -18.871  0.00  0.00    -0.252 OA
ATOM      3  N   UNL     1      33.330 -23.087 -14.614  0.00  0.00    -0.276 N 
ATOM      4  N   UNL     1      34.048 -22.028 -17.875  0.00  0.00    -0.218 N 
ATOM      5  N   UNL     1      32.239 -23.054 -16.558  0.00  0.00    -0.378 NA
ATOM      6  N   UNL     1      36.040 -21.549 -16.585  0.00  0.00    -0.210 N 
ATOM      7  C   UNL     1      34.186 -22.534 -15.522  0.00  0.00    +0.220 C 
ATOM      8  C   UNL     1      32.172 -23.383 -15.285  0.00  0.00    +0.166 C 
ATOM      9  C   UNL     1      33.494 -22.526 -16.704  0.00  0.00    +0.195 C 
ATOM     10  C   UNL     1      35.518 -22.047 -15.362  0.00  0.00    +0.259 C 
ATOM     11  C   UNL     1      35.368 -21.512 -17.859  0.00  0.00    +0.318 C 
ATOM     12  C   UNL     1      33.271 -22.041 -19.108  0.00  0.00    +0.124 C 
ATOM     13  C   UNL     1      37.401 -21.021 -16.548  0.00  0.00    +0.124 C 
ENDROOT
BRANCH   3  14
ATOM     14  C   UNL     1      33.587 -23.319 -13.212  0.00  0.00    +0.071 C 
BRANCH  14  15
ATOM     15  C   UNL     1      34.249 -24.674 -12.970  0.00  0.00    -0.055 C 
BRANCH  15  16
ATOM     16  N   UNL     1      35.692 -24.512 -12.848  0.00  0.00    +0.390 N 
ATOM     17  H   UNL     1      35.944 -23.601 -13.230  0.00  0.00    -0.080 HD
BRANCH  16  18
ATOM     18  C   UNL     1      36.099 -24.557 -11.442  0.00  0.00    -0.077 C 
ATOM     19  C   UNL     1      36.357 -23.162 -10.901  0.00  0.00    -0.025 C 
ENDBRANCH  16  18
BRANCH  16  20
ATOM     20  C   UNL     1      36.392 -25.548 -13.612  0.00  0.00    -0.045 C 
BRANCH  20  21
ATOM     21  C   UNL     1      35.730 -25.759 -14.963  0.00  0.00    +0.115 C 
BRANCH  21  22
ATOM     22  O   UNL     1      36.490 -26.704 -15.703  0.00  0.00    -0.384 OA
ATOM     23  H   UNL     1      37.292 -26.278 -16.044  0.00  0.00    +0.210 HD
ENDBRANCH  21  22
ENDBRANCH  20  21
ENDBRANCH  16  20
ENDBRANCH  15  16
ENDBRANCH  14  15
ENDBRANCH   3  14
BRANCH   8  24
ATOM     24  C   UNL     1      31.009 -23.999 -14.611  0.00  0.00    +0.101 C 
BRANCH  24  25
ATOM     25  C   UNL     1      29.665 -23.486 -15.108  0.00  0.00    -0.014 C 
ATOM     26  C   UNL     1      29.248 -22.228 -14.723  0.00  0.00    -0.004 C 
ATOM     27  C   UNL     1      28.905 -24.294 -15.929  0.00  0.00    -0.004 C 
ATOM     28  C   UNL     1      28.016 -21.758 -15.179  0.00  0.00    -0.000 C 
ATOM     29  C   UNL     1      27.674 -23.824 -16.384  0.00  0.00    -0.000 C 
ATOM     30  C   UNL     1      27.230 -22.555 -16.010  0.00  0.00    -0.000 C 
ENDBRANCH  24  25
ENDBRANCH   8  24
TORSDOF 9
ENDMDL
MODEL 6
REMARK VINA RESULT:      -9.1      2.117      5.473
REMARK  Name = 16229
REMARK  9 active torsions:
REMARK  status: ('A' for Active; 'I' for Inactive)
REMARK    1  A    between atoms: N_3  and  C_14
REMARK    2  A    between atoms: C_8  and  C_24
REMARK    3  A    between atoms: C_14  and  C_15
REMARK    4  A    between atoms: C_15  and  N_16
REMARK    5  A    between atoms: N_16  and  C_18
REMARK    6  A    between atoms: N_16  and  C_20
REMARK    7  A    between atoms: C_20  and  C_21
REMARK    8  A    between atoms: C_21  and  O_22
REMARK    9  A    between atoms: C_24  and  C_25
REMARK                            x       y       z     vdW  Elec       q    Type
REMARK                         _______ _______ _______ _____ _____    ______ ____
ROOT
ATOM      1  O   UNL     1      31.773 -22.093 -18.450  0.00  0.00    -0.272 OA
ATOM      2  O   UNL     1      36.031 -20.351 -19.368  0.00  0.00    -0.252 OA
ATOM      3  N   UNL     1      32.975 -23.104 -15.904  0.00  0.00    -0.276 N 
ATOM      4  N   UNL     1      35.727 -21.510 -17.373  0.00  0.00    -0.218 N 
ATOM      5  N   UNL     1      35.110 -22.774 -15.353  0.00  0.00    -0.378 NA
ATOM      6  N   UNL     1      33.897 -21.213 -18.931  0.00  0.00    -0.210 N 
ATOM      7  C   UNL     1      33.529 -22.393 -16.929  0.00  0.00    +0.220 C 
ATOM      8  C   UNL     1      33.966 -23.309 -14.980  0.00  0.00    +0.166 C 
ATOM      9  C   UNL     1      34.835 -22.203 -16.567  0.00  0.00    +0.195 C 
ATOM     10  C   UNL     1      32.948 -21.913 -18.142  0.00  0.00    +0.259 C 
ATOM     11  C   UNL     1      35.283 -20.978 -18.610  0.00  0.00    +0.318 C 
ATOM     12  C   UNL     1      37.108 -21.336 -16.943  0.00  0.00    +0.124 C 
ATOM     13  C   UNL     1      33.421 -20.673 -20.202  0.00  0.00    +0.124 C 
ENDROOT
BRANCH   3  14
ATOM     14  C   UNL     1      31.608 -23.559 -15.804  0.00  0.00    +0.071 C 
BRANCH  14  15
ATOM     15  C   UNL     1      30.695 -22.492 -15.205  0.00  0.00    -0.055 C 
BRANCH  15  16
ATOM     16  N   UNL     1      29.321 -22.978 -15.155  0.00  0.00    +0.390 N 
ATOM     17  H   UNL     1      28.945 -22.774 -14.229  0.00  0.00    -0.080 HD
BRANCH  16  18
ATOM     18  C   UNL     1      28.496 -22.297 -16.155  0.00  0.00    -0.077 C 
ATOM     19  C   UNL     1      27.075 -22.104 -15.654  0.00  0.00    -0.025 C 
ENDBRANCH  16  18
BRANCH  16  20
ATOM     20  C   UNL     1      29.280 -24.427 -15.366  0.00  0.00    -0.045 C 
BRANCH  20  21
ATOM     21  C   UNL     1      28.676 -25.128 -14.159  0.00  0.00    +0.115 C 
BRANCH  21  22
ATOM     22  O   UNL     1      29.558 -24.980 -13.055  0.00  0.00    -0.384 OA
ATOM     23  H   UNL     1      29.300 -24.205 -12.536  0.00  0.00    +0.210 HD
ENDBRANCH  21  22
ENDBRANCH  20  21
ENDBRANCH  16  20
ENDBRANCH  15  16
ENDBRANCH  14  15
ENDBRANCH   3  14
BRANCH   8  24
ATOM     24  C   UNL     1      33.729 -24.054 -13.725  0.00  0.00    +0.101 C 
BRANCH  24  25
ATOM     25  C   UNL     1      34.938 -24.110 -12.802  0.00  0.00    -0.014 C 
ATOM     26  C   UNL     1      35.961 -24.988 -13.095  0.00  0.00    -0.004 C 
ATOM     27  C   UNL     1      34.975 -23.278 -11.701  0.00  0.00    -0.004 C 
ATOM     28  C   UNL     1      37.068 -25.039 -12.249  0.00  0.00    -0.000 C 
ATOM     29  C   UNL     1      36.083 -23.329 -10.855  0.00  0.00    -0.000 C 
ATOM     30  C   UNL     1      37.130 -24.210 -11.130  0.00  0.00    -0.000 C 
ENDBRANCH  24  25
ENDBRANCH   8  24
TORSDOF 9
ENDMDL
MODEL 7
REMARK VINA RESULT:      -9.0      2.188      6.139
REMARK  Name = 16229
REMARK  9 active torsions:
REMARK  status: ('A' for Active; 'I' for Inactive)
REMARK    1  A    between atoms: N_3  and  C_14
REMARK    2  A    between atoms: C_8  and  C_24
REMARK    3  A    between atoms: C_14  and  C_15
REMARK    4  A    between atoms: C_15  and  N_16
REMARK    5  A    between atoms: N_16  and  C_18
REMARK    6  A    between atoms: N_16  and  C_20
REMARK    7  A    between atoms: C_20  and  C_21
REMARK    8  A    between atoms: C_21  and  O_22
REMARK    9  A    between atoms: C_24  and  C_25
REMARK                            x       y       z     vdW  Elec       q    Type
REMARK                         _______ _______ _______ _____ _____    ______ ____
ROOT
ATOM      1  O   UNL     1      36.330 -22.199 -14.437  0.00  0.00    -0.272 OA
ATOM      2  O   UNL     1      35.897 -20.956 -18.941  0.00  0.00    -0.252 OA
ATOM      3  N   UNL     1      33.515 -23.187 -14.666  0.00  0.00    -0.276 N 
ATOM      4  N   UNL     1      34.076 -21.964 -17.901  0.00  0.00    -0.218 N 
ATOM      5  N   UNL     1      32.327 -23.044 -16.548  0.00  0.00    -0.378 NA
ATOM      6  N   UNL     1      36.136 -21.567 -16.692  0.00  0.00    -0.210 N 
ATOM      7  C   UNL     1      34.329 -22.592 -15.588  0.00  0.00    +0.220 C 
ATOM      8  C   UNL     1      32.322 -23.439 -15.291  0.00  0.00    +0.166 C 
ATOM      9  C   UNL     1      33.577 -22.518 -16.730  0.00  0.00    +0.195 C 
ATOM     10  C   UNL     1      35.672 -22.124 -15.471  0.00  0.00    +0.259 C 
ATOM     11  C   UNL     1      35.400 -21.458 -17.927  0.00  0.00    +0.318 C 
ATOM     12  C   UNL     1      33.236 -21.908 -19.091  0.00  0.00    +0.124 C 
ATOM     13  C   UNL     1      37.502 -21.050 -16.698  0.00  0.00    +0.124 C 
ENDROOT
BRANCH   3  14
ATOM     14  C   UNL     1      33.842 -23.493 -13.293  0.00  0.00    +0.071 C 
BRANCH  14  15
ATOM     15  C   UNL     1      34.658 -24.777 -13.174  0.00  0.00    -0.055 C 
BRANCH  15  16
ATOM     16  N   UNL     1      35.504 -24.726 -11.988  0.00  0.00    +0.390 N 
ATOM     17  H   UNL     1      35.119 -25.367 -11.295  0.00  0.00    -0.080 HD
BRANCH  16  18
ATOM     18  C   UNL     1      36.869 -25.149 -12.309  0.00  0.00    -0.077 C 
ATOM     19  C   UNL     1      36.884 -26.110 -13.485  0.00  0.00    -0.025 C 
ENDBRANCH  16  18
BRANCH  16  20
ATOM     20  C   UNL     1      35.512 -23.376 -11.420  0.00  0.00    -0.045 C 
BRANCH  20  21
ATOM     21  C   UNL     1      35.716 -23.429  -9.914  0.00  0.00    +0.115 C 
BRANCH  21  22
ATOM     22  O   UNL     1      34.979 -24.525  -9.391  0.00  0.00    -0.384 OA
ATOM     23  H   UNL     1      35.124 -25.307  -9.944  0.00  0.00    +0.210 HD
ENDBRANCH  21  22
ENDBRANCH  20  21
ENDBRANCH  16  20
ENDBRANCH  15  16
ENDBRANCH  14  15
ENDBRANCH   3  14
BRANCH   8  24
ATOM     24  C   UNL     1      31.189 -24.081 -14.591  0.00  0.00    +0.101 C 
BRANCH  24  25
ATOM     25  C   UNL     1      29.823 -23.569 -15.028  0.00  0.00    -0.014 C 
ATOM     26  C   UNL     1      29.025 -24.381 -15.808  0.00  0.00    -0.004 C 
ATOM     27  C   UNL     1      29.425 -22.309 -14.629  0.00  0.00    -0.004 C 
ATOM     28  C   UNL     1      27.774 -23.911 -16.207  0.00  0.00    -0.000 C 
ATOM     29  C   UNL     1      28.174 -21.840 -15.028  0.00  0.00    -0.000 C 
ATOM     30  C   UNL     1      27.349 -22.642 -15.817  0.00  0.00    -0.000 C 
ENDBRANCH  24  25
ENDBRANCH   8  24
TORSDOF 9
ENDMDL
MODEL 8
REMARK VINA RESULT:      -9.0      2.610      5.696
REMARK  Name = 16229
REMARK  9 active torsions:
REMARK  status: ('A' for Active; 'I' for Inactive)
REMARK    1  A    between atoms: N_3  and  C_14
REMARK    2  A    between atoms: C_8  and  C_24
REMARK    3  A    between atoms: C_14  and  C_15
REMARK    4  A    between atoms: C_15  and  N_16
REMARK    5  A    between atoms: N_16  and  C_18
REMARK    6  A    between atoms: N_16  and  C_20
REMARK    7  A    between atoms: C_20  and  C_21
REMARK    8  A    between atoms: C_21  and  O_22
REMARK    9  A    between atoms: C_24  and  C_25
REMARK                            x       y       z     vdW  Elec       q    Type
REMARK                         _______ _______ _______ _____ _____    ______ ____
ROOT
ATOM      1  O   UNL     1      32.241 -21.993 -19.111  0.00  0.00    -0.272 OA
ATOM      2  O   UNL     1      36.407 -19.859 -19.432  0.00  0.00    -0.252 OA
ATOM      3  N   UNL     1      33.189 -22.965 -16.445  0.00  0.00    -0.276 N 
ATOM      4  N   UNL     1      35.953 -21.096 -17.514  0.00  0.00    -0.218 N 
ATOM      5  N   UNL     1      35.197 -22.464 -15.613  0.00  0.00    -0.378 NA
ATOM      6  N   UNL     1      34.322 -20.916 -19.294  0.00  0.00    -0.210 N 
ATOM      7  C   UNL     1      33.805 -22.180 -17.377  0.00  0.00    +0.220 C 
ATOM      8  C   UNL     1      34.067 -23.108 -15.402  0.00  0.00    +0.166 C 
ATOM      9  C   UNL     1      35.030 -21.887 -16.843  0.00  0.00    +0.195 C 
ATOM     10  C   UNL     1      33.345 -21.719 -18.648  0.00  0.00    +0.259 C 
ATOM     11  C   UNL     1      35.626 -20.570 -18.789  0.00  0.00    +0.318 C 
ATOM     12  C   UNL     1      37.245 -20.813 -16.903  0.00  0.00    +0.124 C 
ATOM     13  C   UNL     1      33.967 -20.385 -20.607  0.00  0.00    +0.124 C 
ENDROOT
BRANCH   3  14
ATOM     14  C   UNL     1      31.868 -23.540 -16.534  0.00  0.00    +0.071 C 
BRANCH  14  15
ATOM     15  C   UNL     1      30.790 -22.569 -16.060  0.00  0.00    -0.055 C 
BRANCH  15  16
ATOM     16  N   UNL     1      29.811 -23.268 -15.238  0.00  0.00    +0.390 N 
ATOM     17  H   UNL     1      29.871 -24.264 -15.448  0.00  0.00    -0.080 HD
BRANCH  16  18
ATOM     18  C   UNL     1      30.098 -23.073 -13.815  0.00  0.00    -0.077 C 
ATOM     19  C   UNL     1      30.231 -24.404 -13.095  0.00  0.00    -0.025 C 
ENDBRANCH  16  18
BRANCH  16  20
ATOM     20  C   UNL     1      28.455 -22.809 -15.549  0.00  0.00    -0.045 C 
BRANCH  20  21
ATOM     21  C   UNL     1      27.774 -23.762 -16.518  0.00  0.00    +0.115 C 
BRANCH  21  22
ATOM     22  O   UNL     1      27.181 -23.004 -17.563  0.00  0.00    -0.384 OA
ATOM     23  H   UNL     1      27.413 -22.070 -17.458  0.00  0.00    +0.210 HD
ENDBRANCH  21  22
ENDBRANCH  20  21
ENDBRANCH  16  20
ENDBRANCH  15  16
ENDBRANCH  14  15
ENDBRANCH   3  14
BRANCH   8  24
ATOM     24  C   UNL     1      33.737 -23.906 -14.202  0.00  0.00    +0.101 C 
BRANCH  24  25
ATOM     25  C   UNL     1      34.955 -24.468 -13.481  0.00  0.00    -0.014 C 
ATOM     26  C   UNL     1      35.778 -25.349 -14.150  0.00  0.00    -0.004 C 
ATOM     27  C   UNL     1      35.197 -24.077 -12.179  0.00  0.00    -0.004 C 
ATOM     28  C   UNL     1      36.893 -25.863 -13.489  0.00  0.00    -0.000 C 
ATOM     29  C   UNL     1      36.312 -24.592 -11.519  0.00  0.00    -0.000 C 
ATOM     30  C   UNL     1      37.161 -25.485 -12.174  0.00  0.00    -0.000 C 
ENDBRANCH  24  25
ENDBRANCH   8  24
TORSDOF 9
ENDMDL
MODEL 9
REMARK VINA RESULT:      -8.7      2.481      6.691
REMARK  Name = 16229
REMARK  9 active torsions:
REMARK  status: ('A' for Active; 'I' for Inactive)
REMARK    1  A    between atoms: N_3  and  C_14
REMARK    2  A    between atoms: C_8  and  C_24
REMARK    3  A    between atoms: C_14  and  C_15
REMARK    4  A    between atoms: C_15  and  N_16
REMARK    5  A    between atoms: N_16  and  C_18
REMARK    6  A    between atoms: N_16  and  C_20
REMARK    7  A    between atoms: C_20  and  C_21
REMARK    8  A    between atoms: C_21  and  O_22
REMARK    9  A    between atoms: C_24  and  C_25
REMARK                            x       y       z     vdW  Elec       q    Type
REMARK                         _______ _______ _______ _____ _____    ______ ____
ROOT
ATOM      1  O   UNL     1      36.219 -21.987 -17.336  0.00  0.00    -0.272 OA
ATOM      2  O   UNL     1      34.243 -19.646 -20.889  0.00  0.00    -0.252 OA
ATOM      3  N   UNL     1      33.430 -22.776 -16.593  0.00  0.00    -0.276 N 
ATOM      4  N   UNL     1      32.850 -20.810 -19.434  0.00  0.00    -0.218 N 
ATOM      5  N   UNL     1      31.635 -22.124 -17.744  0.00  0.00    -0.378 NA
ATOM      6  N   UNL     1      35.251 -20.807 -19.122  0.00  0.00    -0.210 N 
ATOM      7  C   UNL     1      33.894 -22.004 -17.618  0.00  0.00    +0.220 C 
ATOM      8  C   UNL     1      32.065 -22.819 -16.711  0.00  0.00    +0.166 C 
ATOM      9  C   UNL     1      32.776 -21.618 -18.307  0.00  0.00    +0.195 C 
ATOM     10  C   UNL     1      35.227 -21.632 -17.967  0.00  0.00    +0.259 C 
ATOM     11  C   UNL     1      34.116 -20.366 -19.893  0.00  0.00    +0.318 C 
ATOM     12  C   UNL     1      31.630 -20.426 -20.133  0.00  0.00    +0.124 C 
ATOM     13  C   UNL     1      36.564 -20.359 -19.579  0.00  0.00    +0.124 C 
ENDROOT
BRANCH   3  14
ATOM     14  C   UNL     1      34.220 -23.427 -15.574  0.00  0.00    +0.071 C 
BRANCH  14  15
ATOM     15  C   UNL     1      34.659 -22.453 -14.483  0.00  0.00    -0.055 C 
BRANCH  15  16
ATOM     16  N   UNL     1      35.981 -22.816 -13.990  0.00  0.00    +0.390 N 
ATOM     17  H   UNL     1      36.653 -22.139 -14.351  0.00  0.00    -0.080 HD
BRANCH  16  18
ATOM     18  C   UNL     1      36.016 -22.772 -12.527  0.00  0.00    -0.077 C 
ATOM     19  C   UNL     1      35.173 -23.883 -11.924  0.00  0.00    -0.025 C 
ENDBRANCH  16  18
BRANCH  16  20
ATOM     20  C   UNL     1      36.361 -24.148 -14.465  0.00  0.00    -0.045 C 
BRANCH  20  21
ATOM     21  C   UNL     1      37.847 -24.203 -14.779  0.00  0.00    +0.115 C 
BRANCH  21  22
ATOM     22  O   UNL     1      38.215 -23.011 -15.461  0.00  0.00    -0.384 OA
ATOM     23  H   UNL     1      37.791 -22.992 -16.331  0.00  0.00    +0.210 HD
ENDBRANCH  21  22
ENDBRANCH  20  21
ENDBRANCH  16  20
ENDBRANCH  15  16
ENDBRANCH  14  15
ENDBRANCH   3  14
BRANCH   8  24
ATOM     24  C   UNL     1      31.218 -23.570 -15.761  0.00  0.00    +0.101 C 
BRANCH  24  25
ATOM     25  C   UNL     1      29.775 -23.087 -15.705  0.00  0.00    -0.014 C 
ATOM     26  C   UNL     1      29.424 -22.147 -14.758  0.00  0.00    -0.004 C 
ATOM     27  C   UNL     1      28.864 -23.603 -16.604  0.00  0.00    -0.004 C 
ATOM     28  C   UNL     1      28.102 -21.704 -14.707  0.00  0.00    -0.000 C 
ATOM     29  C   UNL     1      27.543 -23.160 -16.552  0.00  0.00    -0.000 C 
ATOM     30  C   UNL     1      27.162 -22.209 -15.604  0.00  0.00    -0.000 C 
ENDBRANCH  24  25
ENDBRANCH   8  24
TORSDOF 9
ENDMDL
