MODEL 1
REMARK VINA RESULT:     -10.9      0.000      0.000
REMARK  Name = 25011732
REMARK  7 active torsions:
REMARK  status: ('A' for Active; 'I' for Inactive)
REMARK    1  A    between atoms: C_3  and  C_10
REMARK    2  A    between atoms: C_7  and  C_20
REMARK    3  A    between atoms: N_9  and  C_12
REMARK    4  A    between atoms: C_12  and  C_14
REMARK    5  A    between atoms: C_20  and  N_21
REMARK    6  A    between atoms: C_20  and  C_25
REMARK    7  A    between atoms: C_25  and  C_26
REMARK                            x       y       z     vdW  Elec       q    Type
REMARK                         _______ _______ _______ _____ _____    ______ ____
ROOT
ATOM      1  O   UNL     1      35.849 -21.759 -18.275  0.00  0.00    -0.277 OA
ATOM      2  N   UNL     1      34.291 -22.300 -16.651  0.00  0.00    -0.275 N 
ATOM      3  C   UNL     1      33.321 -22.912 -17.549  0.00  0.00    +0.152 C 
ATOM      4  C   UNL     1      32.372 -23.674 -16.630  0.00  0.00    +0.031 C 
ATOM      5  C   UNL     1      32.415 -22.873 -15.331  0.00  0.00    +0.024 C 
ATOM      6  C   UNL     1      33.861 -22.404 -15.259  0.00  0.00    +0.094 C 
ATOM      7  C   UNL     1      35.520 -21.833 -17.089  0.00  0.00    +0.206 C 
ENDROOT
BRANCH   3  10
ATOM      8  O   UNL     1      31.530 -21.375 -17.907  0.00  0.00    -0.273 OA
ATOM      9  N   UNL     1      33.341 -21.359 -19.370  0.00  0.00    -0.299 N 
ATOM     10  C   UNL     1      32.624 -21.801 -18.272  0.00  0.00    +0.241 C 
ATOM     11  H   UNL     1      34.210 -21.779 -19.562  0.00  0.00    +0.150 HD
BRANCH   9  12
ATOM     12  C   UNL     1      32.875 -20.310 -20.249  0.00  0.00    +0.116 C 
BRANCH  12  14
ATOM     13 CL   UNL     1      34.550 -16.772 -23.683  0.00  0.00    -0.082 Cl
ATOM     14  C   UNL     1      34.009 -19.503 -20.812  0.00  0.00    -0.002 C 
ATOM     15  C   UNL     1      33.780 -18.616 -21.864  0.00  0.00    +0.009 C 
ATOM     16  C   UNL     1      35.293 -19.641 -20.283  0.00  0.00    -0.003 C 
ATOM     17  C   UNL     1      34.834 -17.867 -22.387  0.00  0.00    +0.057 C 
ATOM     18  C   UNL     1      36.346 -18.892 -20.806  0.00  0.00    +0.001 C 
ATOM     19  C   UNL     1      36.117 -18.005 -21.858  0.00  0.00    +0.011 C 
ENDBRANCH  12  14
ENDBRANCH   9  12
ENDBRANCH   3  10
BRANCH   7  20
ATOM     20  C   UNL     1      36.472 -21.391 -16.006  0.00  0.00    +0.018 C 
BRANCH  20  21
ATOM     21  N   UNL     1      37.105 -20.182 -16.520  0.00  0.00    +0.388 N 
ATOM     22  H   UNL     1      38.117 -20.305 -16.528  0.00  0.00    -0.089 HD
ATOM     23  H   UNL     1      36.862 -19.393 -15.923  0.00  0.00    -0.089 HD
ATOM     24  H   UNL     1      36.776 -20.005 -17.469  0.00  0.00    -0.089 HD
ENDBRANCH  20  21
BRANCH  20  25
ATOM     25  C   UNL     1      37.507 -22.475 -15.706  0.00  0.00    +0.013 C 
BRANCH  25  26
ATOM     26  C   UNL     1      37.124 -23.337 -14.525  0.00  0.00    -0.024 C 
ATOM     27  C   UNL     1      37.094 -24.725 -14.657  0.00  0.00    -0.004 C 
ATOM     28  C   UNL     1      36.799 -22.745 -13.304  0.00  0.00    -0.004 C 
ATOM     29  C   UNL     1      36.740 -25.521 -13.568  0.00  0.00    -0.000 C 
ATOM     30  C   UNL     1      36.446 -23.541 -12.215  0.00  0.00    -0.000 C 
ATOM     31  C   UNL     1      36.416 -24.929 -12.347  0.00  0.00    -0.000 C 
ENDBRANCH  25  26
ENDBRANCH  20  25
ENDBRANCH   7  20
TORSDOF 7
ENDMDL
MODEL 2
REMARK VINA RESULT:     -10.8      5.436      8.323
REMARK  Name = 25011732
REMARK  7 active torsions:
REMARK  status: ('A' for Active; 'I' for Inactive)
REMARK    1  A    between atoms: C_3  and  C_10
REMARK    2  A    between atoms: C_7  and  C_20
REMARK    3  A    between atoms: N_9  and  C_12
REMARK    4  A    between atoms: C_12  and  C_14
REMARK    5  A    between atoms: C_20  and  N_21
REMARK    6  A    between atoms: C_20  and  C_25
REMARK    7  A    between atoms: C_25  and  C_26
REMARK                            x       y       z     vdW  Elec       q    Type
REMARK                         _______ _______ _______ _____ _____    ______ ____
ROOT
ATOM      1  O   UNL     1      35.558 -17.286 -20.563  0.00  0.00    -0.277 OA
ATOM      2  N   UNL     1      34.409 -16.710 -22.487  0.00  0.00    -0.275 N 
ATOM      3  C   UNL     1      34.697 -15.283 -22.432  0.00  0.00    +0.152 C 
ATOM      4  C   UNL     1      34.339 -14.762 -23.820  0.00  0.00    +0.031 C 
ATOM      5  C   UNL     1      33.237 -15.712 -24.282  0.00  0.00    +0.024 C 
ATOM      6  C   UNL     1      33.661 -17.051 -23.695  0.00  0.00    +0.094 C 
ATOM      7  C   UNL     1      34.931 -17.611 -21.573  0.00  0.00    +0.206 C 
ENDROOT
BRANCH   3  10
ATOM      8  O   UNL     1      33.951 -14.980 -20.185  0.00  0.00    -0.273 OA
ATOM      9  N   UNL     1      32.862 -13.841 -21.898  0.00  0.00    -0.299 N 
ATOM     10  C   UNL     1      33.817 -14.694 -21.372  0.00  0.00    +0.241 C 
ATOM     11  H   UNL     1      32.854 -13.689 -22.870  0.00  0.00    +0.150 HD
BRANCH   9  12
ATOM     12  C   UNL     1      31.876 -13.163 -21.088  0.00  0.00    +0.116 C 
BRANCH  12  14
ATOM     13 CL   UNL     1      30.961  -8.300 -19.464  0.00  0.00    -0.082 Cl
ATOM     14  C   UNL     1      31.802 -11.697 -21.402  0.00  0.00    -0.002 C 
ATOM     15  C   UNL     1      31.456 -10.786 -20.403  0.00  0.00    +0.009 C 
ATOM     16  C   UNL     1      32.081 -11.245 -22.692  0.00  0.00    -0.003 C 
ATOM     17  C   UNL     1      31.387  -9.424 -20.695  0.00  0.00    +0.057 C 
ATOM     18  C   UNL     1      32.012  -9.883 -22.984  0.00  0.00    +0.001 C 
ATOM     19  C   UNL     1      31.666  -8.972 -21.985  0.00  0.00    +0.011 C 
ENDBRANCH  12  14
ENDBRANCH   9  12
ENDBRANCH   3  10
BRANCH   7  20
ATOM     20  C   UNL     1      34.678 -19.066 -21.877  0.00  0.00    +0.018 C 
BRANCH  20  21
ATOM     21  N   UNL     1      34.580 -19.144 -23.329  0.00  0.00    +0.388 N 
ATOM     22  H   UNL     1      35.508 -19.292 -23.725  0.00  0.00    -0.089 HD
ATOM     23  H   UNL     1      34.190 -18.274 -23.690  0.00  0.00    -0.089 HD
ATOM     24  H   UNL     1      33.972 -19.922 -23.587  0.00  0.00    -0.089 HD
ENDBRANCH  20  21
BRANCH  20  25
ATOM     25  C   UNL     1      33.395 -19.555 -21.207  0.00  0.00    +0.013 C 
BRANCH  25  26
ATOM     26  C   UNL     1      33.661 -20.452 -20.020  0.00  0.00    -0.024 C 
ATOM     27  C   UNL     1      32.596 -21.039 -19.337  0.00  0.00    -0.004 C 
ATOM     28  C   UNL     1      34.972 -20.693 -19.607  0.00  0.00    -0.004 C 
ATOM     29  C   UNL     1      32.842 -21.867 -18.242  0.00  0.00    -0.000 C 
ATOM     30  C   UNL     1      35.217 -21.521 -18.512  0.00  0.00    -0.000 C 
ATOM     31  C   UNL     1      34.152 -22.108 -17.829  0.00  0.00    -0.000 C 
ENDBRANCH  25  26
ENDBRANCH  20  25
ENDBRANCH   7  20
TORSDOF 7
ENDMDL
MODEL 3
REMARK VINA RESULT:     -10.8      3.128      7.584
REMARK  Name = 25011732
REMARK  7 active torsions:
REMARK  status: ('A' for Active; 'I' for Inactive)
REMARK    1  A    between atoms: C_3  and  C_10
REMARK    2  A    between atoms: C_7  and  C_20
REMARK    3  A    between atoms: N_9  and  C_12
REMARK    4  A    between atoms: C_12  and  C_14
REMARK    5  A    between atoms: C_20  and  N_21
REMARK    6  A    between atoms: C_20  and  C_25
REMARK    7  A    between atoms: C_25  and  C_26
REMARK                            x       y       z     vdW  Elec       q    Type
REMARK                         _______ _______ _______ _____ _____    ______ ____
ROOT
ATOM      1  O   UNL     1      32.954 -23.552 -17.287  0.00  0.00    -0.277 OA
ATOM      2  N   UNL     1      34.802 -22.452 -16.431  0.00  0.00    -0.275 N 
ATOM      3  C   UNL     1      35.224 -23.515 -15.528  0.00  0.00    +0.152 C 
ATOM      4  C   UNL     1      36.647 -23.142 -15.130  0.00  0.00    +0.031 C 
ATOM      5  C   UNL     1      36.654 -21.618 -15.221  0.00  0.00    +0.024 C 
ATOM      6  C   UNL     1      35.742 -21.336 -16.406  0.00  0.00    +0.094 C 
ATOM      7  C   UNL     1      33.728 -22.593 -17.296  0.00  0.00    +0.206 C 
ENDROOT
BRANCH   3  10
ATOM      8  O   UNL     1      34.552 -24.090 -13.310  0.00  0.00    -0.273 OA
ATOM      9  N   UNL     1      33.147 -22.762 -14.607  0.00  0.00    -0.299 N 
ATOM     10  C   UNL     1      34.294 -23.494 -14.353  0.00  0.00    +0.241 C 
ATOM     11  H   UNL     1      33.052 -22.327 -15.485  0.00  0.00    +0.150 HD
BRANCH   9  12
ATOM     12  C   UNL     1      32.080 -22.605 -13.644  0.00  0.00    +0.116 C 
BRANCH  12  14
ATOM     13 CL   UNL     1      27.625 -22.069 -16.288  0.00  0.00    -0.082 Cl
ATOM     14  C   UNL     1      30.793 -23.208 -14.128  0.00  0.00    -0.002 C 
ATOM     15  C   UNL     1      29.910 -22.447 -14.894  0.00  0.00    +0.009 C 
ATOM     16  C   UNL     1      30.480 -24.531 -13.811  0.00  0.00    -0.003 C 
ATOM     17  C   UNL     1      28.714 -23.007 -15.342  0.00  0.00    +0.057 C 
ATOM     18  C   UNL     1      29.285 -25.091 -14.260  0.00  0.00    +0.001 C 
ATOM     19  C   UNL     1      28.402 -24.329 -15.026  0.00  0.00    +0.011 C 
ENDBRANCH  12  14
ENDBRANCH   9  12
ENDBRANCH   3  10
BRANCH   7  20
ATOM     20  C   UNL     1      33.537 -21.469 -18.283  0.00  0.00    +0.018 C 
BRANCH  20  21
ATOM     21  N   UNL     1      32.113 -21.470 -18.595  0.00  0.00    +0.388 N 
ATOM     22  H   UNL     1      31.603 -20.982 -17.859  0.00  0.00    -0.089 HD
ATOM     23  H   UNL     1      31.780 -22.432 -18.659  0.00  0.00    -0.089 HD
ATOM     24  H   UNL     1      31.961 -20.997 -19.486  0.00  0.00    -0.089 HD
ENDBRANCH  20  21
BRANCH  20  25
ATOM     25  C   UNL     1      34.381 -21.686 -19.538  0.00  0.00    +0.013 C 
BRANCH  25  26
ATOM     26  C   UNL     1      34.791 -20.389 -20.197  0.00  0.00    -0.024 C 
ATOM     27  C   UNL     1      36.087 -19.903 -20.029  0.00  0.00    -0.004 C 
ATOM     28  C   UNL     1      33.875 -19.680 -20.972  0.00  0.00    -0.004 C 
ATOM     29  C   UNL     1      36.467 -18.706 -20.637  0.00  0.00    -0.000 C 
ATOM     30  C   UNL     1      34.254 -18.483 -21.580  0.00  0.00    -0.000 C 
ATOM     31  C   UNL     1      35.550 -17.996 -21.412  0.00  0.00    -0.000 C 
ENDBRANCH  25  26
ENDBRANCH  20  25
ENDBRANCH   7  20
TORSDOF 7
ENDMDL
MODEL 4
REMARK VINA RESULT:     -10.7      7.809     10.924
REMARK  Name = 25011732
REMARK  7 active torsions:
REMARK  status: ('A' for Active; 'I' for Inactive)
REMARK    1  A    between atoms: C_3  and  C_10
REMARK    2  A    between atoms: C_7  and  C_20
REMARK    3  A    between atoms: N_9  and  C_12
REMARK    4  A    between atoms: C_12  and  C_14
REMARK    5  A    between atoms: C_20  and  N_21
REMARK    6  A    between atoms: C_20  and  C_25
REMARK    7  A    between atoms: C_25  and  C_26
REMARK                            x       y       z     vdW  Elec       q    Type
REMARK                         _______ _______ _______ _____ _____    ______ ____
ROOT
ATOM      1  O   UNL     1      32.687 -14.331 -24.779  0.00  0.00    -0.277 OA
ATOM      2  N   UNL     1      33.164 -14.015 -22.536  0.00  0.00    -0.275 N 
ATOM      3  C   UNL     1      32.108 -13.045 -22.277  0.00  0.00    +0.152 C 
ATOM      4  C   UNL     1      32.009 -12.979 -20.757  0.00  0.00    +0.031 C 
ATOM      5  C   UNL     1      33.424 -13.314 -20.293  0.00  0.00    +0.024 C 
ATOM      6  C   UNL     1      33.891 -14.343 -21.313  0.00  0.00    +0.094 C 
ATOM      7  C   UNL     1      33.320 -14.635 -23.766  0.00  0.00    +0.206 C 
ENDROOT
BRANCH   3  10
ATOM      8  O   UNL     1      33.619 -11.627 -23.462  0.00  0.00    -0.273 OA
ATOM      9  N   UNL     1      31.646 -10.722 -22.623  0.00  0.00    -0.299 N 
ATOM     10  C   UNL     1      32.553 -11.739 -22.863  0.00  0.00    +0.241 C 
ATOM     11  H   UNL     1      30.822 -10.935 -22.129  0.00  0.00    +0.150 HD
BRANCH   9  12
ATOM     12  C   UNL     1      31.850  -9.360 -23.064  0.00  0.00    +0.116 C 
BRANCH  12  14
ATOM     13 CL   UNL     1      31.839  -4.411 -21.443  0.00  0.00    -0.082 Cl
ATOM     14  C   UNL     1      31.731  -8.380 -21.934  0.00  0.00    -0.002 C 
ATOM     15  C   UNL     1      31.829  -7.011 -22.184  0.00  0.00    +0.009 C 
ATOM     16  C   UNL     1      31.522  -8.838 -20.632  0.00  0.00    -0.003 C 
ATOM     17  C   UNL     1      31.719  -6.100 -21.134  0.00  0.00    +0.057 C 
ATOM     18  C   UNL     1      31.411  -7.927 -19.583  0.00  0.00    +0.001 C 
ATOM     19  C   UNL     1      31.509  -6.558 -19.833  0.00  0.00    +0.011 C 
ENDBRANCH  12  14
ENDBRANCH   9  12
ENDBRANCH   3  10
BRANCH   7  20
ATOM     20  C   UNL     1      34.347 -15.739 -23.812  0.00  0.00    +0.018 C 
BRANCH  20  21
ATOM     21  N   UNL     1      34.934 -15.661 -25.144  0.00  0.00    +0.388 N 
ATOM     22  H   UNL     1      35.869 -15.259 -25.081  0.00  0.00    -0.089 HD
ATOM     23  H   UNL     1      34.350 -15.075 -25.739  0.00  0.00    -0.089 HD
ATOM     24  H   UNL     1      34.993 -16.598 -25.544  0.00  0.00    -0.089 HD
ENDBRANCH  20  21
BRANCH  20  25
ATOM     25  C   UNL     1      33.704 -17.103 -23.567  0.00  0.00    +0.013 C 
BRANCH  25  26
ATOM     26  C   UNL     1      34.428 -17.909 -22.513  0.00  0.00    -0.024 C 
ATOM     27  C   UNL     1      35.720 -17.551 -22.128  0.00  0.00    -0.004 C 
ATOM     28  C   UNL     1      33.805 -19.010 -21.926  0.00  0.00    -0.004 C 
ATOM     29  C   UNL     1      36.388 -18.294 -21.156  0.00  0.00    -0.000 C 
ATOM     30  C   UNL     1      34.474 -19.753 -20.954  0.00  0.00    -0.000 C 
ATOM     31  C   UNL     1      35.765 -19.395 -20.569  0.00  0.00    -0.000 C 
ENDBRANCH  25  26
ENDBRANCH  20  25
ENDBRANCH   7  20
TORSDOF 7
ENDMDL
MODEL 5
REMARK VINA RESULT:     -10.4      5.523      8.432
REMARK  Name = 25011732
REMARK  7 active torsions:
REMARK  status: ('A' for Active; 'I' for Inactive)
REMARK    1  A    between atoms: C_3  and  C_10
REMARK    2  A    between atoms: C_7  and  C_20
REMARK    3  A    between atoms: N_9  and  C_12
REMARK    4  A    between atoms: C_12  and  C_14
REMARK    5  A    between atoms: C_20  and  N_21
REMARK    6  A    between atoms: C_20  and  C_25
REMARK    7  A    between atoms: C_25  and  C_26
REMARK                            x       y       z     vdW  Elec       q    Type
REMARK                         _______ _______ _______ _____ _____    ______ ____
ROOT
ATOM      1  O   UNL     1      35.464 -17.142 -20.602  0.00  0.00    -0.277 OA
ATOM      2  N   UNL     1      34.315 -16.371 -22.457  0.00  0.00    -0.275 N 
ATOM      3  C   UNL     1      34.564 -14.953 -22.230  0.00  0.00    +0.152 C 
ATOM      4  C   UNL     1      34.203 -14.281 -23.549  0.00  0.00    +0.031 C 
ATOM      5  C   UNL     1      33.132 -15.198 -24.135  0.00  0.00    +0.024 C 
ATOM      6  C   UNL     1      33.588 -16.585 -23.706  0.00  0.00    +0.094 C 
ATOM      7  C   UNL     1      34.855 -17.360 -21.651  0.00  0.00    +0.206 C 
ENDROOT
BRANCH   3  10
ATOM      8  O   UNL     1      33.773 -14.961 -19.978  0.00  0.00    -0.273 OA
ATOM      9  N   UNL     1      32.706 -13.609 -21.543  0.00  0.00    -0.299 N 
ATOM     10  C   UNL     1      33.659 -14.519 -21.118  0.00  0.00    +0.241 C 
ATOM     11  H   UNL     1      32.715 -13.327 -22.486  0.00  0.00    +0.150 HD
BRANCH   9  12
ATOM     12  C   UNL     1      31.699 -13.052 -20.668  0.00  0.00    +0.116 C 
BRANCH  12  14
ATOM     13 CL   UNL     1      31.657  -8.826 -23.711  0.00  0.00    -0.082 Cl
ATOM     14  C   UNL     1      31.611 -11.559 -20.790  0.00  0.00    -0.002 C 
ATOM     15  C   UNL     1      31.668 -10.957 -22.047  0.00  0.00    +0.009 C 
ATOM     16  C   UNL     1      31.472 -10.773 -19.646  0.00  0.00    -0.003 C 
ATOM     17  C   UNL     1      31.588  -9.569 -22.160  0.00  0.00    +0.057 C 
ATOM     18  C   UNL     1      31.391  -9.386 -19.759  0.00  0.00    +0.001 C 
ATOM     19  C   UNL     1      31.448  -8.783 -21.016  0.00  0.00    +0.011 C 
ENDBRANCH  12  14
ENDBRANCH   9  12
ENDBRANCH   3  10
BRANCH   7  20
ATOM     20  C   UNL     1      34.645 -18.775 -22.129  0.00  0.00    +0.018 C 
BRANCH  20  21
ATOM     21  N   UNL     1      34.525 -18.677 -23.578  0.00  0.00    +0.388 N 
ATOM     22  H   UNL     1      35.325 -18.167 -23.952  0.00  0.00    -0.089 HD
ATOM     23  H   UNL     1      33.665 -18.184 -23.815  0.00  0.00    -0.089 HD
ATOM     24  H   UNL     1      34.501 -19.615 -23.981  0.00  0.00    -0.089 HD
ENDBRANCH  20  21
BRANCH  20  25
ATOM     25  C   UNL     1      33.390 -19.387 -21.508  0.00  0.00    +0.013 C 
BRANCH  25  26
ATOM     26  C   UNL     1      33.697 -20.266 -20.317  0.00  0.00    -0.024 C 
ATOM     27  C   UNL     1      35.020 -20.479 -19.932  0.00  0.00    -0.004 C 
ATOM     28  C   UNL     1      32.658 -20.864 -19.604  0.00  0.00    -0.004 C 
ATOM     29  C   UNL     1      35.304 -21.290 -18.833  0.00  0.00    -0.000 C 
ATOM     30  C   UNL     1      32.942 -21.675 -18.506  0.00  0.00    -0.000 C 
ATOM     31  C   UNL     1      34.265 -21.888 -18.120  0.00  0.00    -0.000 C 
ENDBRANCH  25  26
ENDBRANCH  20  25
ENDBRANCH   7  20
TORSDOF 7
ENDMDL
MODEL 6
REMARK VINA RESULT:     -10.4      1.918      2.658
REMARK  Name = 25011732
REMARK  7 active torsions:
REMARK  status: ('A' for Active; 'I' for Inactive)
REMARK    1  A    between atoms: C_3  and  C_10
REMARK    2  A    between atoms: C_7  and  C_20
REMARK    3  A    between atoms: N_9  and  C_12
REMARK    4  A    between atoms: C_12  and  C_14
REMARK    5  A    between atoms: C_20  and  N_21
REMARK    6  A    between atoms: C_20  and  C_25
REMARK    7  A    between atoms: C_25  and  C_26
REMARK                            x       y       z     vdW  Elec       q    Type
REMARK                         _______ _______ _______ _____ _____    ______ ____
ROOT
ATOM      1  O   UNL     1      34.033 -23.247 -16.435  0.00  0.00    -0.277 OA
ATOM      2  N   UNL     1      32.246 -23.043 -14.979  0.00  0.00    -0.275 N 
ATOM      3  C   UNL     1      31.222 -23.507 -15.906  0.00  0.00    +0.152 C 
ATOM      4  C   UNL     1      30.011 -23.804 -15.029  0.00  0.00    +0.031 C 
ATOM      5  C   UNL     1      30.173 -22.835 -13.860  0.00  0.00    +0.024 C 
ATOM      6  C   UNL     1      31.681 -22.781 -13.658  0.00  0.00    +0.094 C 
ATOM      7  C   UNL     1      33.592 -23.020 -15.307  0.00  0.00    +0.206 C 
ENDROOT
BRANCH   3  10
ATOM      8  O   UNL     1      29.922 -21.724 -16.815  0.00  0.00    -0.273 OA
ATOM      9  N   UNL     1      31.974 -22.233 -17.788  0.00  0.00    -0.299 N 
ATOM     10  C   UNL     1      30.954 -22.388 -16.866  0.00  0.00    +0.241 C 
ATOM     11  H   UNL     1      32.755 -22.828 -17.728  0.00  0.00    +0.150 HD
BRANCH   9  12
ATOM     12  C   UNL     1      31.948 -21.238 -18.836  0.00  0.00    +0.116 C 
BRANCH  12  14
ATOM     13 CL   UNL     1      34.987 -18.460 -22.024  0.00  0.00    -0.082 Cl
ATOM     14  C   UNL     1      33.328 -20.865 -19.292  0.00  0.00    -0.002 C 
ATOM     15  C   UNL     1      33.497 -19.943 -20.326  0.00  0.00    +0.009 C 
ATOM     16  C   UNL     1      34.444 -21.440 -18.681  0.00  0.00    -0.003 C 
ATOM     17  C   UNL     1      34.780 -19.597 -20.750  0.00  0.00    +0.057 C 
ATOM     18  C   UNL     1      35.726 -21.093 -19.105  0.00  0.00    +0.001 C 
ATOM     19  C   UNL     1      35.894 -20.171 -20.139  0.00  0.00    +0.011 C 
ENDBRANCH  12  14
ENDBRANCH   9  12
ENDBRANCH   3  10
BRANCH   7  20
ATOM     20  C   UNL     1      34.531 -22.681 -14.176  0.00  0.00    +0.018 C 
BRANCH  20  21
ATOM     21  N   UNL     1      35.753 -22.213 -14.819  0.00  0.00    +0.388 N 
ATOM     22  H   UNL     1      36.465 -22.941 -14.765  0.00  0.00    -0.089 HD
ATOM     23  H   UNL     1      36.086 -21.374 -14.346  0.00  0.00    -0.089 HD
ATOM     24  H   UNL     1      35.560 -21.998 -15.798  0.00  0.00    -0.089 HD
ENDBRANCH  20  21
BRANCH  20  25
ATOM     25  C   UNL     1      34.798 -23.900 -13.296  0.00  0.00    +0.013 C 
BRANCH  25  26
ATOM     26  C   UNL     1      36.179 -24.478 -13.503  0.00  0.00    -0.024 C 
ATOM     27  C   UNL     1      37.248 -24.024 -12.730  0.00  0.00    -0.004 C 
ATOM     28  C   UNL     1      36.385 -25.465 -14.467  0.00  0.00    -0.004 C 
ATOM     29  C   UNL     1      38.522 -24.557 -12.921  0.00  0.00    -0.000 C 
ATOM     30  C   UNL     1      37.660 -25.998 -14.658  0.00  0.00    -0.000 C 
ATOM     31  C   UNL     1      38.728 -25.544 -13.885  0.00  0.00    -0.000 C 
ENDBRANCH  25  26
ENDBRANCH  20  25
ENDBRANCH   7  20
TORSDOF 7
ENDMDL
MODEL 7
REMARK VINA RESULT:     -10.4      8.585     13.214
REMARK  Name = 25011732
REMARK  7 active torsions:
REMARK  status: ('A' for Active; 'I' for Inactive)
REMARK    1  A    between atoms: C_3  and  C_10
REMARK    2  A    between atoms: C_7  and  C_20
REMARK    3  A    between atoms: N_9  and  C_12
REMARK    4  A    between atoms: C_12  and  C_14
REMARK    5  A    between atoms: C_20  and  N_21
REMARK    6  A    between atoms: C_20  and  C_25
REMARK    7  A    between atoms: C_25  and  C_26
REMARK                            x       y       z     vdW  Elec       q    Type
REMARK                         _______ _______ _______ _____ _____    ______ ____
ROOT
ATOM      1  O   UNL     1      33.011 -10.110 -23.442  0.00  0.00    -0.277 OA
ATOM      2  N   UNL     1      32.340 -11.570 -21.777  0.00  0.00    -0.275 N 
ATOM      3  C   UNL     1      33.457 -12.497 -21.908  0.00  0.00    +0.152 C 
ATOM      4  C   UNL     1      33.405 -13.346 -20.643  0.00  0.00    +0.031 C 
ATOM      5  C   UNL     1      31.922 -13.351 -20.278  0.00  0.00    +0.024 C 
ATOM      6  C   UNL     1      31.461 -11.957 -20.676  0.00  0.00    +0.094 C 
ATOM      7  C   UNL     1      32.249 -10.403 -22.518  0.00  0.00    +0.206 C 
ENDROOT
BRANCH   3  10
ATOM      8  O   UNL     1      32.335 -13.021 -23.949  0.00  0.00    -0.273 OA
ATOM      9  N   UNL     1      34.054 -14.410 -23.217  0.00  0.00    -0.299 N 
ATOM     10  C   UNL     1      33.211 -13.315 -23.139  0.00  0.00    +0.241 C 
ATOM     11  H   UNL     1      34.720 -14.541 -22.503  0.00  0.00    +0.150 HD
BRANCH   9  12
ATOM     12  C   UNL     1      34.005 -15.371 -24.295  0.00  0.00    +0.116 C 
BRANCH  12  14
ATOM     13 CL   UNL     1      36.282 -18.638 -20.940  0.00  0.00    -0.082 Cl
ATOM     14  C   UNL     1      34.205 -16.776 -23.807  0.00  0.00    -0.002 C 
ATOM     15  C   UNL     1      35.052 -17.025 -22.726  0.00  0.00    +0.009 C 
ATOM     16  C   UNL     1      33.545 -17.833 -24.434  0.00  0.00    -0.003 C 
ATOM     17  C   UNL     1      35.239 -18.331 -22.274  0.00  0.00    +0.057 C 
ATOM     18  C   UNL     1      33.731 -19.138 -23.981  0.00  0.00    +0.001 C 
ATOM     19  C   UNL     1      34.578 -19.387 -22.900  0.00  0.00    +0.011 C 
ENDBRANCH  12  14
ENDBRANCH   9  12
ENDBRANCH   3  10
BRANCH   7  20
ATOM     20  C   UNL     1      31.125  -9.474 -22.134  0.00  0.00    +0.018 C 
BRANCH  20  21
ATOM     21  N   UNL     1      30.728  -8.818 -23.374  0.00  0.00    +0.388 N 
ATOM     22  H   UNL     1      30.469  -7.852 -23.179  0.00  0.00    -0.089 HD
ATOM     23  H   UNL     1      29.933  -9.310 -23.779  0.00  0.00    -0.089 HD
ATOM     24  H   UNL     1      31.509  -8.836 -24.032  0.00  0.00    -0.089 HD
ENDBRANCH  20  21
BRANCH  20  25
ATOM     25  C   UNL     1      31.582  -8.457 -21.089  0.00  0.00    +0.013 C 
BRANCH  25  26
ATOM     26  C   UNL     1      31.860  -7.095 -21.683  0.00  0.00    -0.024 C 
ATOM     27  C   UNL     1      30.876  -6.107 -21.653  0.00  0.00    -0.004 C 
ATOM     28  C   UNL     1      33.101  -6.827 -22.262  0.00  0.00    -0.004 C 
ATOM     29  C   UNL     1      31.133  -4.851 -22.201  0.00  0.00    -0.000 C 
ATOM     30  C   UNL     1      33.358  -5.570 -22.810  0.00  0.00    -0.000 C 
ATOM     31  C   UNL     1      32.374  -4.582 -22.779  0.00  0.00    -0.000 C 
ENDBRANCH  25  26
ENDBRANCH  20  25
ENDBRANCH   7  20
TORSDOF 7
ENDMDL
MODEL 8
REMARK VINA RESULT:     -10.3      3.749      8.746
REMARK  Name = 25011732
REMARK  7 active torsions:
REMARK  status: ('A' for Active; 'I' for Inactive)
REMARK    1  A    between atoms: C_3  and  C_10
REMARK    2  A    between atoms: C_7  and  C_20
REMARK    3  A    between atoms: N_9  and  C_12
REMARK    4  A    between atoms: C_12  and  C_14
REMARK    5  A    between atoms: C_20  and  N_21
REMARK    6  A    between atoms: C_20  and  C_25
REMARK    7  A    between atoms: C_25  and  C_26
REMARK                            x       y       z     vdW  Elec       q    Type
REMARK                         _______ _______ _______ _____ _____    ______ ____
ROOT
ATOM      1  O   UNL     1      33.210 -19.354 -22.335  0.00  0.00    -0.277 OA
ATOM      2  N   UNL     1      34.783 -19.785 -20.694  0.00  0.00    -0.275 N 
ATOM      3  C   UNL     1      34.305 -21.118 -20.351  0.00  0.00    +0.152 C 
ATOM      4  C   UNL     1      35.436 -21.737 -19.538  0.00  0.00    +0.031 C 
ATOM      5  C   UNL     1      36.101 -20.532 -18.878  0.00  0.00    +0.024 C 
ATOM      6  C   UNL     1      35.987 -19.447 -19.939  0.00  0.00    +0.094 C 
ATOM      7  C   UNL     1      34.229 -19.036 -21.720  0.00  0.00    +0.206 C 
ENDROOT
BRANCH   3  10
ATOM      8  O   UNL     1      32.299 -19.997 -19.704  0.00  0.00    -0.273 OA
ATOM      9  N   UNL     1      32.912 -21.946 -18.589  0.00  0.00    -0.299 N 
ATOM     10  C   UNL     1      33.061 -20.946 -19.534  0.00  0.00    +0.241 C 
ATOM     11  H   UNL     1      33.592 -22.657 -18.548  0.00  0.00    +0.150 HD
BRANCH   9  12
ATOM     12  C   UNL     1      31.807 -21.997 -17.658  0.00  0.00    +0.116 C 
BRANCH  12  14
ATOM     13 CL   UNL     1      30.340 -24.134 -13.142  0.00  0.00    -0.082 Cl
ATOM     14  C   UNL     1      32.190 -22.655 -16.365  0.00  0.00    -0.002 C 
ATOM     15  C   UNL     1      31.202 -23.043 -15.460  0.00  0.00    +0.009 C 
ATOM     16  C   UNL     1      33.535 -22.879 -16.069  0.00  0.00    -0.003 C 
ATOM     17  C   UNL     1      31.559 -23.654 -14.258  0.00  0.00    +0.057 C 
ATOM     18  C   UNL     1      33.891 -23.490 -14.867  0.00  0.00    +0.001 C 
ATOM     19  C   UNL     1      32.903 -23.878 -13.962  0.00  0.00    +0.011 C 
ENDBRANCH  12  14
ENDBRANCH   9  12
ENDBRANCH   3  10
BRANCH   7  20
ATOM     20  C   UNL     1      34.954 -17.757 -22.056  0.00  0.00    +0.018 C 
BRANCH  20  21
ATOM     21  N   UNL     1      36.356 -18.135 -22.191  0.00  0.00    +0.388 N 
ATOM     22  H   UNL     1      36.441 -19.150 -22.140  0.00  0.00    -0.089 HD
ATOM     23  H   UNL     1      36.896 -17.709 -21.439  0.00  0.00    -0.089 HD
ATOM     24  H   UNL     1      36.710 -17.809 -23.091  0.00  0.00    -0.089 HD
ENDBRANCH  20  21
BRANCH  20  25
ATOM     25  C   UNL     1      34.764 -16.710 -20.960  0.00  0.00    +0.013 C 
BRANCH  25  26
ATOM     26  C   UNL     1      34.261 -15.390 -21.495  0.00  0.00    -0.024 C 
ATOM     27  C   UNL     1      34.304 -15.131 -22.865  0.00  0.00    -0.004 C 
ATOM     28  C   UNL     1      33.753 -14.430 -20.620  0.00  0.00    -0.004 C 
ATOM     29  C   UNL     1      33.839 -13.913 -23.360  0.00  0.00    -0.000 C 
ATOM     30  C   UNL     1      33.288 -13.211 -21.115  0.00  0.00    -0.000 C 
ATOM     31  C   UNL     1      33.331 -12.953 -22.485  0.00  0.00    -0.000 C 
ENDBRANCH  25  26
ENDBRANCH  20  25
ENDBRANCH   7  20
TORSDOF 7
ENDMDL
MODEL 9
REMARK VINA RESULT:     -10.2     10.319     14.949
REMARK  Name = 25011732
REMARK  7 active torsions:
REMARK  status: ('A' for Active; 'I' for Inactive)
REMARK    1  A    between atoms: C_3  and  C_10
REMARK    2  A    between atoms: C_7  and  C_20
REMARK    3  A    between atoms: N_9  and  C_12
REMARK    4  A    between atoms: C_12  and  C_14
REMARK    5  A    between atoms: C_20  and  N_21
REMARK    6  A    between atoms: C_20  and  C_25
REMARK    7  A    between atoms: C_25  and  C_26
REMARK                            x       y       z     vdW  Elec       q    Type
REMARK                         _______ _______ _______ _____ _____    ______ ____
ROOT
ATOM      1  O   UNL     1      31.159  -7.676 -19.109  0.00  0.00    -0.277 OA
ATOM      2  N   UNL     1      31.605  -8.586 -21.190  0.00  0.00    -0.275 N 
ATOM      3  C   UNL     1      30.706  -9.727 -21.068  0.00  0.00    +0.152 C 
ATOM      4  C   UNL     1      30.567 -10.263 -22.488  0.00  0.00    +0.031 C 
ATOM      5  C   UNL     1      31.896  -9.889 -23.141  0.00  0.00    +0.024 C 
ATOM      6  C   UNL     1      32.229  -8.545 -22.510  0.00  0.00    +0.094 C 
ATOM      7  C   UNL     1      31.701  -7.607 -20.214  0.00  0.00    +0.206 C 
ENDROOT
BRANCH   3  10
ATOM      8  O   UNL     1      31.564 -10.481 -18.972  0.00  0.00    -0.273 OA
ATOM      9  N   UNL     1      31.739 -11.873 -20.829  0.00  0.00    -0.299 N 
ATOM     10  C   UNL     1      31.371 -10.718 -20.161  0.00  0.00    +0.241 C 
ATOM     11  H   UNL     1      31.530 -11.948 -21.787  0.00  0.00    +0.150 HD
BRANCH   9  12
ATOM     12  C   UNL     1      32.418 -12.976 -20.185  0.00  0.00    +0.116 C 
BRANCH  12  14
ATOM     13 CL   UNL     1      35.239 -17.250 -21.128  0.00  0.00    -0.082 Cl
ATOM     14  C   UNL     1      33.135 -13.849 -21.173  0.00  0.00    -0.002 C 
ATOM     15  C   UNL     1      33.779 -15.009 -20.742  0.00  0.00    +0.009 C 
ATOM     16  C   UNL     1      33.157 -13.500 -22.524  0.00  0.00    -0.003 C 
ATOM     17  C   UNL     1      34.446 -15.819 -21.660  0.00  0.00    +0.057 C 
ATOM     18  C   UNL     1      33.824 -14.310 -23.442  0.00  0.00    +0.001 C 
ATOM     19  C   UNL     1      34.468 -15.470 -23.011  0.00  0.00    +0.011 C 
ENDBRANCH  12  14
ENDBRANCH   9  12
ENDBRANCH   3  10
BRANCH   7  20
ATOM     20  C   UNL     1      32.543  -6.409 -20.576  0.00  0.00    +0.018 C 
BRANCH  20  21
ATOM     21  N   UNL     1      33.093  -5.931 -19.313  0.00  0.00    +0.388 N 
ATOM     22  H   UNL     1      33.170  -4.915 -19.339  0.00  0.00    -0.089 HD
ATOM     23  H   UNL     1      34.016  -6.340 -19.169  0.00  0.00    -0.089 HD
ATOM     24  H   UNL     1      32.476  -6.206 -18.548  0.00  0.00    -0.089 HD
ENDBRANCH  20  21
BRANCH  20  25
ATOM     25  C   UNL     1      31.703  -5.331 -21.259  0.00  0.00    +0.013 C 
BRANCH  25  26
ATOM     26  C   UNL     1      32.302  -4.866 -22.566  0.00  0.00    -0.024 C 
ATOM     27  C   UNL     1      33.482  -5.443 -23.037  0.00  0.00    -0.004 C 
ATOM     28  C   UNL     1      31.677  -3.860 -23.302  0.00  0.00    -0.004 C 
ATOM     29  C   UNL     1      34.035  -5.015 -24.243  0.00  0.00    -0.000 C 
ATOM     30  C   UNL     1      32.230  -3.431 -24.509  0.00  0.00    -0.000 C 
ATOM     31  C   UNL     1      33.409  -4.009 -24.979  0.00  0.00    -0.000 C 
ENDBRANCH  25  26
ENDBRANCH  20  25
ENDBRANCH   7  20
TORSDOF 7
ENDMDL
