MODEL 1
REMARK VINA RESULT:     -13.1      0.000      0.000
REMARK  Name = 93184
REMARK  8 active torsions:
REMARK  status: ('A' for Active; 'I' for Inactive)
REMARK    1  A    between atoms: C_1  and  C_2
REMARK    2  A    between atoms: C_1  and  C_10
REMARK    3  A    between atoms: C_1  and  C_27
REMARK    4  A    between atoms: N_9  and  CA_18
REMARK    5  A    between atoms: CA_17  and  C_23
REMARK    6  A    between atoms: C_23  and  O_24
REMARK    7  A    between atoms: C_27  and  O_28
REMARK    8  A    between atoms: O_28  and  C_35
REMARK                            x       y       z     vdW  Elec       q    Type
REMARK                         _______ _______ _______ _____ _____    ______ ____
ROOT
ATOM      1  C   UNL     1      32.087 -22.995 -16.626  0.00  0.00    +0.198 C 
ENDROOT
BRANCH   1   2
ATOM      2  C   UNL     1      30.670 -23.157 -16.102  0.00  0.00    -0.003 C 
ATOM      3  C   UNL     1      30.352 -24.284 -15.369  0.00  0.00    -0.003 C 
ATOM      4  C   UNL     1      29.738 -22.174 -16.374  0.00  0.00    -0.003 C 
ATOM      5  C   UNL     1      29.051 -24.434 -14.888  0.00  0.00    -0.000 C 
ATOM      6  C   UNL     1      28.437 -22.324 -15.894  0.00  0.00    -0.000 C 
ATOM      7  C   UNL     1      28.093 -23.453 -15.151  0.00  0.00    -0.000 C 
ENDBRANCH   1   2
BRANCH   1  10
ATOM      8  O   UNL     1      32.570 -22.207 -14.384  0.00  0.00    -0.274 OA
ATOM      9  N   UNL     1      34.357 -22.569 -15.817  0.00  0.00    -0.296 N 
ATOM     10  C   UNL     1      33.002 -22.543 -15.486  0.00  0.00    +0.237 C 
ATOM     11  H   UNL     1      34.614 -22.852 -16.724  0.00  0.00    +0.150 HD
BRANCH   9  18
ATOM     12  S   UNL     1      35.120 -24.903 -13.974  0.00  0.00    -0.118 S 
ATOM     13  O   UNL     1      37.464 -22.063 -16.396  0.00  0.00    -0.273 OA
ATOM     14  N   UNL     1      37.114 -23.304 -14.419  0.00  0.00    -0.260 N 
ATOM     15  C   UNL     1      35.794 -23.211 -13.787  0.00  0.00    +0.151 C 
ATOM     16  C   UNL     1      36.829 -25.637 -13.868  0.00  0.00    +0.068 C 
ATOM     17  CA  UNL     1      37.714 -24.610 -14.607  0.00  0.00    +0.184 C 
ATOM     18  CA  UNL     1      35.418 -22.194 -14.873  0.00  0.00    +0.178 C 
ATOM     19  C   UNL     1      36.846 -22.411 -15.415  0.00  0.00    +0.247 C 
ATOM     20  C   UNL     1      37.172 -25.822 -12.384  0.00  0.00    +0.013 C 
ATOM     21  C   UNL     1      36.833 -26.991 -14.581  0.00  0.00    +0.013 C 
BRANCH  17  23
ATOM     22  OXT UNL     1      39.485 -23.959 -13.102  0.00  0.00    -0.248 OA
ATOM     23  C   UNL     1      39.127 -24.521 -14.126  0.00  0.00    +0.333 C 
BRANCH  23  24
ATOM     24  O   UNL     1      39.966 -25.148 -14.986  0.00  0.00    -0.479 OA
ATOM     25  H   UNL     1      40.871 -24.908 -15.017  0.00  0.00    +0.295 HD
ENDBRANCH  23  24
ENDBRANCH  17  23
ENDBRANCH   9  18
ENDBRANCH   1  10
BRANCH   1  27
ATOM     26  O   UNL     1      31.496 -21.064 -17.995  0.00  0.00    -0.249 OA
ATOM     27  C   UNL     1      32.152 -22.088 -17.848  0.00  0.00    +0.334 C 
BRANCH  27  28
ATOM     28  O   UNL     1      33.105 -22.587 -18.735  0.00  0.00    -0.424 OA
BRANCH  28  35
ATOM     29  C   UNL     1      35.338 -18.278 -22.189  0.00  0.00    +0.009 C 
ATOM     30  C   UNL     1      33.929 -18.724 -21.771  0.00  0.00    +0.026 C 
ATOM     31  C   UNL     1      36.252 -18.500 -20.975  0.00  0.00    +0.026 C 
ATOM     32  C   UNL     1      34.248 -19.776 -20.756  0.00  0.00    -0.023 C 
ATOM     33  C   UNL     1      35.567 -19.648 -20.304  0.00  0.00    -0.026 C 
ATOM     34  C   UNL     1      33.407 -20.748 -20.240  0.00  0.00    +0.033 C 
ATOM     35  C   UNL     1      33.912 -21.609 -19.264  0.00  0.00    +0.148 C 
ATOM     36  C   UNL     1      36.072 -20.490 -19.327  0.00  0.00    -0.001 C 
ATOM     37  C   UNL     1      35.235 -21.481 -18.810  0.00  0.00    +0.037 C 
ENDBRANCH  28  35
ENDBRANCH  27  28
ENDBRANCH   1  27
TORSDOF 8
ENDMDL
MODEL 2
REMARK VINA RESULT:     -12.0      2.072      6.475
REMARK  Name = 93184
REMARK  8 active torsions:
REMARK  status: ('A' for Active; 'I' for Inactive)
REMARK    1  A    between atoms: C_1  and  C_2
REMARK    2  A    between atoms: C_1  and  C_10
REMARK    3  A    between atoms: C_1  and  C_27
REMARK    4  A    between atoms: N_9  and  CA_18
REMARK    5  A    between atoms: CA_17  and  C_23
REMARK    6  A    between atoms: C_23  and  O_24
REMARK    7  A    between atoms: C_27  and  O_28
REMARK    8  A    between atoms: O_28  and  C_35
REMARK                            x       y       z     vdW  Elec       q    Type
REMARK                         _______ _______ _______ _____ _____    ______ ____
ROOT
ATOM      1  C   UNL     1      35.971 -22.237 -15.434  0.00  0.00    +0.198 C 
ENDROOT
BRANCH   1   2
ATOM      2  C   UNL     1      37.082 -22.987 -14.719  0.00  0.00    -0.003 C 
ATOM      3  C   UNL     1      38.171 -23.424 -15.449  0.00  0.00    -0.003 C 
ATOM      4  C   UNL     1      36.974 -23.210 -13.360  0.00  0.00    -0.003 C 
ATOM      5  C   UNL     1      39.192 -24.113 -14.792  0.00  0.00    -0.000 C 
ATOM      6  C   UNL     1      37.994 -23.899 -12.705  0.00  0.00    -0.000 C 
ATOM      7  C   UNL     1      39.103 -24.351 -13.420  0.00  0.00    -0.000 C 
ENDBRANCH   1   2
BRANCH   1  10
ATOM      8  O   UNL     1      34.985 -24.435 -15.703  0.00  0.00    -0.274 OA
ATOM      9  N   UNL     1      33.706 -22.592 -16.289  0.00  0.00    -0.296 N 
ATOM     10  C   UNL     1      34.861 -23.217 -15.818  0.00  0.00    +0.237 C 
ATOM     11  H   UNL     1      33.693 -21.610 -16.349  0.00  0.00    +0.150 HD
BRANCH   9  18
ATOM     12  S   UNL     1      32.136 -23.647 -13.870  0.00  0.00    -0.118 S 
ATOM     13  O   UNL     1      30.975 -21.461 -17.516  0.00  0.00    -0.273 OA
ATOM     14  N   UNL     1      30.599 -23.137 -15.897  0.00  0.00    -0.260 N 
ATOM     15  C   UNL     1      31.706 -24.052 -15.603  0.00  0.00    +0.151 C 
ATOM     16  C   UNL     1      30.367 -23.200 -13.495  0.00  0.00    +0.068 C 
ATOM     17  CA  UNL     1      29.876 -22.531 -14.797  0.00  0.00    +0.184 C 
ATOM     18  CA  UNL     1      32.506 -23.334 -16.698  0.00  0.00    +0.178 C 
ATOM     19  C   UNL     1      31.254 -22.452 -16.879  0.00  0.00    +0.247 C 
ATOM     20  C   UNL     1      29.624 -24.490 -13.122  0.00  0.00    +0.013 C 
ATOM     21  C   UNL     1      30.340 -22.221 -12.320  0.00  0.00    +0.013 C 
BRANCH  17  23
ATOM     22  OXT UNL     1      27.884 -23.728 -15.451  0.00  0.00    -0.248 OA
ATOM     23  C   UNL     1      28.417 -22.691 -15.087  0.00  0.00    +0.333 C 
BRANCH  23  24
ATOM     24  O   UNL     1      27.760 -21.522 -14.893  0.00  0.00    -0.479 OA
ATOM     25  H   UNL     1      27.836 -20.832 -15.521  0.00  0.00    +0.295 HD
ENDBRANCH  23  24
ENDBRANCH  17  23
ENDBRANCH   9  18
ENDBRANCH   1  10
BRANCH   1  27
ATOM     26  O   UNL     1      37.133 -20.383 -16.513  0.00  0.00    -0.249 OA
ATOM     27  C   UNL     1      36.489 -21.420 -16.610  0.00  0.00    +0.334 C 
BRANCH  27  28
ATOM     28  O   UNL     1      36.152 -22.068 -17.799  0.00  0.00    -0.424 OA
BRANCH  28  35
ATOM     29  C   UNL     1      35.336 -17.625 -21.682  0.00  0.00    +0.009 C 
ATOM     30  C   UNL     1      36.537 -18.456 -21.208  0.00  0.00    +0.026 C 
ATOM     31  C   UNL     1      34.125 -18.571 -21.708  0.00  0.00    +0.026 C 
ATOM     32  C   UNL     1      35.862 -19.475 -20.345  0.00  0.00    -0.023 C 
ATOM     33  C   UNL     1      34.492 -19.539 -20.630  0.00  0.00    -0.026 C 
ATOM     34  C   UNL     1      36.437 -20.315 -19.407  0.00  0.00    +0.033 C 
ATOM     35  C   UNL     1      35.613 -21.223 -18.739  0.00  0.00    +0.148 C 
ATOM     36  C   UNL     1      33.671 -20.446 -19.981  0.00  0.00    -0.001 C 
ATOM     37  C   UNL     1      34.240 -21.289 -19.024  0.00  0.00    +0.037 C 
ENDBRANCH  28  35
ENDBRANCH  27  28
ENDBRANCH   1  27
TORSDOF 8
ENDMDL
MODEL 3
REMARK VINA RESULT:     -10.9      1.320      5.219
REMARK  Name = 93184
REMARK  8 active torsions:
REMARK  status: ('A' for Active; 'I' for Inactive)
REMARK    1  A    between atoms: C_1  and  C_2
REMARK    2  A    between atoms: C_1  and  C_10
REMARK    3  A    between atoms: C_1  and  C_27
REMARK    4  A    between atoms: N_9  and  CA_18
REMARK    5  A    between atoms: CA_17  and  C_23
REMARK    6  A    between atoms: C_23  and  O_24
REMARK    7  A    between atoms: C_27  and  O_28
REMARK    8  A    between atoms: O_28  and  C_35
REMARK                            x       y       z     vdW  Elec       q    Type
REMARK                         _______ _______ _______ _____ _____    ______ ____
ROOT
ATOM      1  C   UNL     1      33.823 -21.711 -17.628  0.00  0.00    +0.198 C 
ENDROOT
BRANCH   1   2
ATOM      2  C   UNL     1      33.817 -20.960 -18.948  0.00  0.00    -0.003 C 
ATOM      3  C   UNL     1      35.019 -20.713 -19.583  0.00  0.00    -0.003 C 
ATOM      4  C   UNL     1      32.611 -20.544 -19.477  0.00  0.00    -0.003 C 
ATOM      5  C   UNL     1      35.014 -20.022 -20.795  0.00  0.00    -0.000 C 
ATOM      6  C   UNL     1      32.606 -19.853 -20.688  0.00  0.00    -0.000 C 
ATOM      7  C   UNL     1      33.807 -19.592 -21.348  0.00  0.00    -0.000 C 
ENDBRANCH   1   2
BRANCH   1  10
ATOM      8  O   UNL     1      36.154 -21.051 -17.529  0.00  0.00    -0.274 OA
ATOM      9  N   UNL     1      35.208 -21.984 -15.628  0.00  0.00    -0.296 N 
ATOM     10  C   UNL     1      35.185 -21.543 -16.952  0.00  0.00    +0.237 C 
ATOM     11  H   UNL     1      34.385 -22.365 -15.245  0.00  0.00    +0.150 HD
BRANCH   9  18
ATOM     12  S   UNL     1      35.366 -24.330 -13.654  0.00  0.00    -0.118 S 
ATOM     13  O   UNL     1      38.264 -22.500 -16.424  0.00  0.00    -0.273 OA
ATOM     14  N   UNL     1      37.711 -23.456 -14.338  0.00  0.00    -0.260 N 
ATOM     15  C   UNL     1      36.537 -22.923 -13.640  0.00  0.00    +0.151 C 
ATOM     16  C   UNL     1      36.772 -25.550 -13.590  0.00  0.00    +0.068 C 
ATOM     17  CA  UNL     1      37.866 -24.892 -14.457  0.00  0.00    +0.184 C 
ATOM     18  CA  UNL     1      36.404 -21.903 -14.779  0.00  0.00    +0.178 C 
ATOM     19  C   UNL     1      37.649 -22.582 -15.384  0.00  0.00    +0.247 C 
ATOM     20  C   UNL     1      37.159 -25.747 -12.117  0.00  0.00    +0.013 C 
ATOM     21  C   UNL     1      36.306 -26.877 -14.192  0.00  0.00    +0.013 C 
BRANCH  17  23
ATOM     22  OXT UNL     1      40.069 -24.425 -13.587  0.00  0.00    -0.248 OA
ATOM     23  C   UNL     1      39.273 -25.218 -14.067  0.00  0.00    +0.333 C 
BRANCH  23  24
ATOM     24  O   UNL     1      39.551 -26.520 -14.321  0.00  0.00    -0.479 OA
ATOM     25  H   UNL     1      40.258 -26.745 -14.894  0.00  0.00    +0.295 HD
ENDBRANCH  23  24
ENDBRANCH  17  23
ENDBRANCH   9  18
ENDBRANCH   1  10
BRANCH   1  27
ATOM     26  O   UNL     1      33.341 -23.762 -18.858  0.00  0.00    -0.249 OA
ATOM     27  C   UNL     1      33.405 -23.167 -17.789  0.00  0.00    +0.334 C 
BRANCH  27  28
ATOM     28  O   UNL     1      33.159 -23.713 -16.529  0.00  0.00    -0.424 OA
BRANCH  28  35
ATOM     29  C   UNL     1      27.548 -21.900 -15.683  0.00  0.00    +0.009 C 
ATOM     30  C   UNL     1      28.242 -22.919 -16.599  0.00  0.00    +0.026 C 
ATOM     31  C   UNL     1      28.295 -21.931 -14.341  0.00  0.00    +0.026 C 
ATOM     32  C   UNL     1      29.640 -22.883 -16.066  0.00  0.00    -0.023 C 
ATOM     33  C   UNL     1      29.669 -22.322 -14.784  0.00  0.00    -0.026 C 
ATOM     34  C   UNL     1      30.794 -23.359 -16.665  0.00  0.00    +0.033 C 
ATOM     35  C   UNL     1      31.995 -23.254 -15.961  0.00  0.00    +0.148 C 
ATOM     36  C   UNL     1      30.854 -22.227 -14.074  0.00  0.00    -0.001 C 
ATOM     37  C   UNL     1      32.025 -22.693 -14.675  0.00  0.00    +0.037 C 
ENDBRANCH  28  35
ENDBRANCH  27  28
ENDBRANCH   1  27
TORSDOF 8
ENDMDL
MODEL 4
REMARK VINA RESULT:     -10.8      2.479      3.952
REMARK  Name = 93184
REMARK  8 active torsions:
REMARK  status: ('A' for Active; 'I' for Inactive)
REMARK    1  A    between atoms: C_1  and  C_2
REMARK    2  A    between atoms: C_1  and  C_10
REMARK    3  A    between atoms: C_1  and  C_27
REMARK    4  A    between atoms: N_9  and  CA_18
REMARK    5  A    between atoms: CA_17  and  C_23
REMARK    6  A    between atoms: C_23  and  O_24
REMARK    7  A    between atoms: C_27  and  O_28
REMARK    8  A    between atoms: O_28  and  C_35
REMARK                            x       y       z     vdW  Elec       q    Type
REMARK                         _______ _______ _______ _____ _____    ______ ____
ROOT
ATOM      1  C   UNL     1      35.729 -21.094 -18.914  0.00  0.00    +0.198 C 
ENDROOT
BRANCH   1   2
ATOM      2  C   UNL     1      34.279 -21.398 -18.579  0.00  0.00    -0.003 C 
ATOM      3  C   UNL     1      33.997 -22.389 -17.659  0.00  0.00    -0.003 C 
ATOM      4  C   UNL     1      33.281 -20.675 -19.205  0.00  0.00    -0.003 C 
ATOM      5  C   UNL     1      32.665 -22.668 -17.352  0.00  0.00    -0.000 C 
ATOM      6  C   UNL     1      31.950 -20.954 -18.898  0.00  0.00    -0.000 C 
ATOM      7  C   UNL     1      31.641 -21.951 -17.972  0.00  0.00    -0.000 C 
ENDBRANCH   1   2
BRANCH   1  10
ATOM      8  O   UNL     1      36.870 -19.757 -17.244  0.00  0.00    -0.274 OA
ATOM      9  N   UNL     1      36.765 -22.050 -16.913  0.00  0.00    -0.296 N 
ATOM     10  C   UNL     1      36.514 -20.873 -17.620  0.00  0.00    +0.237 C 
ATOM     11  H   UNL     1      36.444 -22.902 -17.288  0.00  0.00    +0.150 HD
BRANCH   9  18
ATOM     12  S   UNL     1      34.852 -22.349 -14.530  0.00  0.00    -0.118 S 
ATOM     13  O   UNL     1      38.587 -24.380 -15.691  0.00  0.00    -0.273 OA
ATOM     14  N   UNL     1      37.176 -23.406 -14.068  0.00  0.00    -0.260 N 
ATOM     15  C   UNL     1      36.651 -22.065 -14.347  0.00  0.00    +0.151 C 
ATOM     16  C   UNL     1      34.910 -23.757 -13.312  0.00  0.00    +0.068 C 
ATOM     17  CA  UNL     1      36.268 -24.434 -13.601  0.00  0.00    +0.184 C 
ATOM     18  CA  UNL     1      37.487 -22.076 -15.634  0.00  0.00    +0.178 C 
ATOM     19  C   UNL     1      37.939 -23.484 -15.197  0.00  0.00    +0.247 C 
ATOM     20  C   UNL     1      34.782 -23.165 -11.901  0.00  0.00    +0.013 C 
ATOM     21  C   UNL     1      33.743 -24.705 -13.592  0.00  0.00    +0.013 C 
BRANCH  17  23
ATOM     22  OXT UNL     1      37.717 -24.561 -11.675  0.00  0.00    -0.248 OA
ATOM     23  C   UNL     1      36.915 -25.095 -12.427  0.00  0.00    +0.333 C 
BRANCH  23  24
ATOM     24  O   UNL     1      36.494 -26.378 -12.307  0.00  0.00    -0.479 OA
ATOM     25  H   UNL     1      36.336 -26.742 -11.459  0.00  0.00    +0.295 HD
ENDBRANCH  23  24
ENDBRANCH  17  23
ENDBRANCH   9  18
ENDBRANCH   1  10
BRANCH   1  27
ATOM     26  O   UNL     1      36.687 -19.043 -19.822  0.00  0.00    -0.249 OA
ATOM     27  C   UNL     1      35.866 -19.948 -19.907  0.00  0.00    +0.334 C 
BRANCH  27  28
ATOM     28  O   UNL     1      34.945 -20.126 -20.939  0.00  0.00    -0.424 OA
BRANCH  28  35
ATOM     29  C   UNL     1      33.680 -14.519 -22.506  0.00  0.00    +0.009 C 
ATOM     30  C   UNL     1      34.356 -15.193 -21.302  0.00  0.00    +0.026 C 
ATOM     31  C   UNL     1      34.076 -15.333 -23.748  0.00  0.00    +0.026 C 
ATOM     32  C   UNL     1      34.425 -16.614 -21.766  0.00  0.00    -0.023 C 
ATOM     33  C   UNL     1      34.265 -16.692 -23.155  0.00  0.00    -0.026 C 
ATOM     34  C   UNL     1      34.658 -17.748 -21.008  0.00  0.00    +0.033 C 
ATOM     35  C   UNL     1      34.719 -18.980 -21.663  0.00  0.00    +0.148 C 
ATOM     36  C   UNL     1      34.337 -17.908 -23.813  0.00  0.00    -0.001 C 
ATOM     37  C   UNL     1      34.560 -19.060 -23.056  0.00  0.00    +0.037 C 
ENDBRANCH  28  35
ENDBRANCH  27  28
ENDBRANCH   1  27
TORSDOF 8
ENDMDL
MODEL 5
REMARK VINA RESULT:     -10.6      1.426      2.306
REMARK  Name = 93184
REMARK  8 active torsions:
REMARK  status: ('A' for Active; 'I' for Inactive)
REMARK    1  A    between atoms: C_1  and  C_2
REMARK    2  A    between atoms: C_1  and  C_10
REMARK    3  A    between atoms: C_1  and  C_27
REMARK    4  A    between atoms: N_9  and  CA_18
REMARK    5  A    between atoms: CA_17  and  C_23
REMARK    6  A    between atoms: C_23  and  O_24
REMARK    7  A    between atoms: C_27  and  O_28
REMARK    8  A    between atoms: O_28  and  C_35
REMARK                            x       y       z     vdW  Elec       q    Type
REMARK                         _______ _______ _______ _____ _____    ______ ____
ROOT
ATOM      1  C   UNL     1      33.925 -22.100 -18.048  0.00  0.00    +0.198 C 
ENDROOT
BRANCH   1   2
ATOM      2  C   UNL     1      32.722 -22.375 -17.162  0.00  0.00    -0.003 C 
ATOM      3  C   UNL     1      31.484 -21.901 -17.550  0.00  0.00    -0.003 C 
ATOM      4  C   UNL     1      32.899 -23.089 -15.993  0.00  0.00    -0.003 C 
ATOM      5  C   UNL     1      30.378 -22.153 -16.736  0.00  0.00    -0.000 C 
ATOM      6  C   UNL     1      31.795 -23.341 -15.180  0.00  0.00    -0.000 C 
ATOM      7  C   UNL     1      30.534 -22.873 -15.551  0.00  0.00    -0.000 C 
ENDBRANCH   1   2
BRANCH   1  10
ATOM      8  O   UNL     1      35.914 -20.816 -17.521  0.00  0.00    -0.274 OA
ATOM      9  N   UNL     1      35.181 -22.372 -15.965  0.00  0.00    -0.296 N 
ATOM     10  C   UNL     1      35.113 -21.685 -17.178  0.00  0.00    +0.237 C 
ATOM     11  H   UNL     1      34.498 -23.053 -15.771  0.00  0.00    +0.150 HD
BRANCH   9  18
ATOM     12  S   UNL     1      35.415 -24.687 -13.962  0.00  0.00    -0.118 S 
ATOM     13  O   UNL     1      38.359 -22.428 -16.337  0.00  0.00    -0.273 OA
ATOM     14  N   UNL     1      37.677 -23.473 -14.334  0.00  0.00    -0.260 N 
ATOM     15  C   UNL     1      36.354 -23.124 -13.807  0.00  0.00    +0.151 C 
ATOM     16  C   UNL     1      36.962 -25.689 -13.696  0.00  0.00    +0.068 C 
ATOM     17  CA  UNL     1      38.055 -24.870 -14.416  0.00  0.00    +0.184 C 
ATOM     18  CA  UNL     1      36.228 -22.124 -14.964  0.00  0.00    +0.178 C 
ATOM     19  C   UNL     1      37.629 -22.608 -15.389  0.00  0.00    +0.247 C 
ATOM     20  C   UNL     1      37.172 -25.841 -12.183  0.00  0.00    +0.013 C 
ATOM     21  C   UNL     1      36.780 -27.064 -14.341  0.00  0.00    +0.013 C 
BRANCH  17  23
ATOM     22  OXT UNL     1      40.019 -24.102 -13.240  0.00  0.00    -0.248 OA
ATOM     23  C   UNL     1      39.429 -24.990 -13.837  0.00  0.00    +0.333 C 
BRANCH  23  24
ATOM     24  O   UNL     1      39.939 -26.224 -14.067  0.00  0.00    -0.479 OA
ATOM     25  H   UNL     1      40.850 -26.326 -14.263  0.00  0.00    +0.295 HD
ENDBRANCH  23  24
ENDBRANCH  17  23
ENDBRANCH   9  18
ENDBRANCH   1  10
BRANCH   1  27
ATOM     26  O   UNL     1      32.595 -20.424 -19.219  0.00  0.00    -0.249 OA
ATOM     27  C   UNL     1      33.612 -21.104 -19.157  0.00  0.00    +0.334 C 
BRANCH  27  28
ATOM     28  O   UNL     1      34.683 -21.063 -20.049  0.00  0.00    -0.424 OA
BRANCH  28  35
ATOM     29  C   UNL     1      34.057 -17.022 -24.380  0.00  0.00    +0.009 C 
ATOM     30  C   UNL     1      33.235 -18.214 -23.870  0.00  0.00    +0.026 C 
ATOM     31  C   UNL     1      34.706 -16.372 -23.149  0.00  0.00    +0.026 C 
ATOM     32  C   UNL     1      34.007 -18.597 -22.647  0.00  0.00    -0.023 C 
ATOM     33  C   UNL     1      34.842 -17.550 -22.238  0.00  0.00    -0.026 C 
ATOM     34  C   UNL     1      33.935 -19.777 -21.926  0.00  0.00    +0.033 C 
ATOM     35  C   UNL     1      34.728 -19.903 -20.784  0.00  0.00    +0.148 C 
ATOM     36  C   UNL     1      35.622 -17.663 -21.099  0.00  0.00    -0.001 C 
ATOM     37  C   UNL     1      35.565 -18.854 -20.373  0.00  0.00    +0.037 C 
ENDBRANCH  28  35
ENDBRANCH  27  28
ENDBRANCH   1  27
TORSDOF 8
ENDMDL
