MODEL 1
REMARK VINA RESULT:     -11.7      0.000      0.000
REMARK  Name = 9796590
REMARK  3 active torsions:
REMARK  status: ('A' for Active; 'I' for Inactive)
REMARK    1  A    between atoms: C_1  and  C_13
REMARK    2  A    between atoms: C_9  and  C_23
REMARK    3  A    between atoms: C_13  and  O_19
REMARK                            x       y       z     vdW  Elec       q    Type
REMARK                         _______ _______ _______ _____ _____    ______ ____
ROOT
ATOM      1  C   UNL     1      35.356 -23.048 -15.672  0.00  0.00    +0.007 C 
ATOM      2  C   UNL     1      34.233 -22.868 -16.480  0.00  0.00    -0.002 C 
ATOM      3  C   UNL     1      36.544 -22.388 -15.972  0.00  0.00    -0.002 C 
ATOM      4  C   UNL     1      34.286 -22.024 -17.601  0.00  0.00    -0.000 C 
ATOM      5  C   UNL     1      35.494 -21.354 -17.907  0.00  0.00    +0.000 C 
ATOM      6  C   UNL     1      36.614 -21.546 -17.082  0.00  0.00    -0.000 C 
ATOM      7  C   UNL     1      33.166 -21.831 -18.427  0.00  0.00    +0.000 C 
ATOM      8  C   UNL     1      35.546 -20.510 -19.029  0.00  0.00    +0.005 C 
ATOM      9  C   UNL     1      34.423 -20.330 -19.838  0.00  0.00    +0.053 C 
ATOM     10  C   UNL     1      33.236 -20.990 -19.537  0.00  0.00    +0.005 C 
ENDROOT
BRANCH   1  13
ATOM     11  N   UNL     1      37.269 -24.564 -13.348  0.00  0.00    -0.270 N 
ATOM     12  N   UNL     1      37.823 -23.051 -11.874  0.00  0.00    -0.225 NA
ATOM     13  C   UNL     1      35.282 -23.964 -14.461  0.00  0.00    +0.141 C 
ATOM     14  C   UNL     1      35.618 -25.481 -14.700  0.00  0.00    +0.059 C 
ATOM     15  C   UNL     1      36.299 -23.613 -13.438  0.00  0.00    +0.078 C 
ATOM     16  C   UNL     1      37.081 -25.681 -14.249  0.00  0.00    +0.100 C 
ATOM     17  C   UNL     1      36.655 -22.668 -12.515  0.00  0.00    +0.113 C 
ATOM     18  C   UNL     1      38.162 -24.212 -12.409  0.00  0.00    +0.167 C 
BRANCH  13  19
ATOM     19  O   UNL     1      33.991 -23.878 -13.856  0.00  0.00    -0.377 OA
ATOM     20  H   UNL     1      34.090 -23.727 -12.903  0.00  0.00    +0.211 HD
ENDBRANCH  13  19
ENDBRANCH   1  13
BRANCH   9  23
ATOM     21  O   UNL     1      33.620 -19.502 -21.879  0.00  0.00    -0.270 OA
ATOM     22  N   UNL     1      35.566 -18.555 -21.048  0.00  0.00    -0.299 N 
ATOM     23  C   UNL     1      34.494 -19.454 -20.995  0.00  0.00    +0.246 C 
ATOM     24  C   UNL     1      35.761 -17.605 -22.119  0.00  0.00    +0.111 C 
ATOM     25  H   UNL     1      36.223 -18.570 -20.314  0.00  0.00    +0.150 HD
ENDBRANCH   9  23
TORSDOF 3
ENDMDL
MODEL 2
REMARK VINA RESULT:     -11.4      5.660      9.375
REMARK  Name = 9796590
REMARK  3 active torsions:
REMARK  status: ('A' for Active; 'I' for Inactive)
REMARK    1  A    between atoms: C_1  and  C_13
REMARK    2  A    between atoms: C_9  and  C_23
REMARK    3  A    between atoms: C_13  and  O_19
REMARK                            x       y       z     vdW  Elec       q    Type
REMARK                         _______ _______ _______ _____ _____    ______ ____
ROOT
ATOM      1  C   UNL     1      34.487 -16.777 -22.248  0.00  0.00    +0.007 C 
ATOM      2  C   UNL     1      34.112 -16.045 -23.374  0.00  0.00    -0.002 C 
ATOM      3  C   UNL     1      34.439 -16.191 -20.987  0.00  0.00    -0.002 C 
ATOM      4  C   UNL     1      33.681 -14.713 -23.252  0.00  0.00    -0.000 C 
ATOM      5  C   UNL     1      33.632 -14.117 -21.970  0.00  0.00    +0.000 C 
ATOM      6  C   UNL     1      34.013 -14.869 -20.847  0.00  0.00    -0.000 C 
ATOM      7  C   UNL     1      33.298 -13.960 -24.374  0.00  0.00    +0.000 C 
ATOM      8  C   UNL     1      33.201 -12.786 -21.847  0.00  0.00    +0.005 C 
ATOM      9  C   UNL     1      32.825 -12.053 -22.974  0.00  0.00    +0.053 C 
ATOM     10  C   UNL     1      32.874 -12.640 -24.234  0.00  0.00    +0.005 C 
ENDROOT
BRANCH   1  13
ATOM     11  N   UNL     1      35.205 -19.551 -20.473  0.00  0.00    -0.270 N 
ATOM     12  N   UNL     1      33.305 -20.469 -19.905  0.00  0.00    -0.225 NA
ATOM     13  C   UNL     1      34.950 -18.217 -22.398  0.00  0.00    +0.141 C 
ATOM     14  C   UNL     1      36.470 -18.505 -22.116  0.00  0.00    +0.059 C 
ATOM     15  C   UNL     1      34.309 -19.111 -21.400  0.00  0.00    +0.078 C 
ATOM     16  C   UNL     1      36.550 -19.061 -20.677  0.00  0.00    +0.100 C 
ATOM     17  C   UNL     1      33.123 -19.687 -21.036  0.00  0.00    +0.113 C 
ATOM     18  C   UNL     1      34.587 -20.361 -19.598  0.00  0.00    +0.167 C 
BRANCH  13  19
ATOM     19  O   UNL     1      34.634 -18.703 -23.703  0.00  0.00    -0.377 OA
ATOM     20  H   UNL     1      34.153 -18.020 -24.195  0.00  0.00    +0.211 HD
ENDBRANCH  13  19
ENDBRANCH   1  13
BRANCH   9  23
ATOM     21  O   UNL     1      33.034  -9.746 -23.341  0.00  0.00    -0.270 OA
ATOM     22  N   UNL     1      31.196 -10.459 -22.120  0.00  0.00    -0.299 N 
ATOM     23  C   UNL     1      32.383 -10.675 -22.830  0.00  0.00    +0.246 C 
ATOM     24  C   UNL     1      30.615  -9.153 -21.913  0.00  0.00    +0.111 C 
ATOM     25  H   UNL     1      30.731 -11.241 -21.742  0.00  0.00    +0.150 HD
ENDBRANCH   9  23
TORSDOF 3
ENDMDL
MODEL 3
REMARK VINA RESULT:     -11.3      3.369      8.903
REMARK  Name = 9796590
REMARK  3 active torsions:
REMARK  status: ('A' for Active; 'I' for Inactive)
REMARK    1  A    between atoms: C_1  and  C_13
REMARK    2  A    between atoms: C_9  and  C_23
REMARK    3  A    between atoms: C_13  and  O_19
REMARK                            x       y       z     vdW  Elec       q    Type
REMARK                         _______ _______ _______ _____ _____    ______ ____
ROOT
ATOM      1  C   UNL     1      34.588 -19.245 -21.403  0.00  0.00    +0.007 C 
ATOM      2  C   UNL     1      35.436 -19.830 -20.461  0.00  0.00    -0.002 C 
ATOM      3  C   UNL     1      33.214 -19.449 -21.325  0.00  0.00    -0.002 C 
ATOM      4  C   UNL     1      34.916 -20.627 -19.428  0.00  0.00    -0.000 C 
ATOM      5  C   UNL     1      33.519 -20.834 -19.349  0.00  0.00    +0.000 C 
ATOM      6  C   UNL     1      32.681 -20.238 -20.305  0.00  0.00    -0.000 C 
ATOM      7  C   UNL     1      35.754 -21.224 -18.471  0.00  0.00    +0.000 C 
ATOM      8  C   UNL     1      33.000 -21.632 -18.316  0.00  0.00    +0.005 C 
ATOM      9  C   UNL     1      33.847 -22.217 -17.374  0.00  0.00    +0.053 C 
ATOM     10  C   UNL     1      35.221 -22.013 -17.452  0.00  0.00    +0.005 C 
ENDROOT
BRANCH   1  13
ATOM     11  N   UNL     1      33.819 -16.725 -23.505  0.00  0.00    -0.270 N 
ATOM     12  N   UNL     1      33.893 -14.871 -22.351  0.00  0.00    -0.225 NA
ATOM     13  C   UNL     1      35.167 -18.384 -22.514  0.00  0.00    +0.141 C 
ATOM     14  C   UNL     1      34.787 -18.781 -23.987  0.00  0.00    +0.059 C 
ATOM     15  C   UNL     1      34.652 -16.993 -22.460  0.00  0.00    +0.078 C 
ATOM     16  C   UNL     1      33.640 -17.838 -24.412  0.00  0.00    +0.100 C 
ATOM     17  C   UNL     1      34.690 -15.829 -21.742  0.00  0.00    +0.113 C 
ATOM     18  C   UNL     1      33.385 -15.458 -23.423  0.00  0.00    +0.167 C 
BRANCH  13  19
ATOM     19  O   UNL     1      36.590 -18.339 -22.412  0.00  0.00    -0.377 OA
ATOM     20  H   UNL     1      36.962 -17.978 -23.232  0.00  0.00    +0.211 HD
ENDBRANCH  13  19
ENDBRANCH   1  13
BRANCH   9  23
ATOM     21  O   UNL     1      34.005 -23.875 -15.723  0.00  0.00    -0.270 OA
ATOM     22  N   UNL     1      31.950 -22.831 -15.978  0.00  0.00    -0.299 N 
ATOM     23  C   UNL     1      33.293 -23.040 -16.312  0.00  0.00    +0.246 C 
ATOM     24  C   UNL     1      31.265 -23.551 -14.930  0.00  0.00    +0.111 C 
ATOM     25  H   UNL     1      31.445 -22.154 -16.485  0.00  0.00    +0.150 HD
ENDBRANCH   9  23
TORSDOF 3
ENDMDL
MODEL 4
REMARK VINA RESULT:     -11.1      7.768     13.539
REMARK  Name = 9796590
REMARK  3 active torsions:
REMARK  status: ('A' for Active; 'I' for Inactive)
REMARK    1  A    between atoms: C_1  and  C_13
REMARK    2  A    between atoms: C_9  and  C_23
REMARK    3  A    between atoms: C_13  and  O_19
REMARK                            x       y       z     vdW  Elec       q    Type
REMARK                         _______ _______ _______ _____ _____    ______ ____
ROOT
ATOM      1  C   UNL     1      31.869 -10.746 -21.978  0.00  0.00    +0.007 C 
ATOM      2  C   UNL     1      32.005 -11.718 -20.987  0.00  0.00    -0.002 C 
ATOM      3  C   UNL     1      32.421 -10.953 -23.238  0.00  0.00    -0.002 C 
ATOM      4  C   UNL     1      32.697 -12.913 -21.246  0.00  0.00    -0.000 C 
ATOM      5  C   UNL     1      33.258 -13.124 -22.528  0.00  0.00    +0.000 C 
ATOM      6  C   UNL     1      33.111 -12.134 -23.514  0.00  0.00    -0.000 C 
ATOM      7  C   UNL     1      32.844 -13.904 -20.262  0.00  0.00    +0.000 C 
ATOM      8  C   UNL     1      33.950 -14.318 -22.787  0.00  0.00    +0.005 C 
ATOM      9  C   UNL     1      34.086 -15.292 -21.797  0.00  0.00    +0.053 C 
ATOM     10  C   UNL     1      33.534 -15.084 -20.536  0.00  0.00    +0.005 C 
ENDROOT
BRANCH   1  13
ATOM     11  N   UNL     1      32.266  -7.655 -20.693  0.00  0.00    -0.270 N 
ATOM     12  N   UNL     1      33.264  -6.443 -22.212  0.00  0.00    -0.225 NA
ATOM     13  C   UNL     1      31.117  -9.459 -21.681  0.00  0.00    +0.141 C 
ATOM     14  C   UNL     1      30.644  -9.242 -20.197  0.00  0.00    +0.059 C 
ATOM     15  C   UNL     1      31.971  -8.261 -21.877  0.00  0.00    +0.078 C 
ATOM     16  C   UNL     1      31.681  -8.305 -19.540  0.00  0.00    +0.100 C 
ATOM     17  C   UNL     1      32.602  -7.498 -22.821  0.00  0.00    +0.113 C 
ATOM     18  C   UNL     1      33.031  -6.575 -20.916  0.00  0.00    +0.167 C 
BRANCH  13  19
ATOM     19  O   UNL     1      29.981  -9.344 -22.537  0.00  0.00    -0.377 OA
ATOM     20  H   UNL     1      29.996 -10.058 -23.193  0.00  0.00    +0.211 HD
ENDBRANCH  13  19
ENDBRANCH   1  13
BRANCH   9  23
ATOM     21  O   UNL     1      34.992 -16.889 -23.255  0.00  0.00    -0.270 OA
ATOM     22  N   UNL     1      35.289 -17.245 -20.983  0.00  0.00    -0.299 N 
ATOM     23  C   UNL     1      34.806 -16.522 -22.081  0.00  0.00    +0.246 C 
ATOM     24  C   UNL     1      36.043 -18.471 -21.103  0.00  0.00    +0.111 C 
ATOM     25  H   UNL     1      35.106 -16.897 -20.080  0.00  0.00    +0.150 HD
ENDBRANCH   9  23
TORSDOF 3
ENDMDL
MODEL 5
REMARK VINA RESULT:     -10.9      3.944      5.426
REMARK  Name = 9796590
REMARK  3 active torsions:
REMARK  status: ('A' for Active; 'I' for Inactive)
REMARK    1  A    between atoms: C_1  and  C_13
REMARK    2  A    between atoms: C_9  and  C_23
REMARK    3  A    between atoms: C_13  and  O_19
REMARK                            x       y       z     vdW  Elec       q    Type
REMARK                         _______ _______ _______ _____ _____    ______ ____
ROOT
ATOM      1  C   UNL     1      34.710 -23.041 -15.333  0.00  0.00    +0.007 C 
ATOM      2  C   UNL     1      33.655 -23.228 -14.439  0.00  0.00    -0.002 C 
ATOM      3  C   UNL     1      34.450 -22.699 -16.656  0.00  0.00    -0.002 C 
ATOM      4  C   UNL     1      32.324 -23.073 -14.860  0.00  0.00    -0.000 C 
ATOM      5  C   UNL     1      32.059 -22.724 -16.205  0.00  0.00    +0.000 C 
ATOM      6  C   UNL     1      33.133 -22.540 -17.091  0.00  0.00    -0.000 C 
ATOM      7  C   UNL     1      31.249 -23.256 -13.974  0.00  0.00    +0.000 C 
ATOM      8  C   UNL     1      30.728 -22.569 -16.626  0.00  0.00    +0.005 C 
ATOM      9  C   UNL     1      29.673 -22.755 -15.732  0.00  0.00    +0.053 C 
ATOM     10  C   UNL     1      29.934 -23.098 -14.409  0.00  0.00    +0.005 C 
ENDROOT
BRANCH   1  13
ATOM     11  N   UNL     1      36.598 -24.650 -13.051  0.00  0.00    -0.270 N 
ATOM     12  N   UNL     1      36.826 -26.713 -13.734  0.00  0.00    -0.225 NA
ATOM     13  C   UNL     1      36.145 -23.212 -14.861  0.00  0.00    +0.141 C 
ATOM     14  C   UNL     1      36.575 -22.391 -13.591  0.00  0.00    +0.059 C 
ATOM     15  C   UNL     1      36.414 -24.597 -14.400  0.00  0.00    +0.078 C 
ATOM     16  C   UNL     1      36.498 -23.365 -12.395  0.00  0.00    +0.100 C 
ATOM     17  C   UNL     1      36.555 -25.892 -14.819  0.00  0.00    +0.113 C 
ATOM     18  C   UNL     1      36.847 -25.916 -12.678  0.00  0.00    +0.167 C 
BRANCH  13  19
ATOM     19  O   UNL     1      37.051 -22.910 -15.922  0.00  0.00    -0.377 OA
ATOM     20  H   UNL     1      36.790 -22.076 -16.343  0.00  0.00    +0.211 HD
ENDBRANCH  13  19
ENDBRANCH   1  13
BRANCH   9  23
ATOM     21  O   UNL     1      27.936 -23.054 -17.280  0.00  0.00    -0.270 OA
ATOM     22  N   UNL     1      27.424 -21.921 -15.323  0.00  0.00    -0.299 N 
ATOM     23  C   UNL     1      28.301 -22.592 -16.183  0.00  0.00    +0.246 C 
ATOM     24  C   UNL     1      26.027 -21.701 -15.617  0.00  0.00    +0.111 C 
ATOM     25  H   UNL     1      27.779 -21.581 -14.469  0.00  0.00    +0.150 HD
ENDBRANCH   9  23
TORSDOF 3
ENDMDL
MODEL 6
REMARK VINA RESULT:     -10.9      8.092     13.739
REMARK  Name = 9796590
REMARK  3 active torsions:
REMARK  status: ('A' for Active; 'I' for Inactive)
REMARK    1  A    between atoms: C_1  and  C_13
REMARK    2  A    between atoms: C_9  and  C_23
REMARK    3  A    between atoms: C_13  and  O_19
REMARK                            x       y       z     vdW  Elec       q    Type
REMARK                         _______ _______ _______ _____ _____    ______ ____
ROOT
ATOM      1  C   UNL     1      31.828 -10.586 -21.462  0.00  0.00    +0.007 C 
ATOM      2  C   UNL     1      32.476 -11.258 -22.499  0.00  0.00    -0.002 C 
ATOM      3  C   UNL     1      31.699 -11.188 -20.214  0.00  0.00    -0.002 C 
ATOM      4  C   UNL     1      33.004 -12.544 -22.298  0.00  0.00    -0.000 C 
ATOM      5  C   UNL     1      32.873 -13.156 -21.029  0.00  0.00    +0.000 C 
ATOM      6  C   UNL     1      32.218 -12.465 -19.997  0.00  0.00    -0.000 C 
ATOM      7  C   UNL     1      33.660 -13.237 -23.329  0.00  0.00    +0.000 C 
ATOM      8  C   UNL     1      33.401 -14.442 -20.828  0.00  0.00    +0.005 C 
ATOM      9  C   UNL     1      34.049 -15.115 -21.865  0.00  0.00    +0.053 C 
ATOM     10  C   UNL     1      34.178 -14.513 -23.112  0.00  0.00    +0.005 C 
ENDROOT
BRANCH   1  13
ATOM     11  N   UNL     1      32.686  -7.327 -21.507  0.00  0.00    -0.270 N 
ATOM     12  N   UNL     1      33.739  -6.958 -23.385  0.00  0.00    -0.225 NA
ATOM     13  C   UNL     1      31.263  -9.195 -21.696  0.00  0.00    +0.141 C 
ATOM     14  C   UNL     1      30.908  -8.351 -20.418  0.00  0.00    +0.059 C 
ATOM     15  C   UNL     1      32.249  -8.300 -22.353  0.00  0.00    +0.078 C 
ATOM     16  C   UNL     1      32.092  -7.385 -20.189  0.00  0.00    +0.100 C 
ATOM     17  C   UNL     1      32.915  -8.064 -23.525  0.00  0.00    +0.113 C 
ATOM     18  C   UNL     1      33.567  -6.538 -22.142  0.00  0.00    +0.167 C 
BRANCH  13  19
ATOM     19  O   UNL     1      30.102  -9.267 -22.525  0.00  0.00    -0.377 OA
ATOM     20  H   UNL     1      29.555  -8.478 -22.385  0.00  0.00    +0.211 HD
ENDBRANCH  13  19
ENDBRANCH   1  13
BRANCH   9  23
ATOM     21  O   UNL     1      34.997 -16.782 -20.514  0.00  0.00    -0.270 OA
ATOM     22  N   UNL     1      34.603 -17.320 -22.735  0.00  0.00    -0.299 N 
ATOM     23  C   UNL     1      34.589 -16.446 -21.641  0.00  0.00    +0.246 C 
ATOM     24  C   UNL     1      35.084 -18.680 -22.666  0.00  0.00    +0.111 C 
ATOM     25  H   UNL     1      34.264 -16.989 -23.598  0.00  0.00    +0.150 HD
ENDBRANCH   9  23
TORSDOF 3
ENDMDL
MODEL 7
REMARK VINA RESULT:     -10.7      0.756      1.635
REMARK  Name = 9796590
REMARK  3 active torsions:
REMARK  status: ('A' for Active; 'I' for Inactive)
REMARK    1  A    between atoms: C_1  and  C_13
REMARK    2  A    between atoms: C_9  and  C_23
REMARK    3  A    between atoms: C_13  and  O_19
REMARK                            x       y       z     vdW  Elec       q    Type
REMARK                         _______ _______ _______ _____ _____    ______ ____
ROOT
ATOM      1  C   UNL     1      34.522 -23.522 -15.452  0.00  0.00    +0.007 C 
ATOM      2  C   UNL     1      35.498 -22.800 -16.138  0.00  0.00    -0.002 C 
ATOM      3  C   UNL     1      33.202 -23.502 -15.891  0.00  0.00    -0.002 C 
ATOM      4  C   UNL     1      35.164 -22.048 -17.277  0.00  0.00    -0.000 C 
ATOM      5  C   UNL     1      33.821 -22.028 -17.724  0.00  0.00    +0.000 C 
ATOM      6  C   UNL     1      32.852 -22.761 -17.020  0.00  0.00    -0.000 C 
ATOM      7  C   UNL     1      36.133 -21.315 -17.981  0.00  0.00    +0.000 C 
ATOM      8  C   UNL     1      33.488 -21.276 -18.862  0.00  0.00    +0.005 C 
ATOM      9  C   UNL     1      34.464 -20.553 -19.550  0.00  0.00    +0.053 C 
ATOM     10  C   UNL     1      35.784 -20.573 -19.110  0.00  0.00    +0.005 C 
ENDROOT
BRANCH   1  13
ATOM     11  N   UNL     1      37.139 -24.334 -13.490  0.00  0.00    -0.270 N 
ATOM     12  N   UNL     1      37.537 -22.621 -12.194  0.00  0.00    -0.225 NA
ATOM     13  C   UNL     1      34.900 -24.331 -14.222  0.00  0.00    +0.141 C 
ATOM     14  C   UNL     1      35.568 -25.733 -14.475  0.00  0.00    +0.059 C 
ATOM     15  C   UNL     1      35.957 -23.662 -13.422  0.00  0.00    +0.078 C 
ATOM     16  C   UNL     1      37.089 -25.529 -14.304  0.00  0.00    +0.100 C 
ATOM     17  C   UNL     1      36.215 -22.590 -12.612  0.00  0.00    +0.113 C 
ATOM     18  C   UNL     1      38.062 -23.701 -12.748  0.00  0.00    +0.167 C 
BRANCH  13  19
ATOM     19  O   UNL     1      33.759 -24.521 -13.386  0.00  0.00    -0.377 OA
ATOM     20  H   UNL     1      33.011 -24.015 -13.740  0.00  0.00    +0.211 HD
ENDBRANCH  13  19
ENDBRANCH   1  13
BRANCH   9  23
ATOM     21  O   UNL     1      32.928 -19.772 -21.141  0.00  0.00    -0.270 OA
ATOM     22  N   UNL     1      35.119 -19.039 -21.338  0.00  0.00    -0.299 N 
ATOM     23  C   UNL     1      34.101 -19.779 -20.725  0.00  0.00    +0.246 C 
ATOM     24  C   UNL     1      34.913 -18.202 -22.497  0.00  0.00    +0.111 C 
ATOM     25  H   UNL     1      36.026 -19.090 -20.956  0.00  0.00    +0.150 HD
ENDBRANCH   9  23
TORSDOF 3
ENDMDL
MODEL 8
REMARK VINA RESULT:     -10.6      2.887      4.339
REMARK  Name = 9796590
REMARK  3 active torsions:
REMARK  status: ('A' for Active; 'I' for Inactive)
REMARK    1  A    between atoms: C_1  and  C_13
REMARK    2  A    between atoms: C_9  and  C_23
REMARK    3  A    between atoms: C_13  and  O_19
REMARK                            x       y       z     vdW  Elec       q    Type
REMARK                         _______ _______ _______ _____ _____    ______ ____
ROOT
ATOM      1  C   UNL     1      33.343 -21.977 -18.151  0.00  0.00    +0.007 C 
ATOM      2  C   UNL     1      34.556 -21.480 -18.625  0.00  0.00    -0.002 C 
ATOM      3  C   UNL     1      32.143 -21.487 -18.656  0.00  0.00    -0.002 C 
ATOM      4  C   UNL     1      34.584 -20.482 -19.613  0.00  0.00    -0.000 C 
ATOM      5  C   UNL     1      33.364 -19.982 -20.127  0.00  0.00    +0.000 C 
ATOM      6  C   UNL     1      32.152 -20.495 -19.638  0.00  0.00    -0.000 C 
ATOM      7  C   UNL     1      35.797 -19.969 -20.103  0.00  0.00    +0.000 C 
ATOM      8  C   UNL     1      33.392 -18.984 -21.115  0.00  0.00    +0.005 C 
ATOM      9  C   UNL     1      34.606 -18.486 -21.590  0.00  0.00    +0.053 C 
ATOM     10  C   UNL     1      35.805 -18.978 -21.084  0.00  0.00    +0.005 C 
ENDROOT
BRANCH   1  13
ATOM     11  N   UNL     1      32.643 -22.508 -14.897  0.00  0.00    -0.270 N 
ATOM     12  N   UNL     1      30.470 -22.631 -14.711  0.00  0.00    -0.225 NA
ATOM     13  C   UNL     1      33.331 -23.058 -17.082  0.00  0.00    +0.141 C 
ATOM     14  C   UNL     1      34.551 -23.086 -16.090  0.00  0.00    +0.059 C 
ATOM     15  C   UNL     1      32.204 -22.883 -16.131  0.00  0.00    +0.078 C 
ATOM     16  C   UNL     1      34.081 -22.379 -14.800  0.00  0.00    +0.100 C 
ATOM     17  C   UNL     1      30.844 -22.954 -16.007  0.00  0.00    +0.113 C 
ATOM     18  C   UNL     1      31.596 -22.370 -14.068  0.00  0.00    +0.167 C 
BRANCH  13  19
ATOM     19  O   UNL     1      33.211 -24.347 -17.685  0.00  0.00    -0.377 OA
ATOM     20  H   UNL     1      32.383 -24.762 -17.398  0.00  0.00    +0.211 HD
ENDBRANCH  13  19
ENDBRANCH   1  13
BRANCH   9  23
ATOM     21  O   UNL     1      34.666 -17.757 -23.818  0.00  0.00    -0.270 OA
ATOM     22  N   UNL     1      34.547 -16.125 -22.175  0.00  0.00    -0.299 N 
ATOM     23  C   UNL     1      34.617 -17.453 -22.612  0.00  0.00    +0.246 C 
ATOM     24  C   UNL     1      34.523 -14.989 -23.068  0.00  0.00    +0.111 C 
ATOM     25  H   UNL     1      34.509 -15.955 -21.206  0.00  0.00    +0.150 HD
ENDBRANCH   9  23
TORSDOF 3
ENDMDL
MODEL 9
REMARK VINA RESULT:     -10.5      1.567      2.138
REMARK  Name = 9796590
REMARK  3 active torsions:
REMARK  status: ('A' for Active; 'I' for Inactive)
REMARK    1  A    between atoms: C_1  and  C_13
REMARK    2  A    between atoms: C_9  and  C_23
REMARK    3  A    between atoms: C_13  and  O_19
REMARK                            x       y       z     vdW  Elec       q    Type
REMARK                         _______ _______ _______ _____ _____    ______ ____
ROOT
ATOM      1  C   UNL     1      35.822 -22.876 -15.948  0.00  0.00    +0.007 C 
ATOM      2  C   UNL     1      34.666 -22.790 -16.725  0.00  0.00    -0.002 C 
ATOM      3  C   UNL     1      36.920 -22.074 -16.241  0.00  0.00    -0.002 C 
ATOM      4  C   UNL     1      34.596 -21.897 -17.807  0.00  0.00    -0.000 C 
ATOM      5  C   UNL     1      35.713 -21.082 -18.105  0.00  0.00    +0.000 C 
ATOM      6  C   UNL     1      36.868 -21.181 -17.313  0.00  0.00    -0.000 C 
ATOM      7  C   UNL     1      33.441 -21.796 -18.600  0.00  0.00    +0.000 C 
ATOM      8  C   UNL     1      35.642 -20.189 -19.188  0.00  0.00    +0.005 C 
ATOM      9  C   UNL     1      34.487 -20.102 -19.965  0.00  0.00    +0.053 C 
ATOM     10  C   UNL     1      33.388 -20.904 -19.671  0.00  0.00    +0.005 C 
ENDROOT
BRANCH   1  13
ATOM     11  N   UNL     1      34.870 -23.253 -12.737  0.00  0.00    -0.270 N 
ATOM     12  N   UNL     1      32.744 -23.760 -12.744  0.00  0.00    -0.225 NA
ATOM     13  C   UNL     1      35.881 -23.847 -14.780  0.00  0.00    +0.141 C 
ATOM     14  C   UNL     1      36.969 -23.565 -13.680  0.00  0.00    +0.059 C 
ATOM     15  C   UNL     1      34.643 -23.804 -13.962  0.00  0.00    +0.078 C 
ATOM     16  C   UNL     1      36.242 -22.852 -12.519  0.00  0.00    +0.100 C 
ATOM     17  C   UNL     1      33.311 -24.115 -13.959  0.00  0.00    +0.113 C 
ATOM     18  C   UNL     1      33.729 -23.241 -12.029  0.00  0.00    +0.167 C 
BRANCH  13  19
ATOM     19  O   UNL     1      36.056 -25.181 -15.256  0.00  0.00    -0.377 OA
ATOM     20  H   UNL     1      35.428 -25.770 -14.810  0.00  0.00    +0.211 HD
ENDBRANCH  13  19
ENDBRANCH   1  13
BRANCH   9  23
ATOM     21  O   UNL     1      33.955 -19.529 -22.176  0.00  0.00    -0.270 OA
ATOM     22  N   UNL     1      34.908 -17.877 -20.857  0.00  0.00    -0.299 N 
ATOM     23  C   UNL     1      34.430 -19.174 -21.082  0.00  0.00    +0.246 C 
ATOM     24  C   UNL     1      34.896 -16.836 -21.857  0.00  0.00    +0.111 C 
ATOM     25  H   UNL     1      35.270 -17.664 -19.966  0.00  0.00    +0.150 HD
ENDBRANCH   9  23
TORSDOF 3
ENDMDL
