MODEL 1
REMARK VINA RESULT:     -11.1      0.000      0.000
REMARK  Name = 3116
REMARK  11 active torsions:
REMARK  status: ('A' for Active; 'I' for Inactive)
REMARK    1  A    between atoms: C_1  and  C_2
REMARK    2  A    between atoms: C_1  and  C_17
REMARK    3  A    between atoms: C_2  and  C_3
REMARK    4  A    between atoms: C_3  and  C_4
REMARK    5  A    between atoms: C_4  and  N_6
REMARK    6  A    between atoms: C_8  and  O_9
REMARK    7  A    between atoms: O_9  and  C_11
REMARK    8  A    between atoms: C_17  and  C_18
REMARK    9  A    between atoms: C_18  and  N_20
REMARK   10  A    between atoms: C_22  and  O_23
REMARK   11  A    between atoms: O_23  and  C_25
REMARK                            x       y       z     vdW  Elec       q    Type
REMARK                         _______ _______ _______ _____ _____    ______ ____
ROOT
ATOM      1  C   UNL     1      34.185 -19.387 -20.978  0.00  0.00    +0.002 C 
ENDROOT
BRANCH   1   2
ATOM      2  C   UNL     1      35.141 -20.200 -20.102  0.00  0.00    +0.002 C 
BRANCH   2   3
ATOM      3  C   UNL     1      34.424 -21.394 -19.462  0.00  0.00    +0.022 C 
BRANCH   3   4
ATOM      4  C   UNL     1      34.956 -21.718 -18.069  0.00  0.00    +0.097 C 
BRANCH   4   6
ATOM      5  O   UNL     1      33.402 -23.536 -15.298  0.00  0.00    -0.226 OA
ATOM      6  N   UNL     1      33.964 -22.325 -17.226  0.00  0.00    -0.244 N 
ATOM      7  C   UNL     1      32.567 -22.205 -17.656  0.00  0.00    +0.118 C 
ATOM      8  C   UNL     1      34.245 -23.015 -16.027  0.00  0.00    +0.409 C 
BRANCH   8   9
ATOM      9  O   UNL     1      35.616 -23.042 -15.757  0.00  0.00    -0.413 OA
BRANCH   9  11
ATOM     10  N   UNL     1      36.266 -23.794 -12.253  0.00  0.00    -0.298 N 
ATOM     11  C   UNL     1      35.957 -23.743 -14.595  0.00  0.00    +0.147 C 
ATOM     12  C   UNL     1      35.936 -23.114 -13.360  0.00  0.00    +0.156 C 
ATOM     13  C   UNL     1      36.324 -25.085 -14.659  0.00  0.00    +0.036 C 
ATOM     14  C   UNL     1      36.662 -25.767 -13.493  0.00  0.00    +0.019 C 
ATOM     15  C   UNL     1      36.623 -25.085 -12.285  0.00  0.00    +0.062 C 
ATOM     16  C   UNL     1      36.237 -23.104 -10.966  0.00  0.00    +0.113 C 
ENDBRANCH   9  11
ENDBRANCH   8   9
ENDBRANCH   4   6
ENDBRANCH   3   4
ENDBRANCH   2   3
ENDBRANCH   1   2
BRANCH   1  17
ATOM     17  C   UNL     1      34.804 -18.945 -22.308  0.00  0.00    +0.022 C 
BRANCH  17  18
ATOM     18  C   UNL     1      34.796 -17.438 -22.550  0.00  0.00    +0.097 C 
BRANCH  18  20
ATOM     19  O   UNL     1      33.339 -15.434 -25.245  0.00  0.00    -0.226 OA
ATOM     20  N   UNL     1      34.065 -17.072 -23.731  0.00  0.00    -0.244 N 
ATOM     21  C   UNL     1      33.392 -18.154 -24.456  0.00  0.00    +0.118 C 
ATOM     22  C   UNL     1      33.960 -15.756 -24.233  0.00  0.00    +0.409 C 
BRANCH  22  23
ATOM     23  O   UNL     1      34.653 -14.842 -23.434  0.00  0.00    -0.413 OA
BRANCH  23  25
ATOM     24  N   UNL     1      32.665 -11.937 -22.500  0.00  0.00    -0.298 N 
ATOM     25  C   UNL     1      33.830 -13.984 -22.698  0.00  0.00    +0.147 C 
ATOM     26  C   UNL     1      33.452 -12.753 -23.215  0.00  0.00    +0.156 C 
ATOM     27  C   UNL     1      33.376 -14.347 -21.433  0.00  0.00    +0.036 C 
ATOM     28  C   UNL     1      32.559 -13.480 -20.714  0.00  0.00    +0.019 C 
ATOM     29  C   UNL     1      32.214 -12.262 -21.281  0.00  0.00    +0.062 C 
ATOM     30  C   UNL     1      32.286 -10.647 -23.071  0.00  0.00    +0.113 C 
ENDBRANCH  23  25
ENDBRANCH  22  23
ENDBRANCH  18  20
ENDBRANCH  17  18
ENDBRANCH   1  17
TORSDOF 11
ENDMDL
MODEL 2
REMARK VINA RESULT:     -11.0      1.876     11.537
REMARK  Name = 3116
REMARK  11 active torsions:
REMARK  status: ('A' for Active; 'I' for Inactive)
REMARK    1  A    between atoms: C_1  and  C_2
REMARK    2  A    between atoms: C_1  and  C_17
REMARK    3  A    between atoms: C_2  and  C_3
REMARK    4  A    between atoms: C_3  and  C_4
REMARK    5  A    between atoms: C_4  and  N_6
REMARK    6  A    between atoms: C_8  and  O_9
REMARK    7  A    between atoms: O_9  and  C_11
REMARK    8  A    between atoms: C_17  and  C_18
REMARK    9  A    between atoms: C_18  and  N_20
REMARK   10  A    between atoms: C_22  and  O_23
REMARK   11  A    between atoms: O_23  and  C_25
REMARK                            x       y       z     vdW  Elec       q    Type
REMARK                         _______ _______ _______ _____ _____    ______ ____
ROOT
ATOM      1  C   UNL     1      34.920 -20.221 -20.129  0.00  0.00    +0.002 C 
ENDROOT
BRANCH   1   2
ATOM      2  C   UNL     1      35.562 -19.114 -20.967  0.00  0.00    +0.002 C 
BRANCH   2   3
ATOM      3  C   UNL     1      34.671 -18.729 -22.153  0.00  0.00    +0.022 C 
BRANCH   3   4
ATOM      4  C   UNL     1      34.810 -17.259 -22.537  0.00  0.00    +0.097 C 
BRANCH   4   6
ATOM      5  O   UNL     1      33.344 -15.335 -25.285  0.00  0.00    -0.226 OA
ATOM      6  N   UNL     1      34.083 -16.930 -23.731  0.00  0.00    -0.244 N 
ATOM      7  C   UNL     1      33.431 -18.037 -24.437  0.00  0.00    +0.118 C 
ATOM      8  C   UNL     1      33.962 -15.627 -24.261  0.00  0.00    +0.409 C 
BRANCH   8   9
ATOM      9  O   UNL     1      34.636 -14.686 -23.477  0.00  0.00    -0.413 OA
BRANCH   9  11
ATOM     10  N   UNL     1      32.609 -11.808 -22.541  0.00  0.00    -0.298 N 
ATOM     11  C   UNL     1      33.795 -13.842 -22.744  0.00  0.00    +0.147 C 
ATOM     12  C   UNL     1      33.415 -12.609 -23.253  0.00  0.00    +0.156 C 
ATOM     13  C   UNL     1      33.323 -14.226 -21.491  0.00  0.00    +0.036 C 
ATOM     14  C   UNL     1      32.488 -13.374 -20.774  0.00  0.00    +0.019 C 
ATOM     15  C   UNL     1      32.142 -12.151 -21.333  0.00  0.00    +0.062 C 
ATOM     16  C   UNL     1      32.229 -10.514 -23.101  0.00  0.00    +0.113 C 
ENDBRANCH   9  11
ENDBRANCH   8   9
ENDBRANCH   4   6
ENDBRANCH   3   4
ENDBRANCH   2   3
ENDBRANCH   1   2
BRANCH   1  17
ATOM     17  C   UNL     1      35.896 -20.896 -19.159  0.00  0.00    +0.022 C 
BRANCH  17  18
ATOM     18  C   UNL     1      35.237 -21.712 -18.051  0.00  0.00    +0.097 C 
BRANCH  18  20
ATOM     19  O   UNL     1      36.411 -22.496 -14.673  0.00  0.00    -0.226 OA
ATOM     20  N   UNL     1      35.957 -21.642 -16.810  0.00  0.00    -0.244 N 
ATOM     21  C   UNL     1      36.923 -20.548 -16.666  0.00  0.00    +0.118 C 
ATOM     22  C   UNL     1      35.798 -22.547 -15.738  0.00  0.00    +0.409 C 
BRANCH  22  23
ATOM     23  O   UNL     1      34.844 -23.528 -16.028  0.00  0.00    -0.413 OA
BRANCH  23  25
ATOM     24  N   UNL     1      31.325 -22.797 -15.440  0.00  0.00    -0.298 N 
ATOM     25  C   UNL     1      33.622 -23.351 -15.372  0.00  0.00    +0.147 C 
ATOM     26  C   UNL     1      32.491 -22.965 -16.079  0.00  0.00    +0.156 C 
ATOM     27  C   UNL     1      33.516 -23.556 -14.000  0.00  0.00    +0.036 C 
ATOM     28  C   UNL     1      32.292 -23.374 -13.363  0.00  0.00    +0.019 C 
ATOM     29  C   UNL     1      31.196 -22.987 -14.120  0.00  0.00    +0.062 C 
ATOM     30  C   UNL     1      30.154 -22.388 -16.211  0.00  0.00    +0.113 C 
ENDBRANCH  23  25
ENDBRANCH  22  23
ENDBRANCH  18  20
ENDBRANCH  17  18
ENDBRANCH   1  17
TORSDOF 11
ENDMDL
MODEL 3
REMARK VINA RESULT:     -11.0      1.078      1.488
REMARK  Name = 3116
REMARK  11 active torsions:
REMARK  status: ('A' for Active; 'I' for Inactive)
REMARK    1  A    between atoms: C_1  and  C_2
REMARK    2  A    between atoms: C_1  and  C_17
REMARK    3  A    between atoms: C_2  and  C_3
REMARK    4  A    between atoms: C_3  and  C_4
REMARK    5  A    between atoms: C_4  and  N_6
REMARK    6  A    between atoms: C_8  and  O_9
REMARK    7  A    between atoms: O_9  and  C_11
REMARK    8  A    between atoms: C_17  and  C_18
REMARK    9  A    between atoms: C_18  and  N_20
REMARK   10  A    between atoms: C_22  and  O_23
REMARK   11  A    between atoms: O_23  and  C_25
REMARK                            x       y       z     vdW  Elec       q    Type
REMARK                         _______ _______ _______ _____ _____    ______ ____
ROOT
ATOM      1  C   UNL     1      35.334 -19.316 -20.737  0.00  0.00    +0.002 C 
ENDROOT
BRANCH   1   2
ATOM      2  C   UNL     1      34.666 -20.437 -19.938  0.00  0.00    +0.002 C 
BRANCH   2   3
ATOM      3  C   UNL     1      35.707 -21.307 -19.227  0.00  0.00    +0.022 C 
BRANCH   3   4
ATOM      4  C   UNL     1      35.288 -21.680 -17.808  0.00  0.00    +0.097 C 
BRANCH   4   6
ATOM      5  O   UNL     1      37.445 -21.883 -14.857  0.00  0.00    -0.226 OA
ATOM      6  N   UNL     1      36.294 -21.362 -16.834  0.00  0.00    -0.244 N 
ATOM      7  C   UNL     1      37.067 -20.135 -17.056  0.00  0.00    +0.118 C 
ATOM      8  C   UNL     1      36.583 -22.146 -15.696  0.00  0.00    +0.409 C 
BRANCH   8   9
ATOM      9  O   UNL     1      35.764 -23.276 -15.626  0.00  0.00    -0.413 OA
BRANCH   9  11
ATOM     10  N   UNL     1      35.902 -24.698 -12.276  0.00  0.00    -0.298 N 
ATOM     11  C   UNL     1      36.065 -24.138 -14.566  0.00  0.00    +0.147 C 
ATOM     12  C   UNL     1      35.606 -23.867 -13.285  0.00  0.00    +0.156 C 
ATOM     13  C   UNL     1      36.829 -25.282 -14.777  0.00  0.00    +0.036 C 
ATOM     14  C   UNL     1      37.120 -26.128 -13.710  0.00  0.00    +0.019 C 
ATOM     15  C   UNL     1      36.635 -25.805 -12.450  0.00  0.00    +0.062 C 
ATOM     16  C   UNL     1      35.408 -24.385 -10.938  0.00  0.00    +0.113 C 
ENDBRANCH   9  11
ENDBRANCH   8   9
ENDBRANCH   4   6
ENDBRANCH   3   4
ENDBRANCH   2   3
ENDBRANCH   1   2
BRANCH   1  17
ATOM     17  C   UNL     1      34.504 -18.842 -21.936  0.00  0.00    +0.022 C 
BRANCH  17  18
ATOM     18  C   UNL     1      34.921 -17.492 -22.510  0.00  0.00    +0.097 C 
BRANCH  18  20
ATOM     19  O   UNL     1      33.390 -15.504 -25.176  0.00  0.00    -0.226 OA
ATOM     20  N   UNL     1      34.171 -17.135 -23.683  0.00  0.00    -0.244 N 
ATOM     21  C   UNL     1      33.521 -18.228 -24.411  0.00  0.00    +0.118 C 
ATOM     22  C   UNL     1      34.027 -15.818 -24.172  0.00  0.00    +0.409 C 
BRANCH  22  23
ATOM     23  O   UNL     1      34.703 -14.893 -23.371  0.00  0.00    -0.413 OA
BRANCH  23  25
ATOM     24  N   UNL     1      32.668 -12.015 -22.452  0.00  0.00    -0.298 N 
ATOM     25  C   UNL     1      33.863 -14.046 -22.641  0.00  0.00    +0.147 C 
ATOM     26  C   UNL     1      33.472 -12.821 -23.161  0.00  0.00    +0.156 C 
ATOM     27  C   UNL     1      33.406 -14.415 -21.379  0.00  0.00    +0.036 C 
ATOM     28  C   UNL     1      32.573 -13.558 -20.666  0.00  0.00    +0.019 C 
ATOM     29  C   UNL     1      32.214 -12.345 -21.236  0.00  0.00    +0.062 C 
ATOM     30  C   UNL     1      32.276 -10.731 -23.026  0.00  0.00    +0.113 C 
ENDBRANCH  23  25
ENDBRANCH  22  23
ENDBRANCH  18  20
ENDBRANCH  17  18
ENDBRANCH   1  17
TORSDOF 11
ENDMDL
MODEL 4
REMARK VINA RESULT:     -11.0      1.871      2.893
REMARK  Name = 3116
REMARK  11 active torsions:
REMARK  status: ('A' for Active; 'I' for Inactive)
REMARK    1  A    between atoms: C_1  and  C_2
REMARK    2  A    between atoms: C_1  and  C_17
REMARK    3  A    between atoms: C_2  and  C_3
REMARK    4  A    between atoms: C_3  and  C_4
REMARK    5  A    between atoms: C_4  and  N_6
REMARK    6  A    between atoms: C_8  and  O_9
REMARK    7  A    between atoms: O_9  and  C_11
REMARK    8  A    between atoms: C_17  and  C_18
REMARK    9  A    between atoms: C_18  and  N_20
REMARK   10  A    between atoms: C_22  and  O_23
REMARK   11  A    between atoms: O_23  and  C_25
REMARK                            x       y       z     vdW  Elec       q    Type
REMARK                         _______ _______ _______ _____ _____    ______ ____
ROOT
ATOM      1  C   UNL     1      35.013 -19.086 -20.679  0.00  0.00    +0.002 C 
ENDROOT
BRANCH   1   2
ATOM      2  C   UNL     1      34.760 -20.528 -20.234  0.00  0.00    +0.002 C 
BRANCH   2   3
ATOM      3  C   UNL     1      35.741 -20.947 -19.134  0.00  0.00    +0.022 C 
BRANCH   3   4
ATOM      4  C   UNL     1      35.060 -21.721 -18.008  0.00  0.00    +0.097 C 
BRANCH   4   6
ATOM      5  O   UNL     1      36.321 -22.650 -14.699  0.00  0.00    -0.226 OA
ATOM      6  N   UNL     1      35.826 -21.715 -16.793  0.00  0.00    -0.244 N 
ATOM      7  C   UNL     1      36.839 -20.664 -16.654  0.00  0.00    +0.118 C 
ATOM      8  C   UNL     1      35.668 -22.645 -15.743  0.00  0.00    +0.409 C 
BRANCH   8   9
ATOM      9  O   UNL     1      34.667 -23.579 -16.026  0.00  0.00    -0.413 OA
BRANCH   9  11
ATOM     10  N   UNL     1      31.171 -22.753 -15.423  0.00  0.00    -0.298 N 
ATOM     11  C   UNL     1      33.459 -23.343 -15.362  0.00  0.00    +0.147 C 
ATOM     12  C   UNL     1      32.324 -22.979 -16.070  0.00  0.00    +0.156 C 
ATOM     13  C   UNL     1      33.374 -23.471 -13.978  0.00  0.00    +0.036 C 
ATOM     14  C   UNL     1      32.164 -23.232 -13.332  0.00  0.00    +0.019 C 
ATOM     15  C   UNL     1      31.061 -22.868 -14.093  0.00  0.00    +0.062 C 
ATOM     16  C   UNL     1      29.993 -22.368 -16.196  0.00  0.00    +0.113 C 
ENDBRANCH   9  11
ENDBRANCH   8   9
ENDBRANCH   4   6
ENDBRANCH   3   4
ENDBRANCH   2   3
ENDBRANCH   1   2
BRANCH   1  17
ATOM     17  C   UNL     1      34.550 -18.799 -22.112  0.00  0.00    +0.022 C 
BRANCH  17  18
ATOM     18  C   UNL     1      34.857 -17.392 -22.616  0.00  0.00    +0.097 C 
BRANCH  18  20
ATOM     19  O   UNL     1      33.297 -15.420 -25.276  0.00  0.00    -0.226 OA
ATOM     20  N   UNL     1      34.090 -17.041 -23.778  0.00  0.00    -0.244 N 
ATOM     21  C   UNL     1      33.414 -18.136 -24.481  0.00  0.00    +0.118 C 
ATOM     22  C   UNL     1      33.950 -15.729 -24.281  0.00  0.00    +0.409 C 
BRANCH  22  23
ATOM     23  O   UNL     1      34.650 -14.801 -23.503  0.00  0.00    -0.413 OA
BRANCH  23  25
ATOM     24  N   UNL     1      32.674 -11.901 -22.532  0.00  0.00    -0.298 N 
ATOM     25  C   UNL     1      33.834 -13.948 -22.755  0.00  0.00    +0.147 C 
ATOM     26  C   UNL     1      33.456 -12.712 -23.258  0.00  0.00    +0.156 C 
ATOM     27  C   UNL     1      33.387 -14.322 -21.490  0.00  0.00    +0.036 C 
ATOM     28  C   UNL     1      32.576 -13.459 -20.759  0.00  0.00    +0.019 C 
ATOM     29  C   UNL     1      32.231 -12.235 -21.312  0.00  0.00    +0.062 C 
ATOM     30  C   UNL     1      32.295 -10.605 -23.088  0.00  0.00    +0.113 C 
ENDBRANCH  23  25
ENDBRANCH  22  23
ENDBRANCH  18  20
ENDBRANCH  17  18
ENDBRANCH   1  17
TORSDOF 11
ENDMDL
MODEL 5
REMARK VINA RESULT:     -11.0      0.805     12.090
REMARK  Name = 3116
REMARK  11 active torsions:
REMARK  status: ('A' for Active; 'I' for Inactive)
REMARK    1  A    between atoms: C_1  and  C_2
REMARK    2  A    between atoms: C_1  and  C_17
REMARK    3  A    between atoms: C_2  and  C_3
REMARK    4  A    between atoms: C_3  and  C_4
REMARK    5  A    between atoms: C_4  and  N_6
REMARK    6  A    between atoms: C_8  and  O_9
REMARK    7  A    between atoms: O_9  and  C_11
REMARK    8  A    between atoms: C_17  and  C_18
REMARK    9  A    between atoms: C_18  and  N_20
REMARK   10  A    between atoms: C_22  and  O_23
REMARK   11  A    between atoms: O_23  and  C_25
REMARK                            x       y       z     vdW  Elec       q    Type
REMARK                         _______ _______ _______ _____ _____    ______ ____
ROOT
ATOM      1  C   UNL     1      35.709 -19.875 -20.212  0.00  0.00    +0.002 C 
ENDROOT
BRANCH   1   2
ATOM      2  C   UNL     1      34.588 -19.195 -21.001  0.00  0.00    +0.002 C 
BRANCH   2   3
ATOM      3  C   UNL     1      35.103 -18.655 -22.340  0.00  0.00    +0.022 C 
BRANCH   3   4
ATOM      4  C   UNL     1      34.841 -17.161 -22.507  0.00  0.00    +0.097 C 
BRANCH   4   6
ATOM      5  O   UNL     1      33.329 -15.299 -25.273  0.00  0.00    -0.226 OA
ATOM      6  N   UNL     1      34.104 -16.860 -23.703  0.00  0.00    -0.244 N 
ATOM      7  C   UNL     1      33.471 -17.989 -24.392  0.00  0.00    +0.118 C 
ATOM      8  C   UNL     1      33.956 -15.566 -24.248  0.00  0.00    +0.409 C 
BRANCH   8   9
ATOM      9  O   UNL     1      34.614 -14.603 -23.478  0.00  0.00    -0.413 OA
BRANCH   9  11
ATOM     10  N   UNL     1      32.578 -11.729 -22.552  0.00  0.00    -0.298 N 
ATOM     11  C   UNL     1      33.759 -13.765 -22.754  0.00  0.00    +0.147 C 
ATOM     12  C   UNL     1      33.397 -12.524 -23.255  0.00  0.00    +0.156 C 
ATOM     13  C   UNL     1      33.255 -14.163 -21.519  0.00  0.00    +0.036 C 
ATOM     14  C   UNL     1      32.406 -13.317 -20.811  0.00  0.00    +0.019 C 
ATOM     15  C   UNL     1      32.079 -12.086 -21.361  0.00  0.00    +0.062 C 
ATOM     16  C   UNL     1      32.216 -10.426 -23.105  0.00  0.00    +0.113 C 
ENDBRANCH   9  11
ENDBRANCH   8   9
ENDBRANCH   4   6
ENDBRANCH   3   4
ENDBRANCH   2   3
ENDBRANCH   1   2
BRANCH   1  17
ATOM     17  C   UNL     1      35.275 -21.182 -19.540  0.00  0.00    +0.022 C 
BRANCH  17  18
ATOM     18  C   UNL     1      35.697 -21.323 -18.080  0.00  0.00    +0.097 C 
BRANCH  18  20
ATOM     19  O   UNL     1      34.060 -22.957 -15.242  0.00  0.00    -0.226 OA
ATOM     20  N   UNL     1      34.723 -22.023 -17.288  0.00  0.00    -0.244 N 
ATOM     21  C   UNL     1      33.474 -22.400 -17.957  0.00  0.00    +0.118 C 
ATOM     22  C   UNL     1      34.889 -22.361 -15.927  0.00  0.00    +0.409 C 
BRANCH  22  23
ATOM     23  O   UNL     1      36.127 -21.935 -15.438  0.00  0.00    -0.413 OA
BRANCH  23  25
ATOM     24  N   UNL     1      36.786 -23.470 -12.202  0.00  0.00    -0.298 N 
ATOM     25  C   UNL     1      36.673 -22.767 -14.456  0.00  0.00    +0.147 C 
ATOM     26  C   UNL     1      36.256 -22.669 -13.136  0.00  0.00    +0.156 C 
ATOM     27  C   UNL     1      37.645 -23.708 -14.782  0.00  0.00    +0.036 C 
ATOM     28  C   UNL     1      38.178 -24.528 -13.792  0.00  0.00    +0.019 C 
ATOM     29  C   UNL     1      37.723 -24.384 -12.489  0.00  0.00    +0.062 C 
ATOM     30  C   UNL     1      36.328 -23.341 -10.821  0.00  0.00    +0.113 C 
ENDBRANCH  23  25
ENDBRANCH  22  23
ENDBRANCH  18  20
ENDBRANCH  17  18
ENDBRANCH   1  17
TORSDOF 11
ENDMDL
MODEL 6
REMARK VINA RESULT:     -11.0      1.099     12.275
REMARK  Name = 3116
REMARK  11 active torsions:
REMARK  status: ('A' for Active; 'I' for Inactive)
REMARK    1  A    between atoms: C_1  and  C_2
REMARK    2  A    between atoms: C_1  and  C_17
REMARK    3  A    between atoms: C_2  and  C_3
REMARK    4  A    between atoms: C_3  and  C_4
REMARK    5  A    between atoms: C_4  and  N_6
REMARK    6  A    between atoms: C_8  and  O_9
REMARK    7  A    between atoms: O_9  and  C_11
REMARK    8  A    between atoms: C_17  and  C_18
REMARK    9  A    between atoms: C_18  and  N_20
REMARK   10  A    between atoms: C_22  and  O_23
REMARK   11  A    between atoms: O_23  and  C_25
REMARK                            x       y       z     vdW  Elec       q    Type
REMARK                         _______ _______ _______ _____ _____    ______ ____
ROOT
ATOM      1  C   UNL     1      34.810 -20.403 -19.991  0.00  0.00    +0.002 C 
ENDROOT
BRANCH   1   2
ATOM      2  C   UNL     1      35.504 -19.285 -20.771  0.00  0.00    +0.002 C 
BRANCH   2   3
ATOM      3  C   UNL     1      34.722 -18.928 -22.040  0.00  0.00    +0.022 C 
BRANCH   3   4
ATOM      4  C   UNL     1      34.911 -17.472 -22.454  0.00  0.00    +0.097 C 
BRANCH   4   6
ATOM      5  O   UNL     1      33.403 -15.525 -25.163  0.00  0.00    -0.226 OA
ATOM      6  N   UNL     1      34.168 -17.133 -23.636  0.00  0.00    -0.244 N 
ATOM      7  C   UNL     1      33.513 -18.236 -24.345  0.00  0.00    +0.118 C 
ATOM      8  C   UNL     1      34.035 -15.825 -24.150  0.00  0.00    +0.409 C 
BRANCH   8   9
ATOM      9  O   UNL     1      34.715 -14.890 -23.365  0.00  0.00    -0.413 OA
BRANCH   9  11
ATOM     10  N   UNL     1      32.704 -11.972 -22.520  0.00  0.00    -0.298 N 
ATOM     11  C   UNL     1      33.878 -14.019 -22.659  0.00  0.00    +0.147 C 
ATOM     12  C   UNL     1      33.505 -12.800 -23.207  0.00  0.00    +0.156 C 
ATOM     13  C   UNL     1      33.405 -14.359 -21.394  0.00  0.00    +0.036 C 
ATOM     14  C   UNL     1      32.574 -13.480 -20.705  0.00  0.00    +0.019 C 
ATOM     15  C   UNL     1      32.235 -12.274 -21.303  0.00  0.00    +0.062 C 
ATOM     16  C   UNL     1      32.331 -10.695 -23.122  0.00  0.00    +0.113 C 
ENDBRANCH   9  11
ENDBRANCH   8   9
ENDBRANCH   4   6
ENDBRANCH   3   4
ENDBRANCH   2   3
ENDBRANCH   1   2
BRANCH   1  17
ATOM     17  C   UNL     1      35.781 -21.286 -19.198  0.00  0.00    +0.022 C 
BRANCH  17  18
ATOM     18  C   UNL     1      35.341 -21.603 -17.772  0.00  0.00    +0.097 C 
BRANCH  18  20
ATOM     19  O   UNL     1      37.556 -21.928 -14.875  0.00  0.00    -0.226 OA
ATOM     20  N   UNL     1      36.364 -21.324 -16.802  0.00  0.00    -0.244 N 
ATOM     21  C   UNL     1      37.124 -20.083 -16.981  0.00  0.00    +0.118 C 
ATOM     22  C   UNL     1      36.680 -22.158 -15.708  0.00  0.00    +0.409 C 
BRANCH  22  23
ATOM     23  O   UNL     1      35.870 -23.296 -15.676  0.00  0.00    -0.413 OA
BRANCH  23  25
ATOM     24  N   UNL     1      35.947 -24.657 -12.298  0.00  0.00    -0.298 N 
ATOM     25  C   UNL     1      36.127 -24.153 -14.601  0.00  0.00    +0.147 C 
ATOM     26  C   UNL     1      35.694 -23.830 -13.322  0.00  0.00    +0.156 C 
ATOM     27  C   UNL     1      36.823 -25.343 -14.792  0.00  0.00    +0.036 C 
ATOM     28  C   UNL     1      37.071 -26.183 -13.710  0.00  0.00    +0.019 C 
ATOM     29  C   UNL     1      36.615 -25.809 -12.455  0.00  0.00    +0.062 C 
ATOM     30  C   UNL     1      35.481 -24.289 -10.965  0.00  0.00    +0.113 C 
ENDBRANCH  23  25
ENDBRANCH  22  23
ENDBRANCH  18  20
ENDBRANCH  17  18
ENDBRANCH   1  17
TORSDOF 11
ENDMDL
MODEL 7
REMARK VINA RESULT:     -10.9      1.668     11.401
REMARK  Name = 3116
REMARK  11 active torsions:
REMARK  status: ('A' for Active; 'I' for Inactive)
REMARK    1  A    between atoms: C_1  and  C_2
REMARK    2  A    between atoms: C_1  and  C_17
REMARK    3  A    between atoms: C_2  and  C_3
REMARK    4  A    between atoms: C_3  and  C_4
REMARK    5  A    between atoms: C_4  and  N_6
REMARK    6  A    between atoms: C_8  and  O_9
REMARK    7  A    between atoms: O_9  and  C_11
REMARK    8  A    between atoms: C_17  and  C_18
REMARK    9  A    between atoms: C_18  and  N_20
REMARK   10  A    between atoms: C_22  and  O_23
REMARK   11  A    between atoms: O_23  and  C_25
REMARK                            x       y       z     vdW  Elec       q    Type
REMARK                         _______ _______ _______ _____ _____    ______ ____
ROOT
ATOM      1  C   UNL     1      36.099 -19.305 -20.236  0.00  0.00    +0.002 C 
ENDROOT
BRANCH   1   2
ATOM      2  C   UNL     1      36.546 -18.384 -21.373  0.00  0.00    +0.002 C 
BRANCH   2   3
ATOM      3  C   UNL     1      35.464 -18.273 -22.453  0.00  0.00    +0.022 C 
BRANCH   3   4
ATOM      4  C   UNL     1      34.764 -16.917 -22.441  0.00  0.00    +0.097 C 
BRANCH   4   6
ATOM      5  O   UNL     1      33.326 -15.125 -25.292  0.00  0.00    -0.226 OA
ATOM      6  N   UNL     1      34.064 -16.647 -23.666  0.00  0.00    -0.244 N 
ATOM      7  C   UNL     1      33.464 -17.795 -24.353  0.00  0.00    +0.118 C 
ATOM      8  C   UNL     1      33.922 -15.366 -24.242  0.00  0.00    +0.409 C 
BRANCH   8   9
ATOM      9  O   UNL     1      34.545 -14.381 -23.470  0.00  0.00    -0.413 OA
BRANCH   9  11
ATOM     10  N   UNL     1      32.455 -11.527 -22.604  0.00  0.00    -0.298 N 
ATOM     11  C   UNL     1      33.659 -13.553 -22.772  0.00  0.00    +0.147 C 
ATOM     12  C   UNL     1      33.304 -12.313 -23.282  0.00  0.00    +0.156 C 
ATOM     13  C   UNL     1      33.118 -13.959 -21.555  0.00  0.00    +0.036 C 
ATOM     14  C   UNL     1      32.239 -13.122 -20.874  0.00  0.00    +0.019 C 
ATOM     15  C   UNL     1      31.921 -11.892 -21.431  0.00  0.00    +0.062 C 
ATOM     16  C   UNL     1      32.101 -10.225 -23.165  0.00  0.00    +0.113 C 
ENDBRANCH   9  11
ENDBRANCH   8   9
ENDBRANCH   4   6
ENDBRANCH   3   4
ENDBRANCH   2   3
ENDBRANCH   1   2
BRANCH   1  17
ATOM     17  C   UNL     1      34.881 -20.166 -20.592  0.00  0.00    +0.022 C 
BRANCH  17  18
ATOM     18  C   UNL     1      34.596 -21.306 -19.619  0.00  0.00    +0.097 C 
BRANCH  18  20
ATOM     19  O   UNL     1      31.604 -22.130 -17.676  0.00  0.00    -0.226 OA
ATOM     20  N   UNL     1      33.256 -21.271 -19.104  0.00  0.00    -0.244 N 
ATOM     21  C   UNL     1      32.366 -20.237 -19.641  0.00  0.00    +0.118 C 
ATOM     22  C   UNL     1      32.749 -22.154 -18.125  0.00  0.00    +0.409 C 
BRANCH  22  23
ATOM     23  O   UNL     1      33.715 -23.079 -17.716  0.00  0.00    -0.413 OA
BRANCH  23  25
ATOM     24  N   UNL     1      33.563 -23.412 -14.092  0.00  0.00    -0.298 N 
ATOM     25  C   UNL     1      34.060 -22.987 -16.364  0.00  0.00    +0.147 C 
ATOM     26  C   UNL     1      33.224 -23.507 -15.385  0.00  0.00    +0.156 C 
ATOM     27  C   UNL     1      35.246 -22.372 -15.974  0.00  0.00    +0.036 C 
ATOM     28  C   UNL     1      35.573 -22.288 -14.623  0.00  0.00    +0.019 C 
ATOM     29  C   UNL     1      34.698 -22.825 -13.690  0.00  0.00    +0.062 C 
ATOM     30  C   UNL     1      32.662 -23.966 -13.086  0.00  0.00    +0.113 C 
ENDBRANCH  23  25
ENDBRANCH  22  23
ENDBRANCH  18  20
ENDBRANCH  17  18
ENDBRANCH   1  17
TORSDOF 11
ENDMDL
MODEL 8
REMARK VINA RESULT:     -10.9      1.693      2.253
REMARK  Name = 3116
REMARK  11 active torsions:
REMARK  status: ('A' for Active; 'I' for Inactive)
REMARK    1  A    between atoms: C_1  and  C_2
REMARK    2  A    between atoms: C_1  and  C_17
REMARK    3  A    between atoms: C_2  and  C_3
REMARK    4  A    between atoms: C_3  and  C_4
REMARK    5  A    between atoms: C_4  and  N_6
REMARK    6  A    between atoms: C_8  and  O_9
REMARK    7  A    between atoms: O_9  and  C_11
REMARK    8  A    between atoms: C_17  and  C_18
REMARK    9  A    between atoms: C_18  and  N_20
REMARK   10  A    between atoms: C_22  and  O_23
REMARK   11  A    between atoms: O_23  and  C_25
REMARK                            x       y       z     vdW  Elec       q    Type
REMARK                         _______ _______ _______ _____ _____    ______ ____
ROOT
ATOM      1  C   UNL     1      36.632 -18.324 -21.462  0.00  0.00    +0.002 C 
ENDROOT
BRANCH   1   2
ATOM      2  C   UNL     1      36.340 -19.338 -20.355  0.00  0.00    +0.002 C 
BRANCH   2   3
ATOM      3  C   UNL     1      34.921 -19.904 -20.483  0.00  0.00    +0.022 C 
BRANCH   3   4
ATOM      4  C   UNL     1      34.686 -21.105 -19.572  0.00  0.00    +0.097 C 
BRANCH   4   6
ATOM      5  O   UNL     1      31.710 -22.176 -17.727  0.00  0.00    -0.226 OA
ATOM      6  N   UNL     1      33.328 -21.191 -19.112  0.00  0.00    -0.244 N 
ATOM      7  C   UNL     1      32.364 -20.264 -19.715  0.00  0.00    +0.118 C 
ATOM      8  C   UNL     1      32.870 -22.096 -18.130  0.00  0.00    +0.409 C 
BRANCH   8   9
ATOM      9  O   UNL     1      33.904 -22.909 -17.655  0.00  0.00    -0.413 OA
BRANCH   9  11
ATOM     10  N   UNL     1      32.950 -23.546 -14.199  0.00  0.00    -0.298 N 
ATOM     11  C   UNL     1      33.967 -23.001 -16.261  0.00  0.00    +0.147 C 
ATOM     12  C   UNL     1      32.879 -23.463 -15.535  0.00  0.00    +0.156 C 
ATOM     13  C   UNL     1      35.122 -22.632 -15.577  0.00  0.00    +0.036 C 
ATOM     14  C   UNL     1      35.167 -22.728 -14.189  0.00  0.00    +0.019 C 
ATOM     15  C   UNL     1      34.048 -23.196 -13.515  0.00  0.00    +0.062 C 
ATOM     16  C   UNL     1      31.787 -24.034 -13.461  0.00  0.00    +0.113 C 
ENDBRANCH   9  11
ENDBRANCH   8   9
ENDBRANCH   4   6
ENDBRANCH   3   4
ENDBRANCH   2   3
ENDBRANCH   1   2
BRANCH   1  17
ATOM     17  C   UNL     1      35.516 -18.224 -22.508  0.00  0.00    +0.022 C 
BRANCH  17  18
ATOM     18  C   UNL     1      34.699 -16.937 -22.454  0.00  0.00    +0.097 C 
BRANCH  18  20
ATOM     19  O   UNL     1      33.366 -15.114 -25.336  0.00  0.00    -0.226 OA
ATOM     20  N   UNL     1      34.034 -16.651 -23.695  0.00  0.00    -0.244 N 
ATOM     21  C   UNL     1      33.431 -17.787 -24.399  0.00  0.00    +0.118 C 
ATOM     22  C   UNL     1      33.931 -15.367 -24.273  0.00  0.00    +0.409 C 
BRANCH  22  23
ATOM     23  O   UNL     1      34.553 -14.395 -23.484  0.00  0.00    -0.413 OA
BRANCH  23  25
ATOM     24  N   UNL     1      32.454 -11.553 -22.604  0.00  0.00    -0.298 N 
ATOM     25  C   UNL     1      33.667 -13.573 -22.781  0.00  0.00    +0.147 C 
ATOM     26  C   UNL     1      33.302 -12.334 -23.287  0.00  0.00    +0.156 C 
ATOM     27  C   UNL     1      33.137 -13.981 -21.560  0.00  0.00    +0.036 C 
ATOM     28  C   UNL     1      32.257 -13.149 -20.874  0.00  0.00    +0.019 C 
ATOM     29  C   UNL     1      31.929 -11.921 -21.427  0.00  0.00    +0.062 C 
ATOM     30  C   UNL     1      32.090 -10.253 -23.162  0.00  0.00    +0.113 C 
ENDBRANCH  23  25
ENDBRANCH  22  23
ENDBRANCH  18  20
ENDBRANCH  17  18
ENDBRANCH   1  17
TORSDOF 11
ENDMDL
MODEL 9
REMARK VINA RESULT:     -10.6      3.837      7.449
REMARK  Name = 3116
REMARK  11 active torsions:
REMARK  status: ('A' for Active; 'I' for Inactive)
REMARK    1  A    between atoms: C_1  and  C_2
REMARK    2  A    between atoms: C_1  and  C_17
REMARK    3  A    between atoms: C_2  and  C_3
REMARK    4  A    between atoms: C_3  and  C_4
REMARK    5  A    between atoms: C_4  and  N_6
REMARK    6  A    between atoms: C_8  and  O_9
REMARK    7  A    between atoms: O_9  and  C_11
REMARK    8  A    between atoms: C_17  and  C_18
REMARK    9  A    between atoms: C_18  and  N_20
REMARK   10  A    between atoms: C_22  and  O_23
REMARK   11  A    between atoms: O_23  and  C_25
REMARK                            x       y       z     vdW  Elec       q    Type
REMARK                         _______ _______ _______ _____ _____    ______ ____
ROOT
ATOM      1  C   UNL     1      32.245 -13.707 -20.525  0.00  0.00    +0.002 C 
ENDROOT
BRANCH   1   2
ATOM      2  C   UNL     1      33.694 -14.137 -20.763  0.00  0.00    +0.002 C 
BRANCH   2   3
ATOM      3  C   UNL     1      33.860 -14.782 -22.143  0.00  0.00    +0.022 C 
BRANCH   3   4
ATOM      4  C   UNL     1      34.806 -15.979 -22.119  0.00  0.00    +0.097 C 
BRANCH   4   6
ATOM      5  O   UNL     1      34.296 -19.272 -23.635  0.00  0.00    -0.226 OA
ATOM      6  N   UNL     1      34.423 -17.004 -23.050  0.00  0.00    -0.244 N 
ATOM      7  C   UNL     1      33.779 -16.564 -24.291  0.00  0.00    +0.118 C 
ATOM      8  C   UNL     1      34.623 -18.387 -22.846  0.00  0.00    +0.409 C 
BRANCH   8   9
ATOM      9  O   UNL     1      35.246 -18.643 -21.621  0.00  0.00    -0.413 OA
BRANCH   9  11
ATOM     10  N   UNL     1      34.457 -21.056 -19.009  0.00  0.00    -0.298 N 
ATOM     11  C   UNL     1      34.518 -19.483 -20.772  0.00  0.00    +0.147 C 
ATOM     12  C   UNL     1      35.165 -20.252 -19.816  0.00  0.00    +0.156 C 
ATOM     13  C   UNL     1      33.131 -19.563 -20.871  0.00  0.00    +0.036 C 
ATOM     14  C   UNL     1      32.422 -20.405 -20.020  0.00  0.00    +0.019 C 
ATOM     15  C   UNL     1      33.123 -21.152 -19.083  0.00  0.00    +0.062 C 
ATOM     16  C   UNL     1      35.166 -21.855 -18.013  0.00  0.00    +0.113 C 
ENDBRANCH   9  11
ENDBRANCH   8   9
ENDBRANCH   4   6
ENDBRANCH   3   4
ENDBRANCH   2   3
ENDBRANCH   1   2
BRANCH   1  17
ATOM     17  C   UNL     1      32.037 -12.190 -20.611  0.00  0.00    +0.022 C 
BRANCH  17  18
ATOM     18  C   UNL     1      31.352 -11.709 -21.887  0.00  0.00    +0.097 C 
BRANCH  18  20
ATOM     19  O   UNL     1      32.816  -8.713 -23.399  0.00  0.00    -0.226 OA
ATOM     20  N   UNL     1      32.195 -10.857 -22.680  0.00  0.00    -0.244 N 
ATOM     21  C   UNL     1      33.227 -11.515 -23.488  0.00  0.00    +0.118 C 
ATOM     22  C   UNL     1      32.097  -9.449 -22.726  0.00  0.00    +0.409 C 
BRANCH  22  23
ATOM     23  O   UNL     1      31.069  -8.977 -21.904  0.00  0.00    -0.413 OA
BRANCH  23  25
ATOM     24  N   UNL     1      30.919  -5.352 -21.585  0.00  0.00    -0.298 N 
ATOM     25  C   UNL     1      31.275  -7.683 -21.416  0.00  0.00    +0.147 C 
ATOM     26  C   UNL     1      30.715  -6.588 -22.060  0.00  0.00    +0.156 C 
ATOM     27  C   UNL     1      32.044  -7.468 -20.276  0.00  0.00    +0.036 C 
ATOM     28  C   UNL     1      32.239  -6.173 -19.805  0.00  0.00    +0.019 C 
ATOM     29  C   UNL     1      31.656  -5.117 -20.491  0.00  0.00    +0.062 C 
ATOM     30  C   UNL     1      30.319  -4.221 -22.287  0.00  0.00    +0.113 C 
ENDBRANCH  23  25
ENDBRANCH  22  23
ENDBRANCH  18  20
ENDBRANCH  17  18
ENDBRANCH   1  17
TORSDOF 11
ENDMDL
