MODEL 1
REMARK VINA RESULT:     -10.6      0.000      0.000
REMARK  Name = 6449876
REMARK  10 active torsions:
REMARK  status: ('A' for Active; 'I' for Inactive)
REMARK    1  A    between atoms: C_1  and  C_19
REMARK    2  A    between atoms: C_2  and  N_8
REMARK    3  A    between atoms: N_7  and  C_13
REMARK    4  A    between atoms: N_9  and  C_18
REMARK    5  A    between atoms: C_19  and  C_22
REMARK    6  A    between atoms: C_20  and  C_27
REMARK    7  A    between atoms: C_27  and  C_28
REMARK    8  A    between atoms: C_28  and  C_29
REMARK    9  A    between atoms: C_29  and  C_31
REMARK   10  A    between atoms: C_31  and  O_32
REMARK                            x       y       z     vdW  Elec       q    Type
REMARK                         _______ _______ _______ _____ _____    ______ ____
ROOT
ATOM      1  C   UNL     1      35.401 -21.129 -17.872  0.00  0.00    +0.001 C 
ATOM      2  C   UNL     1      35.852 -22.069 -15.692  0.00  0.00    +0.059 C 
ATOM      3  C   UNL     1      35.036 -21.969 -16.819  0.00  0.00    +0.017 C 
ATOM      4  C   UNL     1      36.583 -20.391 -17.798  0.00  0.00    +0.000 C 
ATOM      5  C   UNL     1      37.033 -21.331 -15.618  0.00  0.00    +0.017 C 
ATOM      6  C   UNL     1      37.399 -20.492 -16.671  0.00  0.00    +0.001 C 
ENDROOT
BRANCH   2   8
ATOM      7  N   UNL     1      37.368 -24.382 -14.379  0.00  0.00    -0.243 NA
ATOM      8  N   UNL     1      35.484 -22.918 -14.628  0.00  0.00    -0.324 N 
ATOM      9  N   UNL     1      35.465 -24.670 -13.013  0.00  0.00    -0.263 N 
ATOM     10  C   UNL     1      36.187 -23.963 -14.045  0.00  0.00    +0.211 C 
ATOM     11  H   UNL     1      34.596 -22.743 -14.240  0.00  0.00    +0.169 HD
ATOM     12  H   UNL     1      35.850 -25.455 -12.562  0.00  0.00    +0.181 HD
BRANCH   7  13
ATOM     13  C   UNL     1      37.895 -25.547 -13.682  0.00  0.00    +0.088 C 
ATOM     14  C   UNL     1      37.079 -26.770 -14.105  0.00  0.00    +0.024 C 
ATOM     15  C   UNL     1      39.359 -25.713 -14.085  0.00  0.00    +0.024 C 
ATOM     16  C   UNL     1      37.774 -25.307 -12.177  0.00  0.00    +0.024 C 
ENDBRANCH   7  13
BRANCH   9  18
ATOM     17  N   UNL     1      33.190 -23.806 -12.426  0.00  0.00    -0.171 NA
ATOM     18  C   UNL     1      34.245 -24.209 -12.693  0.00  0.00    +0.184 C 
ENDBRANCH   9  18
ENDBRANCH   2   8
BRANCH   1  19
ATOM     19  C   UNL     1      34.533 -21.023 -19.072  0.00  0.00    -0.003 C 
ATOM     20  C   UNL     1      33.462 -21.843 -19.149  0.00  0.00    -0.026 C 
BRANCH  19  22
ATOM     21  N   UNL     1      34.038 -18.881 -22.123  0.00  0.00    -0.242 NA
ATOM     22  C   UNL     1      34.819 -20.076 -20.171  0.00  0.00    +0.019 C 
ATOM     23  C   UNL     1      36.076 -19.499 -20.312  0.00  0.00    +0.003 C 
ATOM     24  C   UNL     1      33.843 -19.737 -21.095  0.00  0.00    +0.099 C 
ATOM     25  C   UNL     1      36.316 -18.613 -21.357  0.00  0.00    +0.021 C 
ATOM     26  C   UNL     1      35.272 -18.340 -22.227  0.00  0.00    +0.099 C 
ENDBRANCH  19  22
BRANCH  20  27
ATOM     27  C   UNL     1      33.021 -22.881 -18.149  0.00  0.00    +0.027 C 
BRANCH  27  28
ATOM     28  C   UNL     1      31.886 -22.343 -17.272  0.00  0.00    +0.016 C 
BRANCH  28  29
ATOM     29  C   UNL     1      31.768 -23.097 -15.947  0.00  0.00    +0.110 C 
BRANCH  29  31
ATOM     30  O   UNL     1      29.634 -22.329 -15.057  0.00  0.00    -0.250 OA
ATOM     31  C   UNL     1      30.849 -22.416 -14.955  0.00  0.00    +0.314 C 
BRANCH  31  32
ATOM     32  O   UNL     1      31.543 -21.916 -13.899  0.00  0.00    -0.480 OA
ATOM     33  H   UNL     1      32.460 -21.741 -13.981  0.00  0.00    +0.295 HD
ENDBRANCH  31  32
ENDBRANCH  29  31
ENDBRANCH  28  29
ENDBRANCH  27  28
ENDBRANCH  20  27
ENDBRANCH   1  19
TORSDOF 10
ENDMDL
MODEL 2
REMARK VINA RESULT:     -10.4      3.132      5.477
REMARK  Name = 6449876
REMARK  10 active torsions:
REMARK  status: ('A' for Active; 'I' for Inactive)
REMARK    1  A    between atoms: C_1  and  C_19
REMARK    2  A    between atoms: C_2  and  N_8
REMARK    3  A    between atoms: N_7  and  C_13
REMARK    4  A    between atoms: N_9  and  C_18
REMARK    5  A    between atoms: C_19  and  C_22
REMARK    6  A    between atoms: C_20  and  C_27
REMARK    7  A    between atoms: C_27  and  C_28
REMARK    8  A    between atoms: C_28  and  C_29
REMARK    9  A    between atoms: C_29  and  C_31
REMARK   10  A    between atoms: C_31  and  O_32
REMARK                            x       y       z     vdW  Elec       q    Type
REMARK                         _______ _______ _______ _____ _____    ______ ____
ROOT
ATOM      1  C   UNL     1      35.245 -21.773 -17.025  0.00  0.00    +0.001 C 
ATOM      2  C   UNL     1      37.187 -22.461 -15.763  0.00  0.00    +0.059 C 
ATOM      3  C   UNL     1      35.890 -22.706 -16.212  0.00  0.00    +0.017 C 
ATOM      4  C   UNL     1      35.900 -20.595 -17.389  0.00  0.00    +0.000 C 
ATOM      5  C   UNL     1      37.841 -21.284 -16.127  0.00  0.00    +0.017 C 
ATOM      6  C   UNL     1      37.198 -20.351 -16.940  0.00  0.00    +0.001 C 
ENDROOT
BRANCH   2   8
ATOM      7  N   UNL     1      36.346 -23.686 -13.087  0.00  0.00    -0.243 NA
ATOM      8  N   UNL     1      37.839 -23.404 -14.942  0.00  0.00    -0.324 N 
ATOM      9  N   UNL     1      38.404 -24.841 -13.127  0.00  0.00    -0.263 N 
ATOM     10  C   UNL     1      37.441 -23.949 -13.729  0.00  0.00    +0.211 C 
ATOM     11  H   UNL     1      38.707 -23.725 -15.280  0.00  0.00    +0.169 HD
ATOM     12  H   UNL     1      38.244 -25.250 -12.246  0.00  0.00    +0.181 HD
BRANCH   7  13
ATOM     13  C   UNL     1      36.157 -24.316 -11.787  0.00  0.00    +0.088 C 
ATOM     14  C   UNL     1      37.009 -23.569 -10.761  0.00  0.00    +0.024 C 
ATOM     15  C   UNL     1      34.674 -24.216 -11.429  0.00  0.00    +0.024 C 
ATOM     16  C   UNL     1      36.588 -25.779 -11.891  0.00  0.00    +0.024 C 
ENDBRANCH   7  13
BRANCH   9  18
ATOM     17  N   UNL     1      40.499 -25.296 -14.419  0.00  0.00    -0.171 NA
ATOM     18  C   UNL     1      39.526 -25.090 -13.821  0.00  0.00    +0.184 C 
ENDBRANCH   9  18
ENDBRANCH   2   8
BRANCH   1  19
ATOM     19  C   UNL     1      33.865 -22.033 -17.504  0.00  0.00    -0.003 C 
ATOM     20  C   UNL     1      33.590 -21.776 -18.802  0.00  0.00    -0.026 C 
BRANCH  19  22
ATOM     21  N   UNL     1      32.185 -23.646 -14.551  0.00  0.00    -0.242 NA
ATOM     22  C   UNL     1      32.800 -22.535 -16.609  0.00  0.00    +0.019 C 
ATOM     23  C   UNL     1      31.457 -22.392 -16.941  0.00  0.00    +0.003 C 
ATOM     24  C   UNL     1      33.108 -23.164 -15.413  0.00  0.00    +0.099 C 
ATOM     25  C   UNL     1      30.478 -22.874 -16.080  0.00  0.00    +0.021 C 
ATOM     26  C   UNL     1      30.891 -23.489 -14.908  0.00  0.00    +0.099 C 
ENDBRANCH  19  22
BRANCH  20  27
ATOM     27  C   UNL     1      34.528 -21.246 -19.856  0.00  0.00    +0.027 C 
BRANCH  27  28
ATOM     28  C   UNL     1      34.038 -19.896 -20.391  0.00  0.00    +0.016 C 
BRANCH  28  29
ATOM     29  C   UNL     1      34.974 -19.319 -21.454  0.00  0.00    +0.110 C 
BRANCH  29  31
ATOM     30  O   UNL     1      35.192 -17.082 -20.513  0.00  0.00    -0.250 OA
ATOM     31  C   UNL     1      35.711 -18.082 -20.988  0.00  0.00    +0.314 C 
BRANCH  31  32
ATOM     32  O   UNL     1      37.054 -18.218 -21.142  0.00  0.00    -0.480 OA
ATOM     33  H   UNL     1      37.403 -18.546 -21.948  0.00  0.00    +0.295 HD
ENDBRANCH  31  32
ENDBRANCH  29  31
ENDBRANCH  28  29
ENDBRANCH  27  28
ENDBRANCH  20  27
ENDBRANCH   1  19
TORSDOF 10
ENDMDL
MODEL 3
REMARK VINA RESULT:     -10.4      1.282      2.084
REMARK  Name = 6449876
REMARK  10 active torsions:
REMARK  status: ('A' for Active; 'I' for Inactive)
REMARK    1  A    between atoms: C_1  and  C_19
REMARK    2  A    between atoms: C_2  and  N_8
REMARK    3  A    between atoms: N_7  and  C_13
REMARK    4  A    between atoms: N_9  and  C_18
REMARK    5  A    between atoms: C_19  and  C_22
REMARK    6  A    between atoms: C_20  and  C_27
REMARK    7  A    between atoms: C_27  and  C_28
REMARK    8  A    between atoms: C_28  and  C_29
REMARK    9  A    between atoms: C_29  and  C_31
REMARK   10  A    between atoms: C_31  and  O_32
REMARK                            x       y       z     vdW  Elec       q    Type
REMARK                         _______ _______ _______ _____ _____    ______ ____
ROOT
ATOM      1  C   UNL     1      35.584 -21.045 -18.072  0.00  0.00    +0.001 C 
ATOM      2  C   UNL     1      36.362 -22.497 -16.304  0.00  0.00    +0.059 C 
ATOM      3  C   UNL     1      35.514 -22.258 -17.385  0.00  0.00    +0.017 C 
ATOM      4  C   UNL     1      36.505 -20.072 -17.677  0.00  0.00    +0.000 C 
ATOM      5  C   UNL     1      37.281 -21.525 -15.910  0.00  0.00    +0.017 C 
ATOM      6  C   UNL     1      37.353 -20.313 -16.595  0.00  0.00    +0.001 C 
ENDROOT
BRANCH   2   8
ATOM      7  N   UNL     1      36.264 -23.078 -13.300  0.00  0.00    -0.243 NA
ATOM      8  N   UNL     1      36.292 -23.723 -15.611  0.00  0.00    -0.324 N 
ATOM      9  N   UNL     1      36.254 -25.365 -13.885  0.00  0.00    -0.263 N 
ATOM     10  C   UNL     1      36.248 -23.967 -14.245  0.00  0.00    +0.211 C 
ATOM     11  H   UNL     1      36.271 -24.526 -16.180  0.00  0.00    +0.169 HD
ATOM     12  H   UNL     1      36.269 -25.653 -12.943  0.00  0.00    +0.181 HD
BRANCH   7  13
ATOM     13  C   UNL     1      36.286 -23.555 -11.924  0.00  0.00    +0.088 C 
ATOM     14  C   UNL     1      37.440 -24.546 -11.776  0.00  0.00    +0.024 C 
ATOM     15  C   UNL     1      36.495 -22.346 -11.012  0.00  0.00    +0.024 C 
ATOM     16  C   UNL     1      34.947 -24.230 -11.625  0.00  0.00    +0.024 C 
ENDBRANCH   7  13
BRANCH   9  18
ATOM     17  N   UNL     1      36.218 -27.021 -15.761  0.00  0.00    -0.171 NA
ATOM     18  C   UNL     1      36.237 -26.257 -14.888  0.00  0.00    +0.184 C 
ENDBRANCH   9  18
ENDBRANCH   2   8
BRANCH   1  19
ATOM     19  C   UNL     1      34.683 -20.790 -19.223  0.00  0.00    -0.003 C 
ATOM     20  C   UNL     1      33.522 -21.479 -19.279  0.00  0.00    -0.026 C 
BRANCH  19  22
ATOM     21  N   UNL     1      34.351 -18.623 -22.278  0.00  0.00    -0.242 NA
ATOM     22  C   UNL     1      35.028 -19.836 -20.299  0.00  0.00    +0.019 C 
ATOM     23  C   UNL     1      36.293 -19.263 -20.372  0.00  0.00    +0.003 C 
ATOM     24  C   UNL     1      34.101 -19.486 -21.269  0.00  0.00    +0.099 C 
ATOM     25  C   UNL     1      36.588 -18.370 -21.396  0.00  0.00    +0.021 C 
ATOM     26  C   UNL     1      35.591 -18.086 -22.316  0.00  0.00    +0.099 C 
ENDBRANCH  19  22
BRANCH  20  27
ATOM     27  C   UNL     1      33.008 -22.501 -18.298  0.00  0.00    +0.027 C 
BRANCH  27  28
ATOM     28  C   UNL     1      31.842 -21.934 -17.482  0.00  0.00    +0.016 C 
BRANCH  28  29
ATOM     29  C   UNL     1      31.507 -22.801 -16.268  0.00  0.00    +0.110 C 
BRANCH  29  31
ATOM     30  O   UNL     1      29.553 -23.220 -14.873  0.00  0.00    -0.250 OA
ATOM     31  C   UNL     1      30.040 -22.760 -15.895  0.00  0.00    +0.314 C 
BRANCH  31  32
ATOM     32  O   UNL     1      29.307 -22.120 -16.843  0.00  0.00    -0.480 OA
ATOM     33  H   UNL     1      29.508 -21.234 -17.073  0.00  0.00    +0.295 HD
ENDBRANCH  31  32
ENDBRANCH  29  31
ENDBRANCH  28  29
ENDBRANCH  27  28
ENDBRANCH  20  27
ENDBRANCH   1  19
TORSDOF 10
ENDMDL
MODEL 4
REMARK VINA RESULT:     -10.2      3.289      8.137
REMARK  Name = 6449876
REMARK  10 active torsions:
REMARK  status: ('A' for Active; 'I' for Inactive)
REMARK    1  A    between atoms: C_1  and  C_19
REMARK    2  A    between atoms: C_2  and  N_8
REMARK    3  A    between atoms: N_7  and  C_13
REMARK    4  A    between atoms: N_9  and  C_18
REMARK    5  A    between atoms: C_19  and  C_22
REMARK    6  A    between atoms: C_20  and  C_27
REMARK    7  A    between atoms: C_27  and  C_28
REMARK    8  A    between atoms: C_28  and  C_29
REMARK    9  A    between atoms: C_29  and  C_31
REMARK   10  A    between atoms: C_31  and  O_32
REMARK                            x       y       z     vdW  Elec       q    Type
REMARK                         _______ _______ _______ _____ _____    ______ ____
ROOT
ATOM      1  C   UNL     1      35.250 -22.695 -15.838  0.00  0.00    +0.001 C 
ATOM      2  C   UNL     1      34.991 -21.392 -17.856  0.00  0.00    +0.059 C 
ATOM      3  C   UNL     1      34.455 -22.248 -16.894  0.00  0.00    +0.017 C 
ATOM      4  C   UNL     1      36.581 -22.284 -15.744  0.00  0.00    +0.000 C 
ATOM      5  C   UNL     1      36.321 -20.982 -17.763  0.00  0.00    +0.017 C 
ATOM      6  C   UNL     1      37.116 -21.428 -16.708  0.00  0.00    +0.001 C 
ENDROOT
BRANCH   2   8
ATOM      7  N   UNL     1      35.641 -19.492 -20.166  0.00  0.00    -0.243 NA
ATOM      8  N   UNL     1      34.188 -20.940 -18.923  0.00  0.00    -0.324 N 
ATOM      9  N   UNL     1      33.398 -19.774 -20.846  0.00  0.00    -0.263 N 
ATOM     10  C   UNL     1      34.501 -20.076 -19.963  0.00  0.00    +0.211 C 
ATOM     11  H   UNL     1      33.267 -21.289 -18.932  0.00  0.00    +0.169 HD
ATOM     12  H   UNL     1      33.496 -19.139 -21.591  0.00  0.00    +0.181 HD
BRANCH   7  13
ATOM     13  C   UNL     1      35.734 -18.561 -21.283  0.00  0.00    +0.088 C 
ATOM     14  C   UNL     1      35.059 -19.197 -22.498  0.00  0.00    +0.024 C 
ATOM     15  C   UNL     1      35.015 -17.274 -20.882  0.00  0.00    +0.024 C 
ATOM     16  C   UNL     1      37.212 -18.287 -21.562  0.00  0.00    +0.024 C 
ENDBRANCH   7  13
BRANCH   9  18
ATOM     17  N   UNL     1      31.224 -20.929 -20.393  0.00  0.00    -0.171 NA
ATOM     18  C   UNL     1      32.233 -20.398 -20.606  0.00  0.00    +0.184 C 
ENDBRANCH   9  18
ENDBRANCH   2   8
BRANCH   1  19
ATOM     19  C   UNL     1      34.681 -23.605 -14.813  0.00  0.00    -0.003 C 
ATOM     20  C   UNL     1      35.459 -24.616 -14.366  0.00  0.00    -0.026 C 
BRANCH  19  22
ATOM     21  N   UNL     1      31.533 -24.257 -12.863  0.00  0.00    -0.242 NA
ATOM     22  C   UNL     1      33.304 -23.448 -14.296  0.00  0.00    +0.019 C 
ATOM     23  C   UNL     1      32.493 -22.402 -14.720  0.00  0.00    +0.003 C 
ATOM     24  C   UNL     1      32.781 -24.341 -13.374  0.00  0.00    +0.099 C 
ATOM     25  C   UNL     1      31.203 -22.281 -14.217  0.00  0.00    +0.021 C 
ATOM     26  C   UNL     1      30.774 -23.227 -13.299  0.00  0.00    +0.099 C 
ENDBRANCH  19  22
BRANCH  20  27
ATOM     27  C   UNL     1      36.868 -24.949 -14.783  0.00  0.00    +0.027 C 
BRANCH  27  28
ATOM     28  C   UNL     1      37.699 -25.403 -13.580  0.00  0.00    +0.016 C 
BRANCH  28  29
ATOM     29  C   UNL     1      39.108 -24.807 -13.588  0.00  0.00    +0.110 C 
BRANCH  29  31
ATOM     30  O   UNL     1      40.885 -26.468 -13.730  0.00  0.00    -0.250 OA
ATOM     31  C   UNL     1      40.122 -25.690 -14.284  0.00  0.00    +0.314 C 
BRANCH  31  32
ATOM     32  O   UNL     1      40.074 -25.531 -15.633  0.00  0.00    -0.480 OA
ATOM     33  H   UNL     1      39.518 -24.877 -16.008  0.00  0.00    +0.295 HD
ENDBRANCH  31  32
ENDBRANCH  29  31
ENDBRANCH  28  29
ENDBRANCH  27  28
ENDBRANCH  20  27
ENDBRANCH   1  19
TORSDOF 10
ENDMDL
MODEL 5
REMARK VINA RESULT:      -9.8      1.947      7.482
REMARK  Name = 6449876
REMARK  10 active torsions:
REMARK  status: ('A' for Active; 'I' for Inactive)
REMARK    1  A    between atoms: C_1  and  C_19
REMARK    2  A    between atoms: C_2  and  N_8
REMARK    3  A    between atoms: N_7  and  C_13
REMARK    4  A    between atoms: N_9  and  C_18
REMARK    5  A    between atoms: C_19  and  C_22
REMARK    6  A    between atoms: C_20  and  C_27
REMARK    7  A    between atoms: C_27  and  C_28
REMARK    8  A    between atoms: C_28  and  C_29
REMARK    9  A    between atoms: C_29  and  C_31
REMARK   10  A    between atoms: C_31  and  O_32
REMARK                            x       y       z     vdW  Elec       q    Type
REMARK                         _______ _______ _______ _____ _____    ______ ____
ROOT
ATOM      1  C   UNL     1      35.521 -22.584 -15.762  0.00  0.00    +0.001 C 
ATOM      2  C   UNL     1      35.166 -21.324 -17.793  0.00  0.00    +0.059 C 
ATOM      3  C   UNL     1      34.684 -22.180 -16.804  0.00  0.00    +0.017 C 
ATOM      4  C   UNL     1      36.838 -22.128 -15.710  0.00  0.00    +0.000 C 
ATOM      5  C   UNL     1      36.483 -20.868 -17.741  0.00  0.00    +0.017 C 
ATOM      6  C   UNL     1      37.320 -21.270 -16.700  0.00  0.00    +0.001 C 
ENDROOT
BRANCH   2   8
ATOM      7  N   UNL     1      35.697 -19.451 -20.156  0.00  0.00    -0.243 NA
ATOM      8  N   UNL     1      34.321 -20.915 -18.846  0.00  0.00    -0.324 N 
ATOM      9  N   UNL     1      33.446 -19.811 -20.767  0.00  0.00    -0.263 N 
ATOM     10  C   UNL     1      34.580 -20.064 -19.911  0.00  0.00    +0.211 C 
ATOM     11  H   UNL     1      33.411 -21.290 -18.822  0.00  0.00    +0.169 HD
ATOM     12  H   UNL     1      33.505 -19.189 -21.527  0.00  0.00    +0.181 HD
BRANCH   7  13
ATOM     13  C   UNL     1      35.733 -18.541 -21.293  0.00  0.00    +0.088 C 
ATOM     14  C   UNL     1      35.007 -17.254 -20.901  0.00  0.00    +0.024 C 
ATOM     15  C   UNL     1      37.199 -18.254 -21.617  0.00  0.00    +0.024 C 
ATOM     16  C   UNL     1      35.042 -19.217 -22.476  0.00  0.00    +0.024 C 
ENDBRANCH   7  13
BRANCH   9  18
ATOM     17  N   UNL     1      31.317 -21.018 -20.242  0.00  0.00    -0.171 NA
ATOM     18  C   UNL     1      32.306 -20.463 -20.483  0.00  0.00    +0.184 C 
ENDBRANCH   9  18
ENDBRANCH   2   8
BRANCH   1  19
ATOM     19  C   UNL     1      35.008 -23.495 -14.708  0.00  0.00    -0.003 C 
ATOM     20  C   UNL     1      33.668 -23.596 -14.561  0.00  0.00    -0.026 C 
BRANCH  19  22
ATOM     21  N   UNL     1      37.252 -26.236 -13.449  0.00  0.00    -0.242 NA
ATOM     22  C   UNL     1      35.909 -24.260 -13.821  0.00  0.00    +0.019 C 
ATOM     23  C   UNL     1      36.263 -23.775 -12.567  0.00  0.00    +0.003 C 
ATOM     24  C   UNL     1      36.426 -25.486 -14.211  0.00  0.00    +0.099 C 
ATOM     25  C   UNL     1      37.111 -24.519 -11.753  0.00  0.00    +0.021 C 
ATOM     26  C   UNL     1      37.574 -25.732 -12.237  0.00  0.00    +0.099 C 
ENDBRANCH  19  22
BRANCH  20  27
ATOM     27  C   UNL     1      32.597 -22.886 -15.348  0.00  0.00    +0.027 C 
BRANCH  27  28
ATOM     28  C   UNL     1      31.409 -22.528 -14.450  0.00  0.00    +0.016 C 
BRANCH  28  29
ATOM     29  C   UNL     1      30.222 -23.471 -14.655  0.00  0.00    +0.110 C 
BRANCH  29  31
ATOM     30  O   UNL     1      30.909 -24.699 -12.665  0.00  0.00    -0.250 OA
ATOM     31  C   UNL     1      30.133 -24.551 -13.598  0.00  0.00    +0.314 C 
BRANCH  31  32
ATOM     32  O   UNL     1      29.050 -25.349 -13.795  0.00  0.00    -0.480 OA
ATOM     33  H   UNL     1      29.078 -26.023 -14.445  0.00  0.00    +0.295 HD
ENDBRANCH  31  32
ENDBRANCH  29  31
ENDBRANCH  28  29
ENDBRANCH  27  28
ENDBRANCH  20  27
ENDBRANCH   1  19
TORSDOF 10
ENDMDL
MODEL 6
REMARK VINA RESULT:      -9.7      2.719      4.296
REMARK  Name = 6449876
REMARK  10 active torsions:
REMARK  status: ('A' for Active; 'I' for Inactive)
REMARK    1  A    between atoms: C_1  and  C_19
REMARK    2  A    between atoms: C_2  and  N_8
REMARK    3  A    between atoms: N_7  and  C_13
REMARK    4  A    between atoms: N_9  and  C_18
REMARK    5  A    between atoms: C_19  and  C_22
REMARK    6  A    between atoms: C_20  and  C_27
REMARK    7  A    between atoms: C_27  and  C_28
REMARK    8  A    between atoms: C_28  and  C_29
REMARK    9  A    between atoms: C_29  and  C_31
REMARK   10  A    between atoms: C_31  and  O_32
REMARK                            x       y       z     vdW  Elec       q    Type
REMARK                         _______ _______ _______ _____ _____    ______ ____
ROOT
ATOM      1  C   UNL     1      32.090 -22.759 -15.708  0.00  0.00    +0.001 C 
ATOM      2  C   UNL     1      33.740 -24.187 -14.672  0.00  0.00    +0.059 C 
ATOM      3  C   UNL     1      33.207 -23.588 -15.813  0.00  0.00    +0.017 C 
ATOM      4  C   UNL     1      31.508 -22.527 -14.461  0.00  0.00    +0.000 C 
ATOM      5  C   UNL     1      33.158 -23.956 -13.425  0.00  0.00    +0.017 C 
ATOM      6  C   UNL     1      32.042 -23.126 -13.320  0.00  0.00    +0.001 C 
ENDROOT
BRANCH   2   8
ATOM      7  N   UNL     1      36.351 -24.214 -13.074  0.00  0.00    -0.243 NA
ATOM      8  N   UNL     1      34.869 -25.025 -14.777  0.00  0.00    -0.324 N 
ATOM      9  N   UNL     1      37.028 -25.989 -14.476  0.00  0.00    -0.263 N 
ATOM     10  C   UNL     1      36.046 -25.022 -14.042  0.00  0.00    +0.211 C 
ATOM     11  H   UNL     1      34.815 -25.717 -15.476  0.00  0.00    +0.169 HD
ATOM     12  H   UNL     1      37.915 -26.044 -14.054  0.00  0.00    +0.181 HD
BRANCH   7  13
ATOM     13  C   UNL     1      37.677 -24.337 -12.483  0.00  0.00    +0.088 C 
ATOM     14  C   UNL     1      38.712 -24.279 -13.606  0.00  0.00    +0.024 C 
ATOM     15  C   UNL     1      37.868 -23.170 -11.515  0.00  0.00    +0.024 C 
ATOM     16  C   UNL     1      37.753 -25.670 -11.740  0.00  0.00    +0.024 C 
ENDBRANCH   7  13
BRANCH   9  18
ATOM     17  N   UNL     1      36.366 -27.517 -16.344  0.00  0.00    -0.171 NA
ATOM     18  C   UNL     1      36.678 -26.809 -15.480  0.00  0.00    +0.184 C 
ENDBRANCH   9  18
ENDBRANCH   2   8
BRANCH   1  19
ATOM     19  C   UNL     1      31.523 -22.120 -16.922  0.00  0.00    -0.003 C 
ATOM     20  C   UNL     1      30.178 -22.008 -17.005  0.00  0.00    -0.026 C 
BRANCH  19  22
ATOM     21  N   UNL     1      34.536 -21.605 -19.111  0.00  0.00    -0.242 NA
ATOM     22  C   UNL     1      32.374 -21.635 -18.029  0.00  0.00    +0.019 C 
ATOM     23  C   UNL     1      31.866 -20.784 -19.005  0.00  0.00    +0.003 C 
ATOM     24  C   UNL     1      33.704 -22.012 -18.127  0.00  0.00    +0.099 C 
ATOM     25  C   UNL     1      32.690 -20.343 -20.034  0.00  0.00    +0.021 C 
ATOM     26  C   UNL     1      34.006 -20.778 -20.041  0.00  0.00    +0.099 C 
ENDBRANCH  19  22
BRANCH  20  27
ATOM     27  C   UNL     1      29.151 -22.458 -15.997  0.00  0.00    +0.027 C 
BRANCH  27  28
ATOM     28  C   UNL     1      27.836 -22.829 -16.690  0.00  0.00    +0.016 C 
BRANCH  28  29
ATOM     29  C   UNL     1      26.676 -21.935 -16.250  0.00  0.00    +0.110 C 
BRANCH  29  31
ATOM     30  O   UNL     1      25.683 -20.056 -17.442  0.00  0.00    -0.250 OA
ATOM     31  C   UNL     1      25.992 -21.238 -17.407  0.00  0.00    +0.314 C 
BRANCH  31  32
ATOM     32  O   UNL     1      25.771 -22.093 -18.440  0.00  0.00    -0.480 OA
ATOM     33  H   UNL     1      24.902 -22.394 -18.621  0.00  0.00    +0.295 HD
ENDBRANCH  31  32
ENDBRANCH  29  31
ENDBRANCH  28  29
ENDBRANCH  27  28
ENDBRANCH  20  27
ENDBRANCH   1  19
TORSDOF 10
ENDMDL
MODEL 7
REMARK VINA RESULT:      -9.6      3.026      4.917
REMARK  Name = 6449876
REMARK  10 active torsions:
REMARK  status: ('A' for Active; 'I' for Inactive)
REMARK    1  A    between atoms: C_1  and  C_19
REMARK    2  A    between atoms: C_2  and  N_8
REMARK    3  A    between atoms: N_7  and  C_13
REMARK    4  A    between atoms: N_9  and  C_18
REMARK    5  A    between atoms: C_19  and  C_22
REMARK    6  A    between atoms: C_20  and  C_27
REMARK    7  A    between atoms: C_27  and  C_28
REMARK    8  A    between atoms: C_28  and  C_29
REMARK    9  A    between atoms: C_29  and  C_31
REMARK   10  A    between atoms: C_31  and  O_32
REMARK                            x       y       z     vdW  Elec       q    Type
REMARK                         _______ _______ _______ _____ _____    ______ ____
ROOT
ATOM      1  C   UNL     1      34.415 -21.824 -17.190  0.00  0.00    +0.001 C 
ATOM      2  C   UNL     1      35.997 -22.214 -15.406  0.00  0.00    +0.059 C 
ATOM      3  C   UNL     1      34.710 -22.340 -15.927  0.00  0.00    +0.017 C 
ATOM      4  C   UNL     1      35.409 -21.183 -17.931  0.00  0.00    +0.000 C 
ATOM      5  C   UNL     1      36.990 -21.573 -16.146  0.00  0.00    +0.017 C 
ATOM      6  C   UNL     1      36.696 -21.057 -17.408  0.00  0.00    +0.001 C 
ENDROOT
BRANCH   2   8
ATOM      7  N   UNL     1      37.827 -24.526 -14.583  0.00  0.00    -0.243 NA
ATOM      8  N   UNL     1      36.296 -22.736 -14.130  0.00  0.00    -0.324 N 
ATOM      9  N   UNL     1      37.140 -24.096 -12.365  0.00  0.00    -0.263 N 
ATOM     10  C   UNL     1      37.130 -23.787 -13.776  0.00  0.00    +0.211 C 
ATOM     11  H   UNL     1      35.845 -22.287 -13.378  0.00  0.00    +0.169 HD
ATOM     12  H   UNL     1      37.663 -24.850 -12.009  0.00  0.00    +0.181 HD
BRANCH   7  13
ATOM     13  C   UNL     1      38.583 -25.629 -14.006  0.00  0.00    +0.088 C 
ATOM     14  C   UNL     1      37.806 -26.923 -14.246  0.00  0.00    +0.024 C 
ATOM     15  C   UNL     1      39.942 -25.681 -14.703  0.00  0.00    +0.024 C 
ATOM     16  C   UNL     1      38.755 -25.367 -12.510  0.00  0.00    +0.024 C 
ENDBRANCH   7  13
BRANCH   9  18
ATOM     17  N   UNL     1      35.766 -22.633 -10.871  0.00  0.00    -0.171 NA
ATOM     18  C   UNL     1      36.407 -23.310 -11.561  0.00  0.00    +0.184 C 
ENDBRANCH   9  18
ENDBRANCH   2   8
BRANCH   1  19
ATOM     19  C   UNL     1      33.045 -21.959 -17.746  0.00  0.00    -0.003 C 
ATOM     20  C   UNL     1      32.859 -21.640 -19.046  0.00  0.00    -0.026 C 
BRANCH  19  22
ATOM     21  N   UNL     1      29.516 -22.376 -16.518  0.00  0.00    -0.242 NA
ATOM     22  C   UNL     1      31.900 -22.403 -16.924  0.00  0.00    +0.019 C 
ATOM     23  C   UNL     1      32.085 -23.228 -15.820  0.00  0.00    +0.003 C 
ATOM     24  C   UNL     1      30.606 -22.008 -17.227  0.00  0.00    +0.099 C 
ATOM     25  C   UNL     1      30.988 -23.628 -15.065  0.00  0.00    +0.021 C 
ATOM     26  C   UNL     1      29.736 -23.178 -15.452  0.00  0.00    +0.099 C 
ENDBRANCH  19  22
BRANCH  20  27
ATOM     27  C   UNL     1      33.889 -21.153 -20.033  0.00  0.00    +0.027 C 
BRANCH  27  28
ATOM     28  C   UNL     1      33.543 -19.746 -20.531  0.00  0.00    +0.016 C 
BRANCH  28  29
ATOM     29  C   UNL     1      34.623 -19.172 -21.448  0.00  0.00    +0.110 C 
BRANCH  29  31
ATOM     30  O   UNL     1      35.025 -16.944 -20.546  0.00  0.00    -0.250 OA
ATOM     31  C   UNL     1      35.431 -18.070 -20.797  0.00  0.00    +0.314 C 
BRANCH  31  32
ATOM     32  O   UNL     1      36.689 -18.489 -20.496  0.00  0.00    -0.480 OA
ATOM     33  H   UNL     1      37.156 -19.037 -21.096  0.00  0.00    +0.295 HD
ENDBRANCH  31  32
ENDBRANCH  29  31
ENDBRANCH  28  29
ENDBRANCH  27  28
ENDBRANCH  20  27
ENDBRANCH   1  19
TORSDOF 10
ENDMDL
MODEL 8
REMARK VINA RESULT:      -9.4      3.145      5.838
REMARK  Name = 6449876
REMARK  10 active torsions:
REMARK  status: ('A' for Active; 'I' for Inactive)
REMARK    1  A    between atoms: C_1  and  C_19
REMARK    2  A    between atoms: C_2  and  N_8
REMARK    3  A    between atoms: N_7  and  C_13
REMARK    4  A    between atoms: N_9  and  C_18
REMARK    5  A    between atoms: C_19  and  C_22
REMARK    6  A    between atoms: C_20  and  C_27
REMARK    7  A    between atoms: C_27  and  C_28
REMARK    8  A    between atoms: C_28  and  C_29
REMARK    9  A    between atoms: C_29  and  C_31
REMARK   10  A    between atoms: C_31  and  O_32
REMARK                            x       y       z     vdW  Elec       q    Type
REMARK                         _______ _______ _______ _____ _____    ______ ____
ROOT
ATOM      1  C   UNL     1      31.562 -22.951 -15.131  0.00  0.00    +0.001 C 
ATOM      2  C   UNL     1      33.489 -24.147 -14.298  0.00  0.00    +0.059 C 
ATOM      3  C   UNL     1      32.705 -23.715 -15.368  0.00  0.00    +0.017 C 
ATOM      4  C   UNL     1      31.204 -22.618 -13.824  0.00  0.00    +0.000 C 
ATOM      5  C   UNL     1      33.132 -23.814 -12.992  0.00  0.00    +0.017 C 
ATOM      6  C   UNL     1      31.989 -23.050 -12.754  0.00  0.00    +0.001 C 
ENDROOT
BRANCH   2   8
ATOM      7  N   UNL     1      36.248 -24.057 -12.974  0.00  0.00    -0.243 NA
ATOM      8  N   UNL     1      34.645 -24.919 -14.537  0.00  0.00    -0.324 N 
ATOM      9  N   UNL     1      36.872 -25.765 -14.479  0.00  0.00    -0.263 N 
ATOM     10  C   UNL     1      35.890 -24.863 -13.925  0.00  0.00    +0.211 C 
ATOM     11  H   UNL     1      34.557 -25.599 -15.244  0.00  0.00    +0.169 HD
ATOM     12  H   UNL     1      37.800 -25.778 -14.151  0.00  0.00    +0.181 HD
BRANCH   7  13
ATOM     13  C   UNL     1      37.632 -24.116 -12.523  0.00  0.00    +0.088 C 
ATOM     14  C   UNL     1      37.855 -25.461 -11.831  0.00  0.00    +0.024 C 
ATOM     15  C   UNL     1      38.531 -23.988 -13.752  0.00  0.00    +0.024 C 
ATOM     16  C   UNL     1      37.875 -22.959 -11.555  0.00  0.00    +0.024 C 
ENDBRANCH   7  13
BRANCH   9  18
ATOM     17  N   UNL     1      36.120 -27.288 -16.318  0.00  0.00    -0.171 NA
ATOM     18  C   UNL     1      36.466 -26.585 -15.462  0.00  0.00    +0.184 C 
ENDBRANCH   9  18
ENDBRANCH   2   8
BRANCH   1  19
ATOM     19  C   UNL     1      30.728 -22.490 -16.269  0.00  0.00    -0.003 C 
ATOM     20  C   UNL     1      31.361 -22.115 -17.402  0.00  0.00    -0.026 C 
BRANCH  19  22
ATOM     21  N   UNL     1      27.103 -22.854 -17.199  0.00  0.00    -0.242 NA
ATOM     22  C   UNL     1      29.254 -22.413 -16.186  0.00  0.00    +0.019 C 
ATOM     23  C   UNL     1      28.626 -21.852 -15.080  0.00  0.00    +0.003 C 
ATOM     24  C   UNL     1      28.454 -22.896 -17.210  0.00  0.00    +0.099 C 
ATOM     25  C   UNL     1      27.237 -21.791 -15.031  0.00  0.00    +0.021 C 
ATOM     26  C   UNL     1      26.528 -22.302 -16.107  0.00  0.00    +0.099 C 
ENDBRANCH  19  22
BRANCH  20  27
ATOM     27  C   UNL     1      32.844 -22.103 -17.670  0.00  0.00    +0.027 C 
BRANCH  27  28
ATOM     28  C   UNL     1      33.157 -21.361 -18.973  0.00  0.00    +0.016 C 
BRANCH  28  29
ATOM     29  C   UNL     1      34.524 -21.740 -19.543  0.00  0.00    +0.110 C 
BRANCH  29  31
ATOM     30  O   UNL     1      36.279 -21.318 -17.906  0.00  0.00    -0.250 OA
ATOM     31  C   UNL     1      35.665 -20.976 -18.906  0.00  0.00    +0.314 C 
BRANCH  31  32
ATOM     32  O   UNL     1      35.952 -19.844 -19.601  0.00  0.00    -0.480 OA
ATOM     33  H   UNL     1      36.155 -19.893 -20.514  0.00  0.00    +0.295 HD
ENDBRANCH  31  32
ENDBRANCH  29  31
ENDBRANCH  28  29
ENDBRANCH  27  28
ENDBRANCH  20  27
ENDBRANCH   1  19
TORSDOF 10
ENDMDL
MODEL 9
REMARK VINA RESULT:      -9.1      2.397      5.160
REMARK  Name = 6449876
REMARK  10 active torsions:
REMARK  status: ('A' for Active; 'I' for Inactive)
REMARK    1  A    between atoms: C_1  and  C_19
REMARK    2  A    between atoms: C_2  and  N_8
REMARK    3  A    between atoms: N_7  and  C_13
REMARK    4  A    between atoms: N_9  and  C_18
REMARK    5  A    between atoms: C_19  and  C_22
REMARK    6  A    between atoms: C_20  and  C_27
REMARK    7  A    between atoms: C_27  and  C_28
REMARK    8  A    between atoms: C_28  and  C_29
REMARK    9  A    between atoms: C_29  and  C_31
REMARK   10  A    between atoms: C_31  and  O_32
REMARK                            x       y       z     vdW  Elec       q    Type
REMARK                         _______ _______ _______ _____ _____    ______ ____
ROOT
ATOM      1  C   UNL     1      33.942 -20.997 -18.860  0.00  0.00    +0.001 C 
ATOM      2  C   UNL     1      32.757 -22.184 -17.121  0.00  0.00    +0.059 C 
ATOM      3  C   UNL     1      33.954 -21.723 -17.669  0.00  0.00    +0.017 C 
ATOM      4  C   UNL     1      32.732 -20.730 -19.502  0.00  0.00    +0.000 C 
ATOM      5  C   UNL     1      31.548 -21.918 -17.763  0.00  0.00    +0.017 C 
ATOM      6  C   UNL     1      31.535 -21.191 -18.953  0.00  0.00    +0.001 C 
ENDROOT
BRANCH   2   8
ATOM      7  N   UNL     1      30.448 -23.323 -15.465  0.00  0.00    -0.243 NA
ATOM      8  N   UNL     1      32.768 -22.917 -15.917  0.00  0.00    -0.324 N 
ATOM      9  N   UNL     1      32.091 -24.070 -13.944  0.00  0.00    -0.263 N 
ATOM     10  C   UNL     1      31.709 -23.426 -15.179  0.00  0.00    +0.211 C 
ATOM     11  H   UNL     1      33.662 -23.095 -15.542  0.00  0.00    +0.169 HD
ATOM     12  H   UNL     1      31.418 -24.428 -13.322  0.00  0.00    +0.181 HD
BRANCH   7  13
ATOM     13  C   UNL     1      29.491 -23.869 -14.512  0.00  0.00    +0.088 C 
ATOM     14  C   UNL     1      29.820 -23.312 -13.126  0.00  0.00    +0.024 C 
ATOM     15  C   UNL     1      28.093 -23.432 -14.949  0.00  0.00    +0.024 C 
ATOM     16  C   UNL     1      29.609 -25.393 -14.528  0.00  0.00    +0.024 C 
ENDBRANCH   7  13
BRANCH   9  18
ATOM     17  N   UNL     1      34.539 -24.230 -13.446  0.00  0.00    -0.171 NA
ATOM     18  C   UNL     1      33.405 -24.159 -13.681  0.00  0.00    +0.184 C 
ENDBRANCH   9  18
ENDBRANCH   2   8
BRANCH   1  19
ATOM     19  C   UNL     1      35.215 -20.505 -19.443  0.00  0.00    -0.003 C 
ATOM     20  C   UNL     1      36.369 -20.897 -18.858  0.00  0.00    -0.026 C 
BRANCH  19  22
ATOM     21  N   UNL     1      34.156 -18.728 -22.583  0.00  0.00    -0.242 NA
ATOM     22  C   UNL     1      35.251 -19.599 -20.611  0.00  0.00    +0.019 C 
ATOM     23  C   UNL     1      36.352 -18.787 -20.855  0.00  0.00    +0.003 C 
ATOM     24  C   UNL     1      34.187 -19.533 -21.497  0.00  0.00    +0.099 C 
ATOM     25  C   UNL     1      36.357 -17.945 -21.962  0.00  0.00    +0.021 C 
ATOM     26  C   UNL     1      35.244 -17.954 -22.788  0.00  0.00    +0.099 C 
ENDBRANCH  19  22
BRANCH  20  27
ATOM     27  C   UNL     1      36.536 -21.793 -17.657  0.00  0.00    +0.027 C 
BRANCH  27  28
ATOM     28  C   UNL     1      36.972 -20.984 -16.431  0.00  0.00    +0.016 C 
BRANCH  28  29
ATOM     29  C   UNL     1      36.840 -21.781 -15.133  0.00  0.00    +0.110 C 
BRANCH  29  31
ATOM     30  O   UNL     1      38.742 -23.305 -15.120  0.00  0.00    -0.250 OA
ATOM     31  C   UNL     1      37.534 -23.125 -15.187  0.00  0.00    +0.314 C 
BRANCH  31  32
ATOM     32  O   UNL     1      36.639 -24.140 -15.302  0.00  0.00    -0.480 OA
ATOM     33  H   UNL     1      35.735 -23.952 -15.465  0.00  0.00    +0.295 HD
ENDBRANCH  31  32
ENDBRANCH  29  31
ENDBRANCH  28  29
ENDBRANCH  27  28
ENDBRANCH  20  27
ENDBRANCH   1  19
TORSDOF 10
ENDMDL
