MODEL 1
REMARK VINA RESULT:     -11.2      0.000      0.000
REMARK  Name = 16115747
REMARK  4 active torsions:
REMARK  status: ('A' for Active; 'I' for Inactive)
REMARK    1  A    between atoms: C_6  and  C_20
REMARK    2  A    between atoms: N_19  and  C_22
REMARK    3  A    between atoms: C_22  and  C_23
REMARK    4  A    between atoms: C_23  and  C_26
REMARK                            x       y       z     vdW  Elec       q    Type
REMARK                         _______ _______ _______ _____ _____    ______ ____
ROOT
ATOM      1  N   UNL     1      37.671 -24.251 -13.546  0.00  0.00    -0.279 N 
ATOM      2  N   UNL     1      35.297 -23.924 -13.553  0.00  0.00    -0.316 NA
ATOM      3  N   UNL     1      34.096 -23.754 -11.472  0.00  0.00    -0.336 NA
ATOM      4  N   UNL     1      32.992 -23.607 -13.514  0.00  0.00    -0.170 N 
ATOM      5  N   UNL     1      30.822 -23.307 -13.892  0.00  0.00    -0.224 NA
ATOM      6  C   UNL     1      37.791 -24.435 -14.992  0.00  0.00    +0.151 C 
ATOM      7  C   UNL     1      39.194 -25.018 -15.179  0.00  0.00    +0.031 C 
ATOM      8  C   UNL     1      39.977 -24.441 -14.009  0.00  0.00    +0.024 C 
ATOM      9  C   UNL     1      38.959 -24.428 -12.873  0.00  0.00    +0.093 C 
ATOM     10  C   UNL     1      36.478 -24.085 -12.869  0.00  0.00    +0.181 C 
ATOM     11  C   UNL     1      36.481 -24.082 -11.464  0.00  0.00    +0.131 C 
ATOM     12  C   UNL     1      35.270 -23.915 -10.825  0.00  0.00    +0.109 C 
ATOM     13  C   UNL     1      34.181 -23.768 -12.815  0.00  0.00    +0.212 C 
ATOM     14  C   UNL     1      35.221 -23.904  -9.334  0.00  0.00    +0.063 C 
ATOM     15  C   UNL     1      32.845 -23.589 -14.874  0.00  0.00    +0.104 C 
ATOM     16  C   UNL     1      31.748 -23.434 -12.969  0.00  0.00    +0.182 C 
ATOM     17  C   UNL     1      31.498 -23.404 -15.082  0.00  0.00    +0.118 C 
ENDROOT
BRANCH   6  20
ATOM     18  O   UNL     1      38.621 -22.319 -15.715  0.00  0.00    -0.273 OA
ATOM     19  N   UNL     1      36.427 -22.906 -16.228  0.00  0.00    -0.303 N 
ATOM     20  C   UNL     1      37.683 -23.111 -15.682  0.00  0.00    +0.241 C 
ATOM     21  H   UNL     1      35.754 -23.618 -16.136  0.00  0.00    +0.149 HD
BRANCH  19  22
ATOM     22  C   UNL     1      36.057 -21.696 -16.927  0.00  0.00    +0.094 C 
BRANCH  22  23
ATOM     23  C   UNL     1      34.818 -21.880 -17.800  0.00  0.00    +0.048 C 
BRANCH  23  26
ATOM     24  O   UNL     1      36.841 -18.633 -20.922  0.00  0.00    -0.435 OA
ATOM     25  O   UNL     1      34.757 -18.270 -22.076  0.00  0.00    -0.435 OA
ATOM     26  C   UNL     1      34.765 -20.913 -18.958  0.00  0.00    -0.017 C 
ATOM     27  C   UNL     1      35.924 -20.249 -19.338  0.00  0.00    +0.036 C 
ATOM     28  C   UNL     1      33.550 -20.711 -19.619  0.00  0.00    -0.001 C 
ATOM     29  C   UNL     1      35.825 -19.375 -20.402  0.00  0.00    +0.176 C 
ATOM     30  C   UNL     1      34.636 -19.168 -21.061  0.00  0.00    +0.176 C 
ATOM     31  C   UNL     1      33.478 -19.822 -20.692  0.00  0.00    +0.040 C 
ATOM     32  C   UNL     1      36.158 -17.936 -21.982  0.00  0.00    +0.429 C 
ENDBRANCH  23  26
ENDBRANCH  22  23
ENDBRANCH  19  22
ENDBRANCH   6  20
TORSDOF 4
ENDMDL
MODEL 2
REMARK VINA RESULT:     -10.9     11.512     16.192
REMARK  Name = 16115747
REMARK  4 active torsions:
REMARK  status: ('A' for Active; 'I' for Inactive)
REMARK    1  A    between atoms: C_6  and  C_20
REMARK    2  A    between atoms: N_19  and  C_22
REMARK    3  A    between atoms: C_22  and  C_23
REMARK    4  A    between atoms: C_23  and  C_26
REMARK                            x       y       z     vdW  Elec       q    Type
REMARK                         _______ _______ _______ _____ _____    ______ ____
ROOT
ATOM      1  N   UNL     1      31.384  -8.890 -21.212  0.00  0.00    -0.279 N 
ATOM      2  N   UNL     1      31.697  -6.990 -22.638  0.00  0.00    -0.316 NA
ATOM      3  N   UNL     1      32.077  -4.812 -21.680  0.00  0.00    -0.336 NA
ATOM      4  N   UNL     1      32.005  -5.118 -23.984  0.00  0.00    -0.170 N 
ATOM      5  N   UNL     1      32.252  -3.597 -25.587  0.00  0.00    -0.224 NA
ATOM      6  C   UNL     1      31.050  -9.821 -22.290  0.00  0.00    +0.151 C 
ATOM      7  C   UNL     1      30.458 -11.033 -21.567  0.00  0.00    +0.031 C 
ATOM      8  C   UNL     1      31.158 -11.018 -20.216  0.00  0.00    +0.024 C 
ATOM      9  C   UNL     1      31.285  -9.531 -19.899  0.00  0.00    +0.093 C 
ATOM     10  C   UNL     1      31.614  -7.539 -21.379  0.00  0.00    +0.181 C 
ATOM     11  C   UNL     1      31.763  -6.721 -20.246  0.00  0.00    +0.131 C 
ATOM     12  C   UNL     1      31.990  -5.377 -20.456  0.00  0.00    +0.109 C 
ATOM     13  C   UNL     1      31.923  -5.665 -22.710  0.00  0.00    +0.212 C 
ATOM     14  C   UNL     1      32.156  -4.468 -19.285  0.00  0.00    +0.063 C 
ATOM     15  C   UNL     1      31.879  -5.793 -25.168  0.00  0.00    +0.104 C 
ATOM     16  C   UNL     1      32.227  -3.801 -24.289  0.00  0.00    +0.182 C 
ATOM     17  C   UNL     1      32.035  -4.833 -26.141  0.00  0.00    +0.118 C 
ENDROOT
BRANCH   6  20
ATOM     18  O   UNL     1      33.176  -9.396 -23.284  0.00  0.00    -0.273 OA
ATOM     19  N   UNL     1      32.298 -11.551 -23.374  0.00  0.00    -0.303 N 
ATOM     20  C   UNL     1      32.295 -10.211 -23.025  0.00  0.00    +0.241 C 
ATOM     21  H   UNL     1      31.531 -12.107 -23.109  0.00  0.00    +0.149 HD
BRANCH  19  22
ATOM     22  C   UNL     1      33.376 -12.173 -24.109  0.00  0.00    +0.094 C 
BRANCH  22  23
ATOM     23  C   UNL     1      33.118 -13.652 -24.388  0.00  0.00    +0.048 C 
BRANCH  23  26
ATOM     24  O   UNL     1      35.222 -17.809 -22.752  0.00  0.00    -0.435 OA
ATOM     25  O   UNL     1      35.107 -17.099 -20.452  0.00  0.00    -0.435 OA
ATOM     26  C   UNL     1      33.645 -14.556 -23.301  0.00  0.00    -0.017 C 
ATOM     27  C   UNL     1      34.189 -15.786 -23.648  0.00  0.00    +0.036 C 
ATOM     28  C   UNL     1      33.572 -14.132 -21.970  0.00  0.00    -0.001 C 
ATOM     29  C   UNL     1      34.658 -16.577 -22.619  0.00  0.00    +0.176 C 
ATOM     30  C   UNL     1      34.592 -16.172 -21.306  0.00  0.00    +0.176 C 
ATOM     31  C   UNL     1      34.053 -14.953 -20.948  0.00  0.00    +0.040 C 
ATOM     32  C   UNL     1      35.504 -18.133 -21.377  0.00  0.00    +0.429 C 
ENDBRANCH  23  26
ENDBRANCH  22  23
ENDBRANCH  19  22
ENDBRANCH   6  20
TORSDOF 4
ENDMDL
MODEL 3
REMARK VINA RESULT:     -10.1      2.041      4.751
REMARK  Name = 16115747
REMARK  4 active torsions:
REMARK  status: ('A' for Active; 'I' for Inactive)
REMARK    1  A    between atoms: C_6  and  C_20
REMARK    2  A    between atoms: N_19  and  C_22
REMARK    3  A    between atoms: C_22  and  C_23
REMARK    4  A    between atoms: C_23  and  C_26
REMARK                            x       y       z     vdW  Elec       q    Type
REMARK                         _______ _______ _______ _____ _____    ______ ____
ROOT
ATOM      1  N   UNL     1      32.322 -23.665 -13.639  0.00  0.00    -0.279 N 
ATOM      2  N   UNL     1      34.401 -22.835 -14.495  0.00  0.00    -0.316 NA
ATOM      3  N   UNL     1      36.481 -23.797 -13.754  0.00  0.00    -0.336 NA
ATOM      4  N   UNL     1      36.442 -22.059 -15.298  0.00  0.00    -0.170 N 
ATOM      5  N   UNL     1      38.159 -21.054 -16.290  0.00  0.00    -0.224 NA
ATOM      6  C   UNL     1      31.490 -22.647 -14.281  0.00  0.00    +0.151 C 
ATOM      7  C   UNL     1      30.137 -22.773 -13.577  0.00  0.00    +0.031 C 
ATOM      8  C   UNL     1      30.081 -24.240 -13.175  0.00  0.00    +0.024 C 
ATOM      9  C   UNL     1      31.524 -24.559 -12.799  0.00  0.00    +0.093 C 
ATOM     10  C   UNL     1      33.702 -23.700 -13.686  0.00  0.00    +0.181 C 
ATOM     11  C   UNL     1      34.393 -24.632 -12.894  0.00  0.00    +0.131 C 
ATOM     12  C   UNL     1      35.771 -24.634 -12.968  0.00  0.00    +0.109 C 
ATOM     13  C   UNL     1      35.743 -22.937 -14.480  0.00  0.00    +0.212 C 
ATOM     14  C   UNL     1      36.549 -25.607 -12.147  0.00  0.00    +0.063 C 
ATOM     15  C   UNL     1      35.900 -21.106 -16.117  0.00  0.00    +0.104 C 
ATOM     16  C   UNL     1      37.802 -21.988 -15.438  0.00  0.00    +0.182 C 
ATOM     17  C   UNL     1      36.979 -20.499 -16.717  0.00  0.00    +0.118 C 
ENDROOT
BRANCH   6  20
ATOM     18  O   UNL     1      30.456 -23.685 -16.163  0.00  0.00    -0.273 OA
ATOM     19  N   UNL     1      32.333 -22.350 -16.501  0.00  0.00    -0.303 N 
ATOM     20  C   UNL     1      31.348 -22.956 -15.739  0.00  0.00    +0.241 C 
ATOM     21  H   UNL     1      32.997 -21.785 -16.045  0.00  0.00    +0.149 HD
BRANCH  19  22
ATOM     22  C   UNL     1      32.433 -22.508 -17.934  0.00  0.00    +0.094 C 
BRANCH  22  23
ATOM     23  C   UNL     1      33.862 -22.339 -18.444  0.00  0.00    +0.048 C 
BRANCH  23  26
ATOM     24  O   UNL     1      36.541 -18.998 -20.902  0.00  0.00    -0.435 OA
ATOM     25  O   UNL     1      34.586 -17.977 -21.874  0.00  0.00    -0.435 OA
ATOM     26  C   UNL     1      34.020 -21.161 -19.374  0.00  0.00    -0.017 C 
ATOM     27  C   UNL     1      35.295 -20.686 -19.652  0.00  0.00    +0.036 C 
ATOM     28  C   UNL     1      32.878 -20.578 -19.931  0.00  0.00    -0.001 C 
ATOM     29  C   UNL     1      35.388 -19.606 -20.508  0.00  0.00    +0.176 C 
ATOM     30  C   UNL     1      34.273 -19.024 -21.063  0.00  0.00    +0.176 C 
ATOM     31  C   UNL     1      33.001 -19.487 -20.794  0.00  0.00    +0.040 C 
ATOM     32  C   UNL     1      36.025 -17.967 -21.767  0.00  0.00    +0.429 C 
ENDBRANCH  23  26
ENDBRANCH  22  23
ENDBRANCH  19  22
ENDBRANCH   6  20
TORSDOF 4
ENDMDL
MODEL 4
REMARK VINA RESULT:      -9.7     12.109     17.127
REMARK  Name = 16115747
REMARK  4 active torsions:
REMARK  status: ('A' for Active; 'I' for Inactive)
REMARK    1  A    between atoms: C_6  and  C_20
REMARK    2  A    between atoms: N_19  and  C_22
REMARK    3  A    between atoms: C_22  and  C_23
REMARK    4  A    between atoms: C_23  and  C_26
REMARK                            x       y       z     vdW  Elec       q    Type
REMARK                         _______ _______ _______ _____ _____    ______ ____
ROOT
ATOM      1  N   UNL     1      31.263  -7.746 -22.049  0.00  0.00    -0.279 N 
ATOM      2  N   UNL     1      31.836  -6.494 -24.010  0.00  0.00    -0.316 NA
ATOM      3  N   UNL     1      32.121  -4.105 -23.876  0.00  0.00    -0.336 NA
ATOM      4  N   UNL     1      32.391  -5.239 -25.889  0.00  0.00    -0.170 N 
ATOM      5  N   UNL     1      32.916  -4.407 -27.883  0.00  0.00    -0.224 NA
ATOM      6  C   UNL     1      31.073  -9.019 -22.746  0.00  0.00    +0.151 C 
ATOM      7  C   UNL     1      30.348  -9.898 -21.725  0.00  0.00    +0.031 C 
ATOM      8  C   UNL     1      30.836  -9.365 -20.386  0.00  0.00    +0.024 C 
ATOM      9  C   UNL     1      30.950  -7.863 -20.624  0.00  0.00    +0.093 C 
ATOM     10  C   UNL     1      31.550  -6.544 -22.666  0.00  0.00    +0.181 C 
ATOM     11  C   UNL     1      31.546  -5.363 -21.905  0.00  0.00    +0.131 C 
ATOM     12  C   UNL     1      31.836  -4.183 -22.559  0.00  0.00    +0.109 C 
ATOM     13  C   UNL     1      32.104  -5.281 -24.531  0.00  0.00    +0.212 C 
ATOM     14  C   UNL     1      31.845  -2.902 -21.794  0.00  0.00    +0.063 C 
ATOM     15  C   UNL     1      32.429  -6.305 -26.746  0.00  0.00    +0.104 C 
ATOM     16  C   UNL     1      32.690  -4.120 -26.620  0.00  0.00    +0.182 C 
ATOM     17  C   UNL     1      32.754  -5.767 -27.968  0.00  0.00    +0.118 C 
ENDROOT
BRANCH   6  20
ATOM     18  O   UNL     1      33.412  -8.917 -23.205  0.00  0.00    -0.273 OA
ATOM     19  N   UNL     1      32.337 -10.981 -23.274  0.00  0.00    -0.303 N 
ATOM     20  C   UNL     1      32.405  -9.610 -23.090  0.00  0.00    +0.241 C 
ATOM     21  H   UNL     1      31.468 -11.428 -23.153  0.00  0.00    +0.149 HD
BRANCH  19  22
ATOM     22  C   UNL     1      33.481 -11.787 -23.635  0.00  0.00    +0.094 C 
BRANCH  22  23
ATOM     23  C   UNL     1      33.878 -12.766 -22.533  0.00  0.00    +0.048 C 
BRANCH  23  26
ATOM     24  O   UNL     1      34.747 -17.588 -21.921  0.00  0.00    -0.435 OA
ATOM     25  O   UNL     1      33.901 -18.135 -24.110  0.00  0.00    -0.435 OA
ATOM     26  C   UNL     1      33.870 -14.204 -22.991  0.00  0.00    -0.017 C 
ATOM     27  C   UNL     1      34.351 -15.189 -22.138  0.00  0.00    +0.036 C 
ATOM     28  C   UNL     1      33.376 -14.508 -24.263  0.00  0.00    -0.001 C 
ATOM     29  C   UNL     1      34.322 -16.488 -22.602  0.00  0.00    +0.176 C 
ATOM     30  C   UNL     1      33.839 -16.801 -23.851  0.00  0.00    +0.176 C 
ATOM     31  C   UNL     1      33.359 -15.832 -24.708  0.00  0.00    +0.040 C 
ATOM     32  C   UNL     1      34.477 -18.628 -22.882  0.00  0.00    +0.429 C 
ENDBRANCH  23  26
ENDBRANCH  22  23
ENDBRANCH  19  22
ENDBRANCH   6  20
TORSDOF 4
ENDMDL
MODEL 5
REMARK VINA RESULT:      -9.7      3.446      8.157
REMARK  Name = 16115747
REMARK  4 active torsions:
REMARK  status: ('A' for Active; 'I' for Inactive)
REMARK    1  A    between atoms: C_6  and  C_20
REMARK    2  A    between atoms: N_19  and  C_22
REMARK    3  A    between atoms: C_22  and  C_23
REMARK    4  A    between atoms: C_23  and  C_26
REMARK                            x       y       z     vdW  Elec       q    Type
REMARK                         _______ _______ _______ _____ _____    ______ ____
ROOT
ATOM      1  N   UNL     1      30.987 -23.528 -15.570  0.00  0.00    -0.279 N 
ATOM      2  N   UNL     1      33.265 -22.928 -16.007  0.00  0.00    -0.316 NA
ATOM      3  N   UNL     1      33.802 -21.507 -17.877  0.00  0.00    -0.336 NA
ATOM      4  N   UNL     1      35.464 -22.323 -16.469  0.00  0.00    -0.170 N 
ATOM      5  N   UNL     1      37.657 -21.973 -16.574  0.00  0.00    -0.224 NA
ATOM      6  C   UNL     1      31.294 -24.471 -14.495  0.00  0.00    +0.151 C 
ATOM      7  C   UNL     1      29.992 -25.252 -14.301  0.00  0.00    +0.031 C 
ATOM      8  C   UNL     1      28.916 -24.254 -14.702  0.00  0.00    +0.024 C 
ATOM      9  C   UNL     1      29.553 -23.494 -15.862  0.00  0.00    +0.093 C 
ATOM     10  C   UNL     1      31.930 -22.861 -16.328  0.00  0.00    +0.181 C 
ATOM     11  C   UNL     1      31.512 -22.109 -17.438  0.00  0.00    +0.131 C 
ATOM     12  C   UNL     1      32.485 -21.459 -18.170  0.00  0.00    +0.109 C 
ATOM     13  C   UNL     1      34.117 -22.249 -16.799  0.00  0.00    +0.212 C 
ATOM     14  C   UNL     1      32.091 -20.646 -19.358  0.00  0.00    +0.063 C 
ATOM     15  C   UNL     1      36.007 -23.014 -15.421  0.00  0.00    +0.104 C 
ATOM     16  C   UNL     1      36.496 -21.714 -17.132  0.00  0.00    +0.182 C 
ATOM     17  C   UNL     1      37.360 -22.784 -15.508  0.00  0.00    +0.118 C 
ENDROOT
BRANCH   6  20
ATOM     18  O   UNL     1      30.793 -23.112 -12.600  0.00  0.00    -0.273 OA
ATOM     19  N   UNL     1      32.993 -23.786 -12.956  0.00  0.00    -0.303 N 
ATOM     20  C   UNL     1      31.641 -23.720 -13.247  0.00  0.00    +0.241 C 
ATOM     21  H   UNL     1      33.577 -24.307 -13.552  0.00  0.00    +0.149 HD
BRANCH  19  22
ATOM     22  C   UNL     1      33.589 -23.126 -11.816  0.00  0.00    +0.094 C 
BRANCH  22  23
ATOM     23  C   UNL     1      34.535 -24.039 -11.040  0.00  0.00    +0.048 C 
BRANCH  23  26
ATOM     24  O   UNL     1      38.160 -26.197 -13.605  0.00  0.00    -0.435 OA
ATOM     25  O   UNL     1      39.656 -24.336 -13.277  0.00  0.00    -0.435 OA
ATOM     26  C   UNL     1      35.924 -24.085 -11.629  0.00  0.00    -0.017 C 
ATOM     27  C   UNL     1      36.314 -25.204 -12.353  0.00  0.00    +0.036 C 
ATOM     28  C   UNL     1      36.782 -22.999 -11.432  0.00  0.00    -0.001 C 
ATOM     29  C   UNL     1      37.593 -25.200 -12.872  0.00  0.00    +0.176 C 
ATOM     30  C   UNL     1      38.447 -24.138 -12.685  0.00  0.00    +0.176 C 
ATOM     31  C   UNL     1      38.071 -23.021 -11.968  0.00  0.00    +0.040 C 
ATOM     32  C   UNL     1      39.467 -25.643 -13.859  0.00  0.00    +0.429 C 
ENDBRANCH  23  26
ENDBRANCH  22  23
ENDBRANCH  19  22
ENDBRANCH   6  20
TORSDOF 4
ENDMDL
MODEL 6
REMARK VINA RESULT:      -9.6      3.534      5.492
REMARK  Name = 16115747
REMARK  4 active torsions:
REMARK  status: ('A' for Active; 'I' for Inactive)
REMARK    1  A    between atoms: C_6  and  C_20
REMARK    2  A    between atoms: N_19  and  C_22
REMARK    3  A    between atoms: C_22  and  C_23
REMARK    4  A    between atoms: C_23  and  C_26
REMARK                            x       y       z     vdW  Elec       q    Type
REMARK                         _______ _______ _______ _____ _____    ______ ____
ROOT
ATOM      1  N   UNL     1      34.138 -22.088 -17.826  0.00  0.00    -0.279 N 
ATOM      2  N   UNL     1      31.949 -22.399 -16.902  0.00  0.00    -0.316 NA
ATOM      3  N   UNL     1      31.686 -22.867 -14.553  0.00  0.00    -0.336 NA
ATOM      4  N   UNL     1      29.843 -22.709 -15.963  0.00  0.00    -0.170 N 
ATOM      5  N   UNL     1      27.691 -22.936 -15.453  0.00  0.00    -0.224 NA
ATOM      6  C   UNL     1      33.693 -22.014 -19.218  0.00  0.00    +0.151 C 
ATOM      7  C   UNL     1      34.981 -22.173 -20.030  0.00  0.00    +0.031 C 
ATOM      8  C   UNL     1      36.051 -21.593 -19.117  0.00  0.00    +0.024 C 
ATOM      9  C   UNL     1      35.597 -22.020 -17.724  0.00  0.00    +0.093 C 
ATOM     10  C   UNL     1      33.315 -22.345 -16.747  0.00  0.00    +0.181 C 
ATOM     11  C   UNL     1      33.886 -22.554 -15.481  0.00  0.00    +0.131 C 
ATOM     12  C   UNL     1      33.030 -22.810 -14.430  0.00  0.00    +0.109 C 
ATOM     13  C   UNL     1      31.221 -22.655 -15.798  0.00  0.00    +0.212 C 
ATOM     14  C   UNL     1      33.588 -23.037 -13.065  0.00  0.00    +0.063 C 
ATOM     15  C   UNL     1      29.156 -22.525 -17.132  0.00  0.00    +0.104 C 
ATOM     16  C   UNL     1      28.918 -22.953 -14.983  0.00  0.00    +0.182 C 
ATOM     17  C   UNL     1      27.832 -22.671 -16.792  0.00  0.00    +0.118 C 
ENDROOT
BRANCH   6  20
ATOM     18  O   UNL     1      31.942 -20.399 -19.096  0.00  0.00    -0.273 OA
ATOM     19  N   UNL     1      33.913 -19.845 -20.205  0.00  0.00    -0.303 N 
ATOM     20  C   UNL     1      33.075 -20.676 -19.480  0.00  0.00    +0.241 C 
ATOM     21  H   UNL     1      34.802 -20.181 -20.457  0.00  0.00    +0.149 HD
BRANCH  19  22
ATOM     22  C   UNL     1      33.543 -18.507 -20.608  0.00  0.00    +0.094 C 
BRANCH  22  23
ATOM     23  C   UNL     1      34.728 -17.710 -21.149  0.00  0.00    +0.048 C 
BRANCH  23  26
ATOM     24  O   UNL     1      33.435 -15.418 -25.327  0.00  0.00    -0.435 OA
ATOM     25  O   UNL     1      33.168 -13.297 -24.215  0.00  0.00    -0.435 OA
ATOM     26  C   UNL     1      34.308 -16.499 -21.945  0.00  0.00    -0.017 C 
ATOM     27  C   UNL     1      34.083 -16.631 -23.309  0.00  0.00    +0.036 C 
ATOM     28  C   UNL     1      34.157 -15.274 -21.288  0.00  0.00    -0.001 C 
ATOM     29  C   UNL     1      33.700 -15.495 -23.994  0.00  0.00    +0.176 C 
ATOM     30  C   UNL     1      33.548 -14.284 -23.360  0.00  0.00    +0.176 C 
ATOM     31  C   UNL     1      33.769 -14.140 -22.005  0.00  0.00    +0.040 C 
ATOM     32  C   UNL     1      33.098 -14.023 -25.460  0.00  0.00    +0.429 C 
ENDBRANCH  23  26
ENDBRANCH  22  23
ENDBRANCH  19  22
ENDBRANCH   6  20
TORSDOF 4
ENDMDL
MODEL 7
REMARK VINA RESULT:      -9.3      3.537      5.480
REMARK  Name = 16115747
REMARK  4 active torsions:
REMARK  status: ('A' for Active; 'I' for Inactive)
REMARK    1  A    between atoms: C_6  and  C_20
REMARK    2  A    between atoms: N_19  and  C_22
REMARK    3  A    between atoms: C_22  and  C_23
REMARK    4  A    between atoms: C_23  and  C_26
REMARK                            x       y       z     vdW  Elec       q    Type
REMARK                         _______ _______ _______ _____ _____    ______ ____
ROOT
ATOM      1  N   UNL     1      34.140 -22.081 -17.793  0.00  0.00    -0.279 N 
ATOM      2  N   UNL     1      31.944 -22.411 -16.893  0.00  0.00    -0.316 NA
ATOM      3  N   UNL     1      31.659 -22.882 -14.547  0.00  0.00    -0.336 NA
ATOM      4  N   UNL     1      29.830 -22.739 -15.976  0.00  0.00    -0.170 N 
ATOM      5  N   UNL     1      27.675 -22.986 -15.490  0.00  0.00    -0.224 NA
ATOM      6  C   UNL     1      33.709 -22.010 -19.189  0.00  0.00    +0.151 C 
ATOM      7  C   UNL     1      35.006 -22.157 -19.987  0.00  0.00    +0.031 C 
ATOM      8  C   UNL     1      36.062 -21.568 -19.063  0.00  0.00    +0.024 C 
ATOM      9  C   UNL     1      35.596 -21.999 -17.675  0.00  0.00    +0.093 C 
ATOM     10  C   UNL     1      33.307 -22.346 -16.723  0.00  0.00    +0.181 C 
ATOM     11  C   UNL     1      33.866 -22.550 -15.451  0.00  0.00    +0.131 C 
ATOM     12  C   UNL     1      33.001 -22.814 -14.409  0.00  0.00    +0.109 C 
ATOM     13  C   UNL     1      31.206 -22.674 -15.797  0.00  0.00    +0.212 C 
ATOM     14  C   UNL     1      33.547 -23.037 -13.039  0.00  0.00    +0.063 C 
ATOM     15  C   UNL     1      29.154 -22.561 -17.153  0.00  0.00    +0.104 C 
ATOM     16  C   UNL     1      28.897 -22.992 -15.007  0.00  0.00    +0.182 C 
ATOM     17  C   UNL     1      27.828 -22.719 -16.827  0.00  0.00    +0.118 C 
ENDROOT
BRANCH   6  20
ATOM     18  O   UNL     1      31.946 -20.407 -19.077  0.00  0.00    -0.273 OA
ATOM     19  N   UNL     1      33.916 -19.842 -20.183  0.00  0.00    -0.303 N 
ATOM     20  C   UNL     1      33.082 -20.677 -19.458  0.00  0.00    +0.241 C 
ATOM     21  H   UNL     1      34.808 -20.173 -20.432  0.00  0.00    +0.149 HD
BRANCH  19  22
ATOM     22  C   UNL     1      33.538 -18.508 -20.591  0.00  0.00    +0.094 C 
BRANCH  22  23
ATOM     23  C   UNL     1      34.741 -17.650 -20.974  0.00  0.00    +0.048 C 
BRANCH  23  26
ATOM     24  O   UNL     1      33.544 -12.927 -21.776  0.00  0.00    -0.435 OA
ATOM     25  O   UNL     1      33.376 -13.255 -24.158  0.00  0.00    -0.435 OA
ATOM     26  C   UNL     1      34.375 -16.487 -21.863  0.00  0.00    -0.017 C 
ATOM     27  C   UNL     1      34.141 -15.244 -21.288  0.00  0.00    +0.036 C 
ATOM     28  C   UNL     1      34.281 -16.690 -23.243  0.00  0.00    -0.001 C 
ATOM     29  C   UNL     1      33.809 -14.212 -22.142  0.00  0.00    +0.176 C 
ATOM     30  C   UNL     1      33.714 -14.398 -23.501  0.00  0.00    +0.176 C 
ATOM     31  C   UNL     1      33.943 -15.628 -24.084  0.00  0.00    +0.040 C 
ATOM     32  C   UNL     1      33.270 -12.327 -23.058  0.00  0.00    +0.429 C 
ENDBRANCH  23  26
ENDBRANCH  22  23
ENDBRANCH  19  22
ENDBRANCH   6  20
TORSDOF 4
ENDMDL
MODEL 8
REMARK VINA RESULT:      -9.3      3.347      7.534
REMARK  Name = 16115747
REMARK  4 active torsions:
REMARK  status: ('A' for Active; 'I' for Inactive)
REMARK    1  A    between atoms: C_6  and  C_20
REMARK    2  A    between atoms: N_19  and  C_22
REMARK    3  A    between atoms: C_22  and  C_23
REMARK    4  A    between atoms: C_23  and  C_26
REMARK                            x       y       z     vdW  Elec       q    Type
REMARK                         _______ _______ _______ _____ _____    ______ ____
ROOT
ATOM      1  N   UNL     1      35.286 -22.125 -16.475  0.00  0.00    -0.279 N 
ATOM      2  N   UNL     1      32.944 -22.571 -16.229  0.00  0.00    -0.316 NA
ATOM      3  N   UNL     1      31.403 -21.921 -17.963  0.00  0.00    -0.336 NA
ATOM      4  N   UNL     1      30.663 -22.984 -16.031  0.00  0.00    -0.170 N 
ATOM      5  N   UNL     1      28.586 -23.548 -15.475  0.00  0.00    -0.224 NA
ATOM      6  C   UNL     1      35.653 -22.561 -15.128  0.00  0.00    +0.151 C 
ATOM      7  C   UNL     1      37.074 -22.026 -14.938  0.00  0.00    +0.031 C 
ATOM      8  C   UNL     1      37.639 -22.006 -16.350  0.00  0.00    +0.024 C 
ATOM      9  C   UNL     1      36.442 -21.602 -17.205  0.00  0.00    +0.093 C 
ATOM     10  C   UNL     1      33.993 -22.063 -16.959  0.00  0.00    +0.181 C 
ATOM     11  C   UNL     1      33.756 -21.473 -18.211  0.00  0.00    +0.131 C 
ATOM     12  C   UNL     1      32.451 -21.430 -18.658  0.00  0.00    +0.109 C 
ATOM     13  C   UNL     1      31.717 -22.470 -16.775  0.00  0.00    +0.212 C 
ATOM     14  C   UNL     1      32.148 -20.813 -19.983  0.00  0.00    +0.063 C 
ATOM     15  C   UNL     1      30.750 -23.583 -14.804  0.00  0.00    +0.104 C 
ATOM     16  C   UNL     1      29.342 -22.987 -16.392  0.00  0.00    +0.182 C 
ATOM     17  C   UNL     1      29.456 -23.921 -14.483  0.00  0.00    +0.118 C 
ENDROOT
BRANCH   6  20
ATOM     18  O   UNL     1      34.622 -24.692 -14.837  0.00  0.00    -0.273 OA
ATOM     19  N   UNL     1      36.910 -24.594 -15.256  0.00  0.00    -0.303 N 
ATOM     20  C   UNL     1      35.648 -24.057 -15.062  0.00  0.00    +0.241 C 
ATOM     21  H   UNL     1      37.659 -23.980 -15.429  0.00  0.00    +0.149 HD
BRANCH  19  22
ATOM     22  C   UNL     1      37.179 -26.013 -15.218  0.00  0.00    +0.094 C 
BRANCH  22  23
ATOM     23  C   UNL     1      37.677 -26.478 -13.852  0.00  0.00    +0.048 C 
BRANCH  23  26
ATOM     24  O   UNL     1      34.910 -24.894 -10.081  0.00  0.00    -0.435 OA
ATOM     25  O   UNL     1      36.316 -22.973  -9.707  0.00  0.00    -0.435 OA
ATOM     26  C   UNL     1      37.340 -25.512 -12.742  0.00  0.00    -0.017 C 
ATOM     27  C   UNL     1      36.220 -25.750 -11.955  0.00  0.00    +0.036 C 
ATOM     28  C   UNL     1      38.163 -24.402 -12.536  0.00  0.00    -0.001 C 
ATOM     29  C   UNL     1      35.954 -24.838 -10.954  0.00  0.00    +0.176 C 
ATOM     30  C   UNL     1      36.756 -23.742 -10.740  0.00  0.00    +0.176 C 
ATOM     31  C   UNL     1      37.870 -23.495 -11.515  0.00  0.00    +0.040 C 
ATOM     32  C   UNL     1      35.146 -23.709  -9.294  0.00  0.00    +0.429 C 
ENDBRANCH  23  26
ENDBRANCH  22  23
ENDBRANCH  19  22
ENDBRANCH   6  20
TORSDOF 4
ENDMDL
MODEL 9
REMARK VINA RESULT:      -8.8      3.822      7.299
REMARK  Name = 16115747
REMARK  4 active torsions:
REMARK  status: ('A' for Active; 'I' for Inactive)
REMARK    1  A    between atoms: C_6  and  C_20
REMARK    2  A    between atoms: N_19  and  C_22
REMARK    3  A    between atoms: C_22  and  C_23
REMARK    4  A    between atoms: C_23  and  C_26
REMARK                            x       y       z     vdW  Elec       q    Type
REMARK                         _______ _______ _______ _____ _____    ______ ____
ROOT
ATOM      1  N   UNL     1      34.319 -21.829 -18.024  0.00  0.00    -0.279 N 
ATOM      2  N   UNL     1      35.433 -22.717 -16.098  0.00  0.00    -0.316 NA
ATOM      3  N   UNL     1      37.456 -21.687 -15.291  0.00  0.00    -0.336 NA
ATOM      4  N   UNL     1      36.548 -23.548 -14.233  0.00  0.00    -0.170 N 
ATOM      5  N   UNL     1      37.307 -24.624 -12.441  0.00  0.00    -0.224 NA
ATOM      6  C   UNL     1      33.328 -22.901 -18.120  0.00  0.00    +0.151 C 
ATOM      7  C   UNL     1      32.719 -22.723 -19.512  0.00  0.00    +0.031 C 
ATOM      8  C   UNL     1      32.846 -21.228 -19.768  0.00  0.00    +0.024 C 
ATOM      9  C   UNL     1      34.182 -20.872 -19.123  0.00  0.00    +0.093 C 
ATOM     10  C   UNL     1      35.355 -21.791 -17.111  0.00  0.00    +0.181 C 
ATOM     11  C   UNL     1      36.336 -20.793 -17.227  0.00  0.00    +0.131 C 
ATOM     12  C   UNL     1      37.355 -20.790 -16.296  0.00  0.00    +0.109 C 
ATOM     13  C   UNL     1      36.475 -22.608 -15.252  0.00  0.00    +0.212 C 
ATOM     14  C   UNL     1      38.421 -19.749 -16.376  0.00  0.00    +0.063 C 
ATOM     15  C   UNL     1      35.666 -24.569 -14.003  0.00  0.00    +0.104 C 
ATOM     16  C   UNL     1      37.516 -23.624 -13.267  0.00  0.00    +0.182 C 
ATOM     17  C   UNL     1      36.156 -25.218 -12.894  0.00  0.00    +0.118 C 
ENDROOT
BRANCH   6  20
ATOM     18  O   UNL     1      31.324 -21.962 -17.229  0.00  0.00    -0.273 OA
ATOM     19  N   UNL     1      32.543 -23.461 -15.929  0.00  0.00    -0.303 N 
ATOM     20  C   UNL     1      32.280 -22.715 -17.067  0.00  0.00    +0.241 C 
ATOM     21  H   UNL     1      33.345 -24.031 -15.918  0.00  0.00    +0.149 HD
BRANCH  19  22
ATOM     22  C   UNL     1      31.696 -23.441 -14.759  0.00  0.00    +0.094 C 
BRANCH  22  23
ATOM     23  C   UNL     1      30.407 -24.236 -14.955  0.00  0.00    +0.048 C 
BRANCH  23  26
ATOM     24  O   UNL     1      26.769 -22.773 -17.956  0.00  0.00    -0.435 OA
ATOM     25  O   UNL     1      26.023 -21.078 -16.413  0.00  0.00    -0.435 OA
ATOM     26  C   UNL     1      29.228 -23.367 -15.316  0.00  0.00    -0.017 C 
ATOM     27  C   UNL     1      28.592 -23.561 -16.535  0.00  0.00    +0.036 C 
ATOM     28  C   UNL     1      28.805 -22.387 -14.412  0.00  0.00    -0.001 C 
ATOM     29  C   UNL     1      27.519 -22.741 -16.820  0.00  0.00    +0.176 C 
ATOM     30  C   UNL     1      27.093 -21.774 -15.939  0.00  0.00    +0.176 C 
ATOM     31  C   UNL     1      27.716 -21.571 -14.725  0.00  0.00    +0.040 C 
ATOM     32  C   UNL     1      25.824 -21.718 -17.691  0.00  0.00    +0.429 C 
ENDBRANCH  23  26
ENDBRANCH  22  23
ENDBRANCH  19  22
ENDBRANCH   6  20
TORSDOF 4
ENDMDL
