MODEL 1
REMARK VINA RESULT:     -11.6      0.000      0.000
REMARK  Name = 9865808
REMARK  5 active torsions:
REMARK  status: ('A' for Active; 'I' for Inactive)
REMARK    1  A    between atoms: N_1  and  C_13
REMARK    2  A    between atoms: C_3  and  C_7
REMARK    3  A    between atoms: C_5  and  C_28
REMARK    4  A    between atoms: C_16  and  S_19
REMARK    5  A    between atoms: S_19  and  N_22
REMARK                            x       y       z     vdW  Elec       q    Type
REMARK                         _______ _______ _______ _____ _____    ______ ____
ROOT
ATOM      1  N   UNL     1      33.779 -23.798 -14.545  0.00  0.00    -0.190 N 
ATOM      2  N   UNL     1      32.932 -24.248 -13.604  0.00  0.00    -0.170 NA
ATOM      3  C   UNL     1      33.177 -23.064 -15.526  0.00  0.00    +0.075 C 
ATOM      4  C   UNL     1      31.841 -23.035 -15.203  0.00  0.00    +0.041 C 
ATOM      5  C   UNL     1      31.749 -23.779 -14.012  0.00  0.00    +0.172 C 
ENDROOT
BRANCH   3   7
ATOM      6 CL   UNL     1      36.019 -20.617 -20.149  0.00  0.00    -0.082 Cl
ATOM      7  C   UNL     1      33.866 -22.471 -16.647  0.00  0.00    +0.016 C 
ATOM      8  C   UNL     1      33.222 -22.355 -17.878  0.00  0.00    +0.002 C 
ATOM      9  C   UNL     1      35.176 -22.014 -16.498  0.00  0.00    +0.002 C 
ATOM     10  C   UNL     1      33.888 -21.782 -18.962  0.00  0.00    +0.011 C 
ATOM     11  C   UNL     1      35.842 -21.441 -17.581  0.00  0.00    +0.011 C 
ATOM     12  C   UNL     1      35.198 -21.325 -18.813  0.00  0.00    +0.058 C 
ENDBRANCH   3   7
BRANCH   1  13
ATOM     13  C   UNL     1      35.138 -24.102 -14.447  0.00  0.00    +0.074 C 
ATOM     14  C   UNL     1      35.996 -23.204 -13.824  0.00  0.00    +0.018 C 
ATOM     15  C   UNL     1      35.612 -25.295 -14.974  0.00  0.00    +0.018 C 
ATOM     16  C   UNL     1      37.841 -24.704 -14.252  0.00  0.00    +0.122 C 
ATOM     17  C   UNL     1      37.354 -23.508 -13.727  0.00  0.00    +0.021 C 
ATOM     18  C   UNL     1      36.970 -25.598 -14.876  0.00  0.00    +0.021 C 
BRANCH  16  19
ATOM     19  S   UNL     1      39.541 -25.084 -14.130  0.00  0.00    +0.057 S 
ATOM     20  O   UNL     1      40.262 -23.863 -13.795  0.00  0.00    -0.153 OA
ATOM     21  O   UNL     1      39.691 -26.265 -13.292  0.00  0.00    -0.153 OA
BRANCH  19  22
ATOM     22  N   UNL     1      39.897 -25.508 -15.747  0.00  0.00    -0.203 NA
ATOM     23  H   UNL     1      40.590 -24.862 -16.123  0.00  0.00    +0.144 HD
ATOM     24  H   UNL     1      39.045 -25.458 -16.306  0.00  0.00    +0.144 HD
ENDBRANCH  19  22
ENDBRANCH  16  19
ENDBRANCH   1  13
BRANCH   5  28
ATOM     25  F   UNL     1      30.203 -23.059 -12.361  0.00  0.00    -0.164 F 
ATOM     26  F   UNL     1      29.426 -24.270 -13.992  0.00  0.00    -0.164 F 
ATOM     27  F   UNL     1      30.673 -25.186 -12.456  0.00  0.00    -0.164 F 
ATOM     28  C   UNL     1      30.538 -24.066 -13.223  0.00  0.00    +0.436 C 
ENDBRANCH   5  28
TORSDOF 5
ENDMDL
MODEL 2
REMARK VINA RESULT:     -10.7      1.229      1.977
REMARK  Name = 9865808
REMARK  5 active torsions:
REMARK  status: ('A' for Active; 'I' for Inactive)
REMARK    1  A    between atoms: N_1  and  C_13
REMARK    2  A    between atoms: C_3  and  C_7
REMARK    3  A    between atoms: C_5  and  C_28
REMARK    4  A    between atoms: C_16  and  S_19
REMARK    5  A    between atoms: S_19  and  N_22
REMARK                            x       y       z     vdW  Elec       q    Type
REMARK                         _______ _______ _______ _____ _____    ______ ____
ROOT
ATOM      1  N   UNL     1      32.990 -23.774 -14.839  0.00  0.00    -0.190 N 
ATOM      2  N   UNL     1      32.039 -24.291 -14.044  0.00  0.00    -0.170 NA
ATOM      3  C   UNL     1      32.501 -23.109 -15.927  0.00  0.00    +0.075 C 
ATOM      4  C   UNL     1      31.132 -23.201 -15.834  0.00  0.00    +0.041 C 
ATOM      5  C   UNL     1      30.906 -23.938 -14.657  0.00  0.00    +0.172 C 
ENDROOT
BRANCH   3   7
ATOM      6 CL   UNL     1      35.861 -20.459 -20.065  0.00  0.00    -0.082 Cl
ATOM      7  C   UNL     1      33.315 -22.467 -16.929  0.00  0.00    +0.016 C 
ATOM      8  C   UNL     1      34.655 -22.184 -16.663  0.00  0.00    +0.002 C 
ATOM      9  C   UNL     1      32.763 -22.129 -18.165  0.00  0.00    +0.002 C 
ATOM     10  C   UNL     1      35.442 -21.563 -17.633  0.00  0.00    +0.011 C 
ATOM     11  C   UNL     1      33.550 -21.508 -19.135  0.00  0.00    +0.011 C 
ATOM     12  C   UNL     1      34.890 -21.225 -18.868  0.00  0.00    +0.058 C 
ENDBRANCH   3   7
BRANCH   1  13
ATOM     13  C   UNL     1      34.334 -23.950 -14.505  0.00  0.00    +0.074 C 
ATOM     14  C   UNL     1      35.028 -25.039 -15.016  0.00  0.00    +0.018 C 
ATOM     15  C   UNL     1      34.957 -23.034 -13.668  0.00  0.00    +0.018 C 
ATOM     16  C   UNL     1      37.007 -24.301 -13.842  0.00  0.00    +0.122 C 
ATOM     17  C   UNL     1      36.371 -25.214 -14.682  0.00  0.00    +0.021 C 
ATOM     18  C   UNL     1      36.299 -23.211 -13.335  0.00  0.00    +0.021 C 
BRANCH  16  19
ATOM     19  S   UNL     1      38.688 -24.521 -13.425  0.00  0.00    +0.057 S 
ATOM     20  O   UNL     1      38.880 -25.901 -12.999  0.00  0.00    -0.153 OA
ATOM     21  O   UNL     1      39.506 -23.975 -14.499  0.00  0.00    -0.153 OA
BRANCH  19  22
ATOM     22  N   UNL     1      38.821 -23.500 -12.061  0.00  0.00    -0.203 NA
ATOM     23  H   UNL     1      39.699 -23.691 -11.578  0.00  0.00    +0.144 HD
ATOM     24  H   UNL     1      38.040 -23.675 -11.429  0.00  0.00    +0.144 HD
ENDBRANCH  19  22
ENDBRANCH  16  19
ENDBRANCH   1  13
BRANCH   5  28
ATOM     25  F   UNL     1      29.575 -24.232 -12.714  0.00  0.00    -0.164 F 
ATOM     26  F   UNL     1      28.565 -23.563 -14.519  0.00  0.00    -0.164 F 
ATOM     27  F   UNL     1      29.277 -25.618 -14.371  0.00  0.00    -0.164 F 
ATOM     28  C   UNL     1      29.609 -24.327 -14.077  0.00  0.00    +0.436 C 
ENDBRANCH   5  28
TORSDOF 5
ENDMDL
MODEL 3
REMARK VINA RESULT:     -10.3      4.375      5.577
REMARK  Name = 9865808
REMARK  5 active torsions:
REMARK  status: ('A' for Active; 'I' for Inactive)
REMARK    1  A    between atoms: N_1  and  C_13
REMARK    2  A    between atoms: C_3  and  C_7
REMARK    3  A    between atoms: C_5  and  C_28
REMARK    4  A    between atoms: C_16  and  S_19
REMARK    5  A    between atoms: S_19  and  N_22
REMARK                            x       y       z     vdW  Elec       q    Type
REMARK                         _______ _______ _______ _____ _____    ______ ____
ROOT
ATOM      1  N   UNL     1      34.373 -22.591 -16.423  0.00  0.00    -0.190 N 
ATOM      2  N   UNL     1      35.232 -22.052 -17.304  0.00  0.00    -0.170 NA
ATOM      3  C   UNL     1      33.068 -22.545 -16.822  0.00  0.00    +0.075 C 
ATOM      4  C   UNL     1      33.077 -21.930 -18.051  0.00  0.00    +0.041 C 
ATOM      5  C   UNL     1      34.434 -21.649 -18.297  0.00  0.00    +0.172 C 
ENDROOT
BRANCH   3   7
ATOM      6 CL   UNL     1      28.485 -24.655 -13.662  0.00  0.00    -0.082 Cl
ATOM      7  C   UNL     1      31.958 -23.057 -16.056  0.00  0.00    +0.016 C 
ATOM      8  C   UNL     1      30.652 -22.723 -16.414  0.00  0.00    +0.002 C 
ATOM      9  C   UNL     1      32.190 -23.885 -14.957  0.00  0.00    +0.002 C 
ATOM     10  C   UNL     1      29.578 -23.217 -15.674  0.00  0.00    +0.011 C 
ATOM     11  C   UNL     1      31.116 -24.379 -14.217  0.00  0.00    +0.011 C 
ATOM     12  C   UNL     1      29.810 -24.045 -14.575  0.00  0.00    +0.058 C 
ENDBRANCH   3   7
BRANCH   1  13
ATOM     13  C   UNL     1      34.861 -23.128 -15.230  0.00  0.00    +0.074 C 
ATOM     14  C   UNL     1      34.933 -22.327 -14.099  0.00  0.00    +0.018 C 
ATOM     15  C   UNL     1      35.267 -24.455 -15.193  0.00  0.00    +0.018 C 
ATOM     16  C   UNL     1      35.831 -24.195 -12.858  0.00  0.00    +0.122 C 
ATOM     17  C   UNL     1      35.421 -22.864 -12.907  0.00  0.00    +0.021 C 
ATOM     18  C   UNL     1      35.755 -24.991 -14.001  0.00  0.00    +0.021 C 
BRANCH  16  19
ATOM     19  S   UNL     1      36.441 -24.867 -11.366  0.00  0.00    +0.057 S 
ATOM     20  O   UNL     1      36.705 -26.284 -11.573  0.00  0.00    -0.153 OA
ATOM     21  O   UNL     1      37.498 -23.999 -10.867  0.00  0.00    -0.153 OA
BRANCH  19  22
ATOM     22  N   UNL     1      35.073 -24.703 -10.353  0.00  0.00    -0.203 NA
ATOM     23  H   UNL     1      34.668 -23.776 -10.477  0.00  0.00    +0.144 HD
ATOM     24  H   UNL     1      35.355 -24.825  -9.381  0.00  0.00    +0.144 HD
ENDBRANCH  19  22
ENDBRANCH  16  19
ENDBRANCH   1  13
BRANCH   5  28
ATOM     25  F   UNL     1      34.164 -20.106 -20.080  0.00  0.00    -0.164 F 
ATOM     26  F   UNL     1      36.147 -20.279 -19.206  0.00  0.00    -0.164 F 
ATOM     27  F   UNL     1      35.363 -21.889 -20.450  0.00  0.00    -0.164 F 
ATOM     28  C   UNL     1      35.014 -20.993 -19.481  0.00  0.00    +0.436 C 
ENDBRANCH   5  28
TORSDOF 5
ENDMDL
MODEL 4
REMARK VINA RESULT:     -10.1      5.027      6.459
REMARK  Name = 9865808
REMARK  5 active torsions:
REMARK  status: ('A' for Active; 'I' for Inactive)
REMARK    1  A    between atoms: N_1  and  C_13
REMARK    2  A    between atoms: C_3  and  C_7
REMARK    3  A    between atoms: C_5  and  C_28
REMARK    4  A    between atoms: C_16  and  S_19
REMARK    5  A    between atoms: S_19  and  N_22
REMARK                            x       y       z     vdW  Elec       q    Type
REMARK                         _______ _______ _______ _____ _____    ______ ____
ROOT
ATOM      1  N   UNL     1      33.371 -23.419 -13.736  0.00  0.00    -0.190 N 
ATOM      2  N   UNL     1      33.577 -23.859 -12.484  0.00  0.00    -0.170 NA
ATOM      3  C   UNL     1      34.517 -23.094 -14.405  0.00  0.00    +0.075 C 
ATOM      4  C   UNL     1      35.543 -23.339 -13.523  0.00  0.00    +0.041 C 
ATOM      5  C   UNL     1      34.906 -23.808 -12.359  0.00  0.00    +0.172 C 
ENDROOT
BRANCH   3   7
ATOM      6 CL   UNL     1      34.716 -21.052 -19.993  0.00  0.00    -0.082 Cl
ATOM      7  C   UNL     1      34.565 -22.599 -15.759  0.00  0.00    +0.016 C 
ATOM      8  C   UNL     1      35.711 -21.956 -16.225  0.00  0.00    +0.002 C 
ATOM      9  C   UNL     1      33.465 -22.764 -16.601  0.00  0.00    +0.002 C 
ATOM     10  C   UNL     1      35.758 -21.478 -17.534  0.00  0.00    +0.011 C 
ATOM     11  C   UNL     1      33.512 -22.286 -17.910  0.00  0.00    +0.011 C 
ATOM     12  C   UNL     1      34.658 -21.642 -18.377  0.00  0.00    +0.058 C 
ENDBRANCH   3   7
BRANCH   1  13
ATOM     13  C   UNL     1      32.068 -23.334 -14.229  0.00  0.00    +0.074 C 
ATOM     14  C   UNL     1      31.420 -22.106 -14.239  0.00  0.00    +0.018 C 
ATOM     15  C   UNL     1      31.439 -24.478 -14.701  0.00  0.00    +0.018 C 
ATOM     16  C   UNL     1      29.475 -23.164 -15.208  0.00  0.00    +0.122 C 
ATOM     17  C   UNL     1      30.117 -22.021 -14.730  0.00  0.00    +0.021 C 
ATOM     18  C   UNL     1      30.137 -24.392 -15.193  0.00  0.00    +0.021 C 
BRANCH  16  19
ATOM     19  S   UNL     1      27.845 -23.057 -15.824  0.00  0.00    +0.057 S 
ATOM     20  O   UNL     1      27.603 -24.206 -16.686  0.00  0.00    -0.153 OA
ATOM     21  O   UNL     1      26.947 -22.785 -14.711  0.00  0.00    -0.153 OA
BRANCH  19  22
ATOM     22  N   UNL     1      27.956 -21.654 -16.795  0.00  0.00    -0.203 NA
ATOM     23  H   UNL     1      27.648 -21.872 -17.743  0.00  0.00    +0.144 HD
ATOM     24  H   UNL     1      28.923 -21.332 -16.816  0.00  0.00    +0.144 HD
ENDBRANCH  19  22
ENDBRANCH  16  19
ENDBRANCH   1  13
BRANCH   5  28
ATOM     25  F   UNL     1      36.292 -23.239 -10.518  0.00  0.00    -0.164 F 
ATOM     26  F   UNL     1      34.638 -24.598 -10.136  0.00  0.00    -0.164 F 
ATOM     27  F   UNL     1      36.375 -25.288 -11.259  0.00  0.00    -0.164 F 
ATOM     28  C   UNL     1      35.537 -24.222 -11.094  0.00  0.00    +0.436 C 
ENDBRANCH   5  28
TORSDOF 5
ENDMDL
MODEL 5
REMARK VINA RESULT:      -9.5      3.713      5.229
REMARK  Name = 9865808
REMARK  5 active torsions:
REMARK  status: ('A' for Active; 'I' for Inactive)
REMARK    1  A    between atoms: N_1  and  C_13
REMARK    2  A    between atoms: C_3  and  C_7
REMARK    3  A    between atoms: C_5  and  C_28
REMARK    4  A    between atoms: C_16  and  S_19
REMARK    5  A    between atoms: S_19  and  N_22
REMARK                            x       y       z     vdW  Elec       q    Type
REMARK                         _______ _______ _______ _____ _____    ______ ____
ROOT
ATOM      1  N   UNL     1      32.899 -23.414 -15.150  0.00  0.00    -0.190 N 
ATOM      2  N   UNL     1      31.559 -23.403 -15.052  0.00  0.00    -0.170 NA
ATOM      3  C   UNL     1      33.523 -24.085 -14.138  0.00  0.00    +0.075 C 
ATOM      4  C   UNL     1      32.517 -24.543 -13.320  0.00  0.00    +0.041 C 
ATOM      5  C   UNL     1      31.331 -24.094 -13.932  0.00  0.00    +0.172 C 
ENDROOT
BRANCH   3   7
ATOM      6 CL   UNL     1      39.419 -24.727 -13.630  0.00  0.00    -0.082 Cl
ATOM      7  C   UNL     1      34.952 -24.241 -14.014  0.00  0.00    +0.016 C 
ATOM      8  C   UNL     1      35.606 -25.253 -14.716  0.00  0.00    +0.002 C 
ATOM      9  C   UNL     1      35.679 -23.379 -13.194  0.00  0.00    +0.002 C 
ATOM     10  C   UNL     1      36.987 -25.403 -14.598  0.00  0.00    +0.011 C 
ATOM     11  C   UNL     1      37.061 -23.529 -13.075  0.00  0.00    +0.011 C 
ATOM     12  C   UNL     1      37.715 -24.541 -13.777  0.00  0.00    +0.058 C 
ENDBRANCH   3   7
BRANCH   1  13
ATOM     13  C   UNL     1      33.515 -22.771 -16.226  0.00  0.00    +0.074 C 
ATOM     14  C   UNL     1      32.829 -22.640 -17.426  0.00  0.00    +0.018 C 
ATOM     15  C   UNL     1      34.802 -22.273 -16.079  0.00  0.00    +0.018 C 
ATOM     16  C   UNL     1      34.738 -21.493 -18.365  0.00  0.00    +0.122 C 
ATOM     17  C   UNL     1      33.445 -21.998 -18.501  0.00  0.00    +0.021 C 
ATOM     18  C   UNL     1      35.416 -21.631 -17.154  0.00  0.00    +0.021 C 
BRANCH  16  19
ATOM     19  S   UNL     1      35.507 -20.689 -19.711  0.00  0.00    +0.057 S 
ATOM     20  O   UNL     1      36.416 -19.679 -19.184  0.00  0.00    -0.153 OA
ATOM     21  O   UNL     1      36.005 -21.701 -20.631  0.00  0.00    -0.153 OA
BRANCH  19  22
ATOM     22  N   UNL     1      34.169 -19.904 -20.429  0.00  0.00    -0.203 NA
ATOM     23  H   UNL     1      33.685 -19.346 -19.726  0.00  0.00    +0.144 HD
ATOM     24  H   UNL     1      33.530 -20.602 -20.808  0.00  0.00    +0.144 HD
ENDBRANCH  19  22
ENDBRANCH  16  19
ENDBRANCH   1  13
BRANCH   5  28
ATOM     25  F   UNL     1      29.414 -25.492 -13.900  0.00  0.00    -0.164 F 
ATOM     26  F   UNL     1      29.822 -24.323 -12.113  0.00  0.00    -0.164 F 
ATOM     27  F   UNL     1      29.100 -23.334 -13.917  0.00  0.00    -0.164 F 
ATOM     28  C   UNL     1      29.948 -24.308 -13.474  0.00  0.00    +0.436 C 
ENDBRANCH   5  28
TORSDOF 5
ENDMDL
MODEL 6
REMARK VINA RESULT:      -9.2      4.619      6.096
REMARK  Name = 9865808
REMARK  5 active torsions:
REMARK  status: ('A' for Active; 'I' for Inactive)
REMARK    1  A    between atoms: N_1  and  C_13
REMARK    2  A    between atoms: C_3  and  C_7
REMARK    3  A    between atoms: C_5  and  C_28
REMARK    4  A    between atoms: C_16  and  S_19
REMARK    5  A    between atoms: S_19  and  N_22
REMARK                            x       y       z     vdW  Elec       q    Type
REMARK                         _______ _______ _______ _____ _____    ______ ____
ROOT
ATOM      1  N   UNL     1      34.709 -23.161 -14.042  0.00  0.00    -0.190 N 
ATOM      2  N   UNL     1      35.877 -23.283 -13.391  0.00  0.00    -0.170 NA
ATOM      3  C   UNL     1      33.623 -23.545 -13.309  0.00  0.00    +0.075 C 
ATOM      4  C   UNL     1      34.121 -23.949 -12.092  0.00  0.00    +0.041 C 
ATOM      5  C   UNL     1      35.512 -23.765 -12.200  0.00  0.00    +0.172 C 
ENDROOT
BRANCH   3   7
ATOM      6 CL   UNL     1      27.998 -23.403 -15.251  0.00  0.00    -0.082 Cl
ATOM      7  C   UNL     1      32.260 -23.511 -13.780  0.00  0.00    +0.016 C 
ATOM      8  C   UNL     1      31.570 -24.702 -14.004  0.00  0.00    +0.002 C 
ATOM      9  C   UNL     1      31.633 -22.286 -14.011  0.00  0.00    +0.002 C 
ATOM     10  C   UNL     1      30.252 -24.668 -14.459  0.00  0.00    +0.011 C 
ATOM     11  C   UNL     1      30.315 -22.253 -14.466  0.00  0.00    +0.011 C 
ATOM     12  C   UNL     1      29.624 -23.444 -14.690  0.00  0.00    +0.058 C 
ENDBRANCH   3   7
BRANCH   1  13
ATOM     13  C   UNL     1      34.699 -22.675 -15.351  0.00  0.00    +0.074 C 
ATOM     14  C   UNL     1      33.590 -22.901 -16.156  0.00  0.00    +0.018 C 
ATOM     15  C   UNL     1      35.798 -21.974 -15.828  0.00  0.00    +0.018 C 
ATOM     16  C   UNL     1      34.679 -21.710 -17.954  0.00  0.00    +0.122 C 
ATOM     17  C   UNL     1      33.581 -22.416 -17.464  0.00  0.00    +0.021 C 
ATOM     18  C   UNL     1      35.788 -21.489 -17.136  0.00  0.00    +0.021 C 
BRANCH  16  19
ATOM     19  S   UNL     1      34.667 -21.102 -19.591  0.00  0.00    +0.057 S 
ATOM     20  O   UNL     1      35.602 -19.988 -19.675  0.00  0.00    -0.153 OA
ATOM     21  O   UNL     1      34.799 -22.229 -20.503  0.00  0.00    -0.153 OA
BRANCH  19  22
ATOM     22  N   UNL     1      33.073 -20.493 -19.699  0.00  0.00    -0.203 NA
ATOM     23  H   UNL     1      33.031 -19.573 -19.260  0.00  0.00    +0.144 HD
ATOM     24  H   UNL     1      32.434 -21.128 -19.222  0.00  0.00    +0.144 HD
ENDBRANCH  19  22
ENDBRANCH  16  19
ENDBRANCH   1  13
BRANCH   5  28
ATOM     25  F   UNL     1      37.641 -23.242 -11.291  0.00  0.00    -0.164 F 
ATOM     26  F   UNL     1      36.089 -23.857  -9.898  0.00  0.00    -0.164 F 
ATOM     27  F   UNL     1      36.994 -25.323 -11.234  0.00  0.00    -0.164 F 
ATOM     28  C   UNL     1      36.536 -24.038 -11.177  0.00  0.00    +0.436 C 
ENDBRANCH   5  28
TORSDOF 5
ENDMDL
MODEL 7
REMARK VINA RESULT:      -9.1      5.436      7.188
REMARK  Name = 9865808
REMARK  5 active torsions:
REMARK  status: ('A' for Active; 'I' for Inactive)
REMARK    1  A    between atoms: N_1  and  C_13
REMARK    2  A    between atoms: C_3  and  C_7
REMARK    3  A    between atoms: C_5  and  C_28
REMARK    4  A    between atoms: C_16  and  S_19
REMARK    5  A    between atoms: S_19  and  N_22
REMARK                            x       y       z     vdW  Elec       q    Type
REMARK                         _______ _______ _______ _____ _____    ______ ____
ROOT
ATOM      1  N   UNL     1      34.354 -22.201 -16.709  0.00  0.00    -0.190 N 
ATOM      2  N   UNL     1      34.182 -21.593 -17.895  0.00  0.00    -0.170 NA
ATOM      3  C   UNL     1      35.658 -22.284 -16.314  0.00  0.00    +0.075 C 
ATOM      4  C   UNL     1      36.389 -21.689 -17.315  0.00  0.00    +0.041 C 
ATOM      5  C   UNL     1      35.429 -21.283 -18.260  0.00  0.00    +0.172 C 
ENDROOT
BRANCH   3   7
ATOM      6 CL   UNL     1      37.504 -24.783 -11.236  0.00  0.00    -0.082 Cl
ATOM      7  C   UNL     1      36.105 -22.890 -15.083  0.00  0.00    +0.016 C 
ATOM      8  C   UNL     1      36.312 -24.267 -15.019  0.00  0.00    +0.002 C 
ATOM      9  C   UNL     1      36.330 -22.097 -13.957  0.00  0.00    +0.002 C 
ATOM     10  C   UNL     1      36.745 -24.853 -13.830  0.00  0.00    +0.011 C 
ATOM     11  C   UNL     1      36.763 -22.683 -12.768  0.00  0.00    +0.011 C 
ATOM     12  C   UNL     1      36.970 -24.061 -12.704  0.00  0.00    +0.058 C 
ENDBRANCH   3   7
BRANCH   1  13
ATOM     13  C   UNL     1      33.241 -22.674 -16.012  0.00  0.00    +0.074 C 
ATOM     14  C   UNL     1      33.368 -23.016 -14.672  0.00  0.00    +0.018 C 
ATOM     15  C   UNL     1      32.023 -22.795 -16.669  0.00  0.00    +0.018 C 
ATOM     16  C   UNL     1      31.027 -23.615 -14.625  0.00  0.00    +0.122 C 
ATOM     17  C   UNL     1      32.255 -23.489 -13.976  0.00  0.00    +0.021 C 
ATOM     18  C   UNL     1      30.912 -23.268 -15.971  0.00  0.00    +0.021 C 
BRANCH  16  19
ATOM     19  S   UNL     1      29.635 -24.206 -13.753  0.00  0.00    +0.057 S 
ATOM     20  O   UNL     1      29.950 -24.209 -12.331  0.00  0.00    -0.153 OA
ATOM     21  O   UNL     1      28.456 -23.500 -14.231  0.00  0.00    -0.153 OA
BRANCH  19  22
ATOM     22  N   UNL     1      29.569 -25.823 -14.305  0.00  0.00    -0.203 NA
ATOM     23  H   UNL     1      28.600 -26.075 -14.501  0.00  0.00    +0.144 HD
ATOM     24  H   UNL     1      29.943 -26.442 -13.586  0.00  0.00    +0.144 HD
ENDBRANCH  19  22
ENDBRANCH  16  19
ENDBRANCH   1  13
BRANCH   5  28
ATOM     25  F   UNL     1      34.525 -20.078 -20.094  0.00  0.00    -0.164 F 
ATOM     26  F   UNL     1      36.519 -19.525 -19.427  0.00  0.00    -0.164 F 
ATOM     27  F   UNL     1      36.208 -21.408 -20.481  0.00  0.00    -0.164 F 
ATOM     28  C   UNL     1      35.664 -20.587 -19.537  0.00  0.00    +0.436 C 
ENDBRANCH   5  28
TORSDOF 5
ENDMDL
