MODEL 1
REMARK VINA RESULT:     -12.8      0.000      0.000
REMARK  Name = 446752
REMARK  3 active torsions:
REMARK  status: ('A' for Active; 'I' for Inactive)
REMARK    1  A    between atoms: C_6  and  C_18
REMARK    2  A    between atoms: C_18  and  N_19
REMARK    3  A    between atoms: N_19  and  C_22
REMARK                            x       y       z     vdW  Elec       q    Type
REMARK                         _______ _______ _______ _____ _____    ______ ____
ROOT
ATOM      1  N   UNL     1      32.107 -20.392 -20.196  0.00  0.00    -0.182 NA
ATOM      2  N   UNL     1      31.970 -21.773 -18.343  0.00  0.00    -0.273 NA
ATOM      3  N   UNL     1      33.934 -22.434 -17.118  0.00  0.00    -0.312 NA
ATOM      4  N   UNL     1      36.048 -21.708 -17.754  0.00  0.00    -0.332 N 
ATOM      5  N   UNL     1      31.811 -23.174 -16.466  0.00  0.00    -0.283 N 
ATOM      6  C   UNL     1      34.229 -19.567 -20.965  0.00  0.00    +0.010 C 
ATOM      7  C   UNL     1      34.864 -20.240 -19.947  0.00  0.00    -0.009 C 
ATOM      8  C   UNL     1      34.097 -20.994 -19.047  0.00  0.00    +0.115 C 
ATOM      9  C   UNL     1      32.707 -21.054 -19.197  0.00  0.00    +0.104 C 
ATOM     10  C   UNL     1      32.864 -19.668 -21.056  0.00  0.00    +0.107 C 
ATOM     11  C   UNL     1      36.355 -20.111 -19.873  0.00  0.00    +0.032 C 
ATOM     12  C   UNL     1      34.655 -21.706 -17.987  0.00  0.00    +0.201 C 
ATOM     13  C   UNL     1      32.615 -22.423 -17.351  0.00  0.00    +0.206 C 
ATOM     14  H   UNL     1      36.419 -22.218 -16.999  0.00  0.00    +0.145 HD
ATOM     15  H   UNL     1      36.646 -21.199 -18.348  0.00  0.00    +0.145 HD
ATOM     16  H   UNL     1      30.835 -23.202 -16.591  0.00  0.00    +0.156 HD
ATOM     17  H   UNL     1      32.227 -23.669 -15.724  0.00  0.00    +0.156 HD
ENDROOT
BRANCH   6  18
ATOM     18  C   UNL     1      34.978 -18.737 -21.972  0.00  0.00    +0.097 C 
BRANCH  18  19
ATOM     19  N   UNL     1      34.814 -17.347 -21.694  0.00  0.00    -0.288 NA
ATOM     20  H   UNL     1      35.071 -17.010 -20.804  0.00  0.00    +0.124 HD
BRANCH  19  22
ATOM     21  N   UNL     1      33.003 -12.996 -22.930  0.00  0.00    -0.248 NA
ATOM     22  C   UNL     1      34.299 -16.432 -22.643  0.00  0.00    +0.101 C 
ATOM     23  C   UNL     1      33.903 -15.135 -22.278  0.00  0.00    +0.010 C 
ATOM     24  C   UNL     1      33.392 -14.246 -23.247  0.00  0.00    +0.061 C 
ATOM     25  C   UNL     1      34.194 -16.855 -23.966  0.00  0.00    -0.010 C 
ATOM     26  C   UNL     1      33.998 -14.683 -20.955  0.00  0.00    +0.000 C 
ATOM     27  C   UNL     1      33.296 -14.695 -24.561  0.00  0.00    +0.071 C 
ATOM     28  C   UNL     1      33.692 -15.984 -24.925  0.00  0.00    -0.023 C 
ATOM     29  C   UNL     1      33.598 -13.397 -20.625  0.00  0.00    +0.020 C 
ATOM     30  C   UNL     1      33.112 -12.600 -21.641  0.00  0.00    +0.098 C 
ENDBRANCH  19  22
ENDBRANCH  18  19
ENDBRANCH   6  18
TORSDOF 3
ENDMDL
MODEL 2
REMARK VINA RESULT:     -12.7      3.338      6.966
REMARK  Name = 446752
REMARK  3 active torsions:
REMARK  status: ('A' for Active; 'I' for Inactive)
REMARK    1  A    between atoms: C_6  and  C_18
REMARK    2  A    between atoms: C_18  and  N_19
REMARK    3  A    between atoms: N_19  and  C_22
REMARK                            x       y       z     vdW  Elec       q    Type
REMARK                         _______ _______ _______ _____ _____    ______ ____
ROOT
ATOM      1  N   UNL     1      34.181 -14.547 -20.408  0.00  0.00    -0.182 NA
ATOM      2  N   UNL     1      34.816 -16.766 -20.581  0.00  0.00    -0.273 NA
ATOM      3  N   UNL     1      34.736 -17.939 -22.682  0.00  0.00    -0.312 NA
ATOM      4  N   UNL     1      34.015 -16.881 -24.621  0.00  0.00    -0.332 N 
ATOM      5  N   UNL     1      35.463 -19.017 -20.735  0.00  0.00    -0.283 N 
ATOM      6  C   UNL     1      33.415 -13.330 -22.335  0.00  0.00    +0.010 C 
ATOM      7  C   UNL     1      33.591 -14.449 -23.116  0.00  0.00    -0.009 C 
ATOM      8  C   UNL     1      34.070 -15.626 -22.523  0.00  0.00    +0.115 C 
ATOM      9  C   UNL     1      34.359 -15.647 -21.153  0.00  0.00    +0.104 C 
ATOM     10  C   UNL     1      33.717 -13.419 -20.999  0.00  0.00    +0.107 C 
ATOM     11  C   UNL     1      33.252 -14.322 -24.570  0.00  0.00    +0.032 C 
ATOM     12  C   UNL     1      34.278 -16.804 -23.236  0.00  0.00    +0.201 C 
ATOM     13  C   UNL     1      34.981 -17.851 -21.368  0.00  0.00    +0.206 C 
ATOM     14  H   UNL     1      34.170 -17.725 -25.105  0.00  0.00    +0.145 HD
ATOM     15  H   UNL     1      33.676 -16.092 -25.102  0.00  0.00    +0.145 HD
ATOM     16  H   UNL     1      35.661 -19.010 -19.771  0.00  0.00    +0.156 HD
ATOM     17  H   UNL     1      35.603 -19.839 -21.260  0.00  0.00    +0.156 HD
ENDROOT
BRANCH   6  18
ATOM     18  C   UNL     1      32.905 -12.030 -22.893  0.00  0.00    +0.097 C 
BRANCH  18  19
ATOM     19  N   UNL     1      31.658 -11.683 -22.292  0.00  0.00    -0.288 NA
ATOM     20  H   UNL     1      30.862 -12.219 -22.513  0.00  0.00    +0.124 HD
BRANCH  19  22
ATOM     21  N   UNL     1      31.234  -6.928 -21.314  0.00  0.00    -0.248 NA
ATOM     22  C   UNL     1      31.518 -10.599 -21.391  0.00  0.00    +0.101 C 
ATOM     23  C   UNL     1      31.445  -9.271 -21.840  0.00  0.00    +0.010 C 
ATOM     24  C   UNL     1      31.306  -8.213 -20.918  0.00  0.00    +0.061 C 
ATOM     25  C   UNL     1      31.452 -10.888 -20.030  0.00  0.00    -0.010 C 
ATOM     26  C   UNL     1      31.509  -8.952 -23.203  0.00  0.00    +0.000 C 
ATOM     27  C   UNL     1      31.244  -8.529 -19.564  0.00  0.00    +0.071 C 
ATOM     28  C   UNL     1      31.315  -9.851 -19.116  0.00  0.00    -0.023 C 
ATOM     29  C   UNL     1      31.435  -7.630 -23.616  0.00  0.00    +0.020 C 
ATOM     30  C   UNL     1      31.299  -6.664 -22.640  0.00  0.00    +0.098 C 
ENDBRANCH  19  22
ENDBRANCH  18  19
ENDBRANCH   6  18
TORSDOF 3
ENDMDL
MODEL 3
REMARK VINA RESULT:     -12.6      0.996      1.122
REMARK  Name = 446752
REMARK  3 active torsions:
REMARK  status: ('A' for Active; 'I' for Inactive)
REMARK    1  A    between atoms: C_6  and  C_18
REMARK    2  A    between atoms: C_18  and  N_19
REMARK    3  A    between atoms: N_19  and  C_22
REMARK                            x       y       z     vdW  Elec       q    Type
REMARK                         _______ _______ _______ _____ _____    ______ ____
ROOT
ATOM      1  N   UNL     1      31.896 -20.816 -19.508  0.00  0.00    -0.182 NA
ATOM      2  N   UNL     1      31.438 -22.127 -17.656  0.00  0.00    -0.273 NA
ATOM      3  N   UNL     1      33.194 -22.936 -16.221  0.00  0.00    -0.312 NA
ATOM      4  N   UNL     1      35.421 -22.429 -16.646  0.00  0.00    -0.332 N 
ATOM      5  N   UNL     1      30.954 -23.455 -15.782  0.00  0.00    -0.283 N 
ATOM      6  C   UNL     1      34.155 -20.215 -20.065  0.00  0.00    +0.010 C 
ATOM      7  C   UNL     1      34.615 -20.916 -18.975  0.00  0.00    -0.009 C 
ATOM      8  C   UNL     1      33.691 -21.571 -18.147  0.00  0.00    +0.115 C 
ATOM      9  C   UNL     1      32.324 -21.504 -18.441  0.00  0.00    +0.104 C 
ATOM     10  C   UNL     1      32.803 -20.190 -20.296  0.00  0.00    +0.107 C 
ATOM     11  C   UNL     1      36.096 -20.927 -18.748  0.00  0.00    +0.032 C 
ATOM     12  C   UNL     1      34.067 -22.303 -17.023  0.00  0.00    +0.201 C 
ATOM     13  C   UNL     1      31.913 -22.808 -16.591  0.00  0.00    +0.206 C 
ATOM     14  H   UNL     1      35.663 -22.952 -15.847  0.00  0.00    +0.145 HD
ATOM     15  H   UNL     1      36.124 -21.996 -17.183  0.00  0.00    +0.145 HD
ATOM     16  H   UNL     1      29.997 -23.394 -16.007  0.00  0.00    +0.156 HD
ATOM     17  H   UNL     1      31.242 -23.967 -14.992  0.00  0.00    +0.156 HD
ENDROOT
BRANCH   6  18
ATOM     18  C   UNL     1      35.080 -19.486 -21.003  0.00  0.00    +0.097 C 
BRANCH  18  19
ATOM     19  N   UNL     1      34.824 -18.083 -20.966  0.00  0.00    -0.288 NA
ATOM     20  H   UNL     1      34.910 -17.610 -20.106  0.00  0.00    +0.124 HD
BRANCH  19  22
ATOM     21  N   UNL     1      33.501 -13.945 -23.171  0.00  0.00    -0.248 NA
ATOM     22  C   UNL     1      34.453 -17.342 -22.114  0.00  0.00    +0.101 C 
ATOM     23  C   UNL     1      34.158 -15.970 -22.043  0.00  0.00    +0.010 C 
ATOM     24  C   UNL     1      33.791 -15.259 -23.204  0.00  0.00    +0.061 C 
ATOM     25  C   UNL     1      34.389 -18.014 -23.331  0.00  0.00    -0.010 C 
ATOM     26  C   UNL     1      34.216 -15.269 -20.830  0.00  0.00    +0.000 C 
ATOM     27  C   UNL     1      33.733 -15.956 -24.407  0.00  0.00    +0.071 C 
ATOM     28  C   UNL     1      34.028 -17.320 -24.479  0.00  0.00    -0.023 C 
ATOM     29  C   UNL     1      33.918 -13.915 -20.792  0.00  0.00    +0.020 C 
ATOM     30  C   UNL     1      33.570 -13.305 -21.980  0.00  0.00    +0.098 C 
ENDBRANCH  19  22
ENDBRANCH  18  19
ENDBRANCH   6  18
TORSDOF 3
ENDMDL
MODEL 4
REMARK VINA RESULT:     -12.5      0.939      2.185
REMARK  Name = 446752
REMARK  3 active torsions:
REMARK  status: ('A' for Active; 'I' for Inactive)
REMARK    1  A    between atoms: C_6  and  C_18
REMARK    2  A    between atoms: C_18  and  N_19
REMARK    3  A    between atoms: N_19  and  C_22
REMARK                            x       y       z     vdW  Elec       q    Type
REMARK                         _______ _______ _______ _____ _____    ______ ____
ROOT
ATOM      1  N   UNL     1      36.404 -20.343 -19.172  0.00  0.00    -0.182 NA
ATOM      2  N   UNL     1      36.097 -21.722 -17.338  0.00  0.00    -0.273 NA
ATOM      3  N   UNL     1      33.930 -22.611 -16.780  0.00  0.00    -0.312 NA
ATOM      4  N   UNL     1      32.061 -22.115 -18.068  0.00  0.00    -0.332 N 
ATOM      5  N   UNL     1      35.805 -23.117 -15.473  0.00  0.00    -0.283 N 
ATOM      6  C   UNL     1      34.557 -19.749 -20.591  0.00  0.00    +0.010 C 
ATOM      7  C   UNL     1      33.710 -20.499 -19.809  0.00  0.00    -0.009 C 
ATOM      8  C   UNL     1      34.230 -21.176 -18.696  0.00  0.00    +0.115 C 
ATOM      9  C   UNL     1      35.594 -21.079 -18.398  0.00  0.00    +0.104 C 
ATOM     10  C   UNL     1      35.883 -19.696 -20.243  0.00  0.00    +0.107 C 
ATOM     11  C   UNL     1      32.267 -20.537 -20.213  0.00  0.00    +0.032 C 
ATOM     12  C   UNL     1      33.447 -21.957 -17.850  0.00  0.00    +0.201 C 
ATOM     13  C   UNL     1      35.246 -22.452 -16.586  0.00  0.00    +0.206 C 
ATOM     14  H   UNL     1      31.527 -22.672 -17.456  0.00  0.00    +0.145 HD
ATOM     15  H   UNL     1      31.628 -21.667 -18.831  0.00  0.00    +0.145 HD
ATOM     16  H   UNL     1      36.768 -23.036 -15.283  0.00  0.00    +0.156 HD
ATOM     17  H   UNL     1      35.232 -23.664 -14.889  0.00  0.00    +0.156 HD
ENDROOT
BRANCH   6  18
ATOM     18  C   UNL     1      34.079 -18.993 -21.801  0.00  0.00    +0.097 C 
BRANCH  18  19
ATOM     19  N   UNL     1      34.670 -17.695 -21.844  0.00  0.00    -0.288 NA
ATOM     20  H   UNL     1      35.407 -17.490 -21.223  0.00  0.00    +0.124 HD
BRANCH  19  22
ATOM     21  N   UNL     1      33.289 -13.130 -22.845  0.00  0.00    -0.248 NA
ATOM     22  C   UNL     1      34.240 -16.687 -22.741  0.00  0.00    +0.101 C 
ATOM     23  C   UNL     1      33.978 -15.377 -22.308  0.00  0.00    +0.010 C 
ATOM     24  C   UNL     1      33.550 -14.395 -23.226  0.00  0.00    +0.061 C 
ATOM     25  C   UNL     1      34.083 -17.031 -24.081  0.00  0.00    -0.010 C 
ATOM     26  C   UNL     1      34.128 -15.003 -20.966  0.00  0.00    +0.000 C 
ATOM     27  C   UNL     1      33.400 -14.766 -24.559  0.00  0.00    +0.071 C 
ATOM     28  C   UNL     1      33.662 -16.069 -24.990  0.00  0.00    -0.023 C 
ATOM     29  C   UNL     1      33.861 -13.701 -20.569  0.00  0.00    +0.020 C 
ATOM     30  C   UNL     1      33.448 -12.811 -21.539  0.00  0.00    +0.098 C 
ENDBRANCH  19  22
ENDBRANCH  18  19
ENDBRANCH   6  18
TORSDOF 3
ENDMDL
MODEL 5
REMARK VINA RESULT:     -12.5      1.440      7.992
REMARK  Name = 446752
REMARK  3 active torsions:
REMARK  status: ('A' for Active; 'I' for Inactive)
REMARK    1  A    between atoms: C_6  and  C_18
REMARK    2  A    between atoms: C_18  and  N_19
REMARK    3  A    between atoms: N_19  and  C_22
REMARK                            x       y       z     vdW  Elec       q    Type
REMARK                         _______ _______ _______ _____ _____    ______ ____
ROOT
ATOM      1  N   UNL     1      34.235 -15.122 -20.737  0.00  0.00    -0.182 NA
ATOM      2  N   UNL     1      33.318 -13.171 -21.580  0.00  0.00    -0.273 NA
ATOM      3  N   UNL     1      32.709 -12.967 -23.900  0.00  0.00    -0.312 NA
ATOM      4  N   UNL     1      33.021 -14.728 -25.384  0.00  0.00    -0.332 N 
ATOM      5  N   UNL     1      32.390 -11.184 -22.417  0.00  0.00    -0.283 N 
ATOM      6  C   UNL     1      34.613 -17.022 -22.159  0.00  0.00    +0.010 C 
ATOM      7  C   UNL     1      34.109 -16.325 -23.232  0.00  0.00    -0.009 C 
ATOM      8  C   UNL     1      33.664 -15.009 -23.040  0.00  0.00    +0.115 C 
ATOM      9  C   UNL     1      33.740 -14.427 -21.770  0.00  0.00    +0.104 C 
ATOM     10  C   UNL     1      34.661 -16.393 -20.941  0.00  0.00    +0.107 C 
ATOM     11  C   UNL     1      34.070 -17.038 -24.549  0.00  0.00    +0.032 C 
ATOM     12  C   UNL     1      33.138 -14.229 -24.068  0.00  0.00    +0.201 C 
ATOM     13  C   UNL     1      32.826 -12.507 -22.648  0.00  0.00    +0.206 C 
ATOM     14  H   UNL     1      32.647 -14.158 -26.094  0.00  0.00    +0.145 HD
ATOM     15  H   UNL     1      33.315 -15.644 -25.590  0.00  0.00    +0.145 HD
ATOM     16  H   UNL     1      32.452 -10.795 -21.515  0.00  0.00    +0.156 HD
ATOM     17  H   UNL     1      32.021 -10.652 -23.159  0.00  0.00    +0.156 HD
ENDROOT
BRANCH   6  18
ATOM     18  C   UNL     1      35.112 -18.437 -22.280  0.00  0.00    +0.097 C 
BRANCH  18  19
ATOM     19  N   UNL     1      35.352 -18.994 -20.989  0.00  0.00    -0.288 NA
ATOM     20  H   UNL     1      36.212 -18.807 -20.546  0.00  0.00    +0.124 HD
BRANCH  19  22
ATOM     21  N   UNL     1      34.115 -22.187 -17.523  0.00  0.00    -0.248 NA
ATOM     22  C   UNL     1      34.406 -19.806 -20.318  0.00  0.00    +0.101 C 
ATOM     23  C   UNL     1      34.767 -20.608 -19.222  0.00  0.00    +0.010 C 
ATOM     24  C   UNL     1      33.802 -21.406 -18.574  0.00  0.00    +0.061 C 
ATOM     25  C   UNL     1      33.091 -19.789 -20.775  0.00  0.00    -0.010 C 
ATOM     26  C   UNL     1      36.083 -20.644 -18.741  0.00  0.00    +0.000 C 
ATOM     27  C   UNL     1      32.496 -21.371 -19.053  0.00  0.00    +0.071 C 
ATOM     28  C   UNL     1      32.135 -20.573 -20.141  0.00  0.00    -0.023 C 
ATOM     29  C   UNL     1      36.409 -21.446 -17.658  0.00  0.00    +0.020 C 
ATOM     30  C   UNL     1      35.397 -22.192 -17.089  0.00  0.00    +0.098 C 
ENDBRANCH  19  22
ENDBRANCH  18  19
ENDBRANCH   6  18
TORSDOF 3
ENDMDL
MODEL 6
REMARK VINA RESULT:     -12.4      1.157      3.019
REMARK  Name = 446752
REMARK  3 active torsions:
REMARK  status: ('A' for Active; 'I' for Inactive)
REMARK    1  A    between atoms: C_6  and  C_18
REMARK    2  A    between atoms: C_18  and  N_19
REMARK    3  A    between atoms: N_19  and  C_22
REMARK                            x       y       z     vdW  Elec       q    Type
REMARK                         _______ _______ _______ _____ _____    ______ ____
ROOT
ATOM      1  N   UNL     1      36.451 -19.410 -20.003  0.00  0.00    -0.182 NA
ATOM      2  N   UNL     1      36.292 -20.891 -18.231  0.00  0.00    -0.273 NA
ATOM      3  N   UNL     1      34.232 -22.030 -17.724  0.00  0.00    -0.312 NA
ATOM      4  N   UNL     1      32.321 -21.682 -18.999  0.00  0.00    -0.332 N 
ATOM      5  N   UNL     1      36.150 -22.389 -16.430  0.00  0.00    -0.283 N 
ATOM      6  C   UNL     1      34.552 -18.956 -21.405  0.00  0.00    +0.010 C 
ATOM      7  C   UNL     1      33.789 -19.825 -20.660  0.00  0.00    -0.009 C 
ATOM      8  C   UNL     1      34.378 -20.490 -19.575  0.00  0.00    +0.115 C 
ATOM      9  C   UNL     1      35.724 -20.261 -19.266  0.00  0.00    +0.104 C 
ATOM     10  C   UNL     1      35.864 -18.777 -21.048  0.00  0.00    +0.107 C 
ATOM     11  C   UNL     1      32.359 -20.000 -21.073  0.00  0.00    +0.032 C 
ATOM     12  C   UNL     1      33.682 -21.386 -18.767  0.00  0.00    +0.201 C 
ATOM     13  C   UNL     1      35.523 -21.739 -17.515  0.00  0.00    +0.206 C 
ATOM     14  H   UNL     1      31.850 -22.319 -18.414  0.00  0.00    +0.145 HD
ATOM     15  H   UNL     1      31.844 -21.250 -19.744  0.00  0.00    +0.145 HD
ATOM     16  H   UNL     1      37.098 -22.213 -16.231  0.00  0.00    +0.156 HD
ATOM     17  H   UNL     1      35.638 -23.019 -15.872  0.00  0.00    +0.156 HD
ENDROOT
BRANCH   6  18
ATOM     18  C   UNL     1      33.996 -18.203 -22.584  0.00  0.00    +0.097 C 
BRANCH  18  19
ATOM     19  N   UNL     1      34.726 -16.995 -22.794  0.00  0.00    -0.288 NA
ATOM     20  H   UNL     1      35.610 -17.047 -23.225  0.00  0.00    +0.124 HD
BRANCH  19  22
ATOM     21  N   UNL     1      32.724 -12.671 -23.809  0.00  0.00    -0.248 NA
ATOM     22  C   UNL     1      34.232 -15.726 -22.409  0.00  0.00    +0.101 C 
ATOM     23  C   UNL     1      33.712 -14.820 -23.349  0.00  0.00    +0.010 C 
ATOM     24  C   UNL     1      33.228 -13.562 -22.934  0.00  0.00    +0.061 C 
ATOM     25  C   UNL     1      34.273 -15.393 -21.058  0.00  0.00    -0.010 C 
ATOM     26  C   UNL     1      33.659 -15.130 -24.715  0.00  0.00    +0.000 C 
ATOM     27  C   UNL     1      33.282 -13.254 -21.578  0.00  0.00    +0.071 C 
ATOM     28  C   UNL     1      33.797 -14.155 -20.642  0.00  0.00    -0.023 C 
ATOM     29  C   UNL     1      33.141 -14.214 -25.618  0.00  0.00    +0.020 C 
ATOM     30  C   UNL     1      32.690 -13.009 -25.119  0.00  0.00    +0.098 C 
ENDBRANCH  19  22
ENDBRANCH  18  19
ENDBRANCH   6  18
TORSDOF 3
ENDMDL
MODEL 7
REMARK VINA RESULT:     -12.2      0.827      2.032
REMARK  Name = 446752
REMARK  3 active torsions:
REMARK  status: ('A' for Active; 'I' for Inactive)
REMARK    1  A    between atoms: C_6  and  C_18
REMARK    2  A    between atoms: C_18  and  N_19
REMARK    3  A    between atoms: N_19  and  C_22
REMARK                            x       y       z     vdW  Elec       q    Type
REMARK                         _______ _______ _______ _____ _____    ______ ____
ROOT
ATOM      1  N   UNL     1      32.348 -20.085 -20.751  0.00  0.00    -0.182 NA
ATOM      2  N   UNL     1      32.190 -21.578 -18.989  0.00  0.00    -0.273 NA
ATOM      3  N   UNL     1      34.120 -22.206 -17.694  0.00  0.00    -0.312 NA
ATOM      4  N   UNL     1      36.221 -21.333 -18.168  0.00  0.00    -0.332 N 
ATOM      5  N   UNL     1      32.010 -23.093 -17.205  0.00  0.00    -0.283 N 
ATOM      6  C   UNL     1      34.459 -19.106 -21.352  0.00  0.00    +0.010 C 
ATOM      7  C   UNL     1      35.075 -19.803 -20.338  0.00  0.00    -0.009 C 
ATOM      8  C   UNL     1      34.305 -20.649 -19.527  0.00  0.00    +0.115 C 
ATOM      9  C   UNL     1      32.931 -20.772 -19.758  0.00  0.00    +0.104 C 
ATOM     10  C   UNL     1      33.109 -19.273 -21.525  0.00  0.00    +0.107 C 
ATOM     11  C   UNL     1      36.551 -19.601 -20.174  0.00  0.00    +0.032 C 
ATOM     12  C   UNL     1      34.845 -21.391 -18.479  0.00  0.00    +0.201 C 
ATOM     13  C   UNL     1      32.817 -22.251 -18.000  0.00  0.00    +0.206 C 
ATOM     14  H   UNL     1      36.580 -21.867 -17.423  0.00  0.00    +0.145 HD
ATOM     15  H   UNL     1      36.821 -20.760 -18.698  0.00  0.00    +0.145 HD
ATOM     16  H   UNL     1      31.045 -23.165 -17.386  0.00  0.00    +0.156 HD
ATOM     17  H   UNL     1      32.413 -23.609 -16.469  0.00  0.00    +0.156 HD
ENDROOT
BRANCH   6  18
ATOM     18  C   UNL     1      35.213 -18.179 -22.267  0.00  0.00    +0.097 C 
BRANCH  18  19
ATOM     19  N   UNL     1      34.315 -17.289 -22.927  0.00  0.00    -0.288 NA
ATOM     20  H   UNL     1      33.847 -17.603 -23.734  0.00  0.00    +0.124 HD
BRANCH  19  22
ATOM     21  N   UNL     1      33.019 -12.651 -23.665  0.00  0.00    -0.248 NA
ATOM     22  C   UNL     1      34.068 -15.972 -22.469  0.00  0.00    +0.101 C 
ATOM     23  C   UNL     1      33.654 -14.953 -23.342  0.00  0.00    +0.010 C 
ATOM     24  C   UNL     1      33.416 -13.650 -22.856  0.00  0.00    +0.061 C 
ATOM     25  C   UNL     1      34.248 -15.709 -21.113  0.00  0.00    -0.010 C 
ATOM     26  C   UNL     1      33.465 -15.190 -24.710  0.00  0.00    +0.000 C 
ATOM     27  C   UNL     1      33.605 -13.414 -21.497  0.00  0.00    +0.071 C 
ATOM     28  C   UNL     1      34.016 -14.428 -20.628  0.00  0.00    -0.023 C 
ATOM     29  C   UNL     1      33.056 -14.163 -25.547  0.00  0.00    +0.020 C 
ATOM     30  C   UNL     1      32.848 -12.922 -24.980  0.00  0.00    +0.098 C 
ENDBRANCH  19  22
ENDBRANCH  18  19
ENDBRANCH   6  18
TORSDOF 3
ENDMDL
MODEL 8
REMARK VINA RESULT:     -12.0      3.273      6.691
REMARK  Name = 446752
REMARK  3 active torsions:
REMARK  status: ('A' for Active; 'I' for Inactive)
REMARK    1  A    between atoms: C_6  and  C_18
REMARK    2  A    between atoms: C_18  and  N_19
REMARK    3  A    between atoms: N_19  and  C_22
REMARK                            x       y       z     vdW  Elec       q    Type
REMARK                         _______ _______ _______ _____ _____    ______ ____
ROOT
ATOM      1  N   UNL     1      34.168 -14.506 -20.643  0.00  0.00    -0.182 NA
ATOM      2  N   UNL     1      34.820 -16.726 -20.578  0.00  0.00    -0.273 NA
ATOM      3  N   UNL     1      34.766 -18.112 -22.546  0.00  0.00    -0.312 NA
ATOM      4  N   UNL     1      34.054 -17.269 -24.590  0.00  0.00    -0.332 N 
ATOM      5  N   UNL     1      35.485 -18.975 -20.491  0.00  0.00    -0.283 N 
ATOM      6  C   UNL     1      33.409 -13.503 -22.692  0.00  0.00    +0.010 C 
ATOM      7  C   UNL     1      33.600 -14.696 -23.351  0.00  0.00    -0.009 C 
ATOM      8  C   UNL     1      34.082 -15.801 -22.634  0.00  0.00    +0.115 C 
ATOM      9  C   UNL     1      34.360 -15.676 -21.268  0.00  0.00    +0.104 C 
ATOM     10  C   UNL     1      33.701 -13.450 -21.353  0.00  0.00    +0.107 C 
ATOM     11  C   UNL     1      33.272 -14.725 -24.813  0.00  0.00    +0.032 C 
ATOM     12  C   UNL     1      34.305 -17.045 -23.219  0.00  0.00    +0.201 C 
ATOM     13  C   UNL     1      35.000 -17.885 -21.246  0.00  0.00    +0.206 C 
ATOM     14  H   UNL     1      34.219 -18.157 -24.982  0.00  0.00    +0.145 HD
ATOM     15  H   UNL     1      33.713 -16.537 -25.154  0.00  0.00    +0.145 HD
ATOM     16  H   UNL     1      35.674 -18.865 -19.532  0.00  0.00    +0.156 HD
ATOM     17  H   UNL     1      35.635 -19.846 -20.926  0.00  0.00    +0.156 HD
ENDROOT
BRANCH   6  18
ATOM     18  C   UNL     1      32.895 -12.272 -23.387  0.00  0.00    +0.097 C 
BRANCH  18  19
ATOM     19  N   UNL     1      31.888 -11.637 -22.600  0.00  0.00    -0.288 NA
ATOM     20  H   UNL     1      31.215 -12.200 -22.151  0.00  0.00    +0.124 HD
BRANCH  19  22
ATOM     21  N   UNL     1      31.328  -7.649 -19.858  0.00  0.00    -0.248 NA
ATOM     22  C   UNL     1      31.817 -10.233 -22.436  0.00  0.00    +0.101 C 
ATOM     23  C   UNL     1      31.601  -9.646 -21.179  0.00  0.00    +0.010 C 
ATOM     24  C   UNL     1      31.534  -8.244 -21.048  0.00  0.00    +0.061 C 
ATOM     25  C   UNL     1      31.968  -9.437 -23.569  0.00  0.00    -0.010 C 
ATOM     26  C   UNL     1      31.446 -10.424 -20.023  0.00  0.00    +0.000 C 
ATOM     27  C   UNL     1      31.687  -7.471 -22.196  0.00  0.00    +0.071 C 
ATOM     28  C   UNL     1      31.903  -8.054 -23.447  0.00  0.00    -0.023 C 
ATOM     29  C   UNL     1      31.234  -9.815 -18.795  0.00  0.00    +0.020 C 
ATOM     30  C   UNL     1      31.184  -8.436 -18.766  0.00  0.00    +0.098 C 
ENDBRANCH  19  22
ENDBRANCH  18  19
ENDBRANCH   6  18
TORSDOF 3
ENDMDL
MODEL 9
REMARK VINA RESULT:     -11.8      4.321      7.147
REMARK  Name = 446752
REMARK  3 active torsions:
REMARK  status: ('A' for Active; 'I' for Inactive)
REMARK    1  A    between atoms: C_6  and  C_18
REMARK    2  A    between atoms: C_18  and  N_19
REMARK    3  A    between atoms: N_19  and  C_22
REMARK                            x       y       z     vdW  Elec       q    Type
REMARK                         _______ _______ _______ _____ _____    ______ ____
ROOT
ATOM      1  N   UNL     1      33.161 -14.994 -25.275  0.00  0.00    -0.182 NA
ATOM      2  N   UNL     1      33.663 -17.202 -24.796  0.00  0.00    -0.273 NA
ATOM      3  N   UNL     1      34.378 -17.882 -22.599  0.00  0.00    -0.312 NA
ATOM      4  N   UNL     1      34.593 -16.340 -20.875  0.00  0.00    -0.332 N 
ATOM      5  N   UNL     1      34.168 -19.447 -24.329  0.00  0.00    -0.283 N 
ATOM      6  C   UNL     1      33.340 -13.294 -23.586  0.00  0.00    +0.010 C 
ATOM      7  C   UNL     1      33.748 -14.238 -22.673  0.00  0.00    -0.009 C 
ATOM      8  C   UNL     1      33.860 -15.576 -23.080  0.00  0.00    +0.115 C 
ATOM      9  C   UNL     1      33.558 -15.928 -24.400  0.00  0.00    +0.104 C 
ATOM     10  C   UNL     1      33.060 -13.707 -24.864  0.00  0.00    +0.107 C 
ATOM     11  C   UNL     1      34.048 -13.758 -21.286  0.00  0.00    +0.032 C 
ATOM     12  C   UNL     1      34.266 -16.597 -22.224  0.00  0.00    +0.201 C 
ATOM     13  C   UNL     1      34.065 -18.111 -23.882  0.00  0.00    +0.206 C 
ATOM     14  H   UNL     1      34.877 -17.078 -20.289  0.00  0.00    +0.145 HD
ATOM     15  H   UNL     1      34.537 -15.423 -20.522  0.00  0.00    +0.145 HD
ATOM     16  H   UNL     1      33.950 -19.673 -25.262  0.00  0.00    +0.156 HD
ATOM     17  H   UNL     1      34.457 -20.153 -23.706  0.00  0.00    +0.156 HD
ENDROOT
BRANCH   6  18
ATOM     18  C   UNL     1      33.195 -11.839 -23.230  0.00  0.00    +0.097 C 
BRANCH  18  19
ATOM     19  N   UNL     1      31.898 -11.582 -22.694  0.00  0.00    -0.288 NA
ATOM     20  H   UNL     1      31.132 -12.092 -23.046  0.00  0.00    +0.124 HD
BRANCH  19  22
ATOM     21  N   UNL     1      31.158  -7.012 -21.177  0.00  0.00    -0.248 NA
ATOM     22  C   UNL     1      31.665 -10.625 -21.677  0.00  0.00    +0.101 C 
ATOM     23  C   UNL     1      31.526  -9.258 -21.968  0.00  0.00    +0.010 C 
ATOM     24  C   UNL     1      31.295  -8.329 -20.933  0.00  0.00    +0.061 C 
ATOM     25  C   UNL     1      31.575 -11.079 -20.363  0.00  0.00    -0.010 C 
ATOM     26  C   UNL     1      31.611  -8.775 -23.281  0.00  0.00    +0.000 C 
ATOM     27  C   UNL     1      31.211  -8.809 -19.629  0.00  0.00    +0.071 C 
ATOM     28  C   UNL     1      31.348 -10.169 -19.339  0.00  0.00    -0.023 C 
ATOM     29  C   UNL     1      31.470  -7.419 -23.536  0.00  0.00    +0.020 C 
ATOM     30  C   UNL     1      31.247  -6.587 -22.459  0.00  0.00    +0.098 C 
ENDBRANCH  19  22
ENDBRANCH  18  19
ENDBRANCH   6  18
TORSDOF 3
ENDMDL
