MODEL 1
REMARK VINA RESULT:     -11.4      0.000      0.000
REMARK  Name = 11627443
REMARK  9 active torsions:
REMARK  status: ('A' for Active; 'I' for Inactive)
REMARK    1  A    between atoms: N_1  and  C_14
REMARK    2  A    between atoms: C_9  and  C_30
REMARK    3  A    between atoms: C_11  and  C_17
REMARK    4  A    between atoms: C_12  and  O_22
REMARK    5  A    between atoms: C_13  and  O_24
REMARK    6  A    between atoms: N_16  and  C_19
REMARK    7  A    between atoms: C_29  and  C_31
REMARK    8  A    between atoms: C_31  and  C_34
REMARK    9  A    between atoms: C_39  and  O_40
REMARK                            x       y       z     vdW  Elec       q    Type
REMARK                         _______ _______ _______ _____ _____    ______ ____
ROOT
ATOM      1  N   UNL     1      34.843 -24.089 -15.175  0.00  0.00    -0.236 N 
ATOM      2  N   UNL     1      32.671 -23.968 -14.684  0.00  0.00    -0.240 NA
ATOM      3  N   UNL     1      34.908 -22.656 -17.135  0.00  0.00    -0.316 NA
ATOM      4  N   UNL     1      32.693 -21.774 -17.662  0.00  0.00    -0.317 NA
ATOM      5  C   UNL     1      34.287 -23.270 -16.116  0.00  0.00    +0.221 C 
ATOM      6  C   UNL     1      33.832 -24.484 -14.338  0.00  0.00    +0.224 C 
ATOM      7  C   UNL     1      32.941 -23.208 -15.794  0.00  0.00    +0.167 C 
ATOM      8  C   UNL     1      32.134 -22.423 -16.612  0.00  0.00    +0.211 C 
ATOM      9  C   UNL     1      34.026 -21.928 -17.855  0.00  0.00    +0.188 C 
ATOM     10  N   UNL     1      30.757 -22.303 -16.360  0.00  0.00    -0.331 N 
ATOM     11  H   UNL     1      30.197 -21.745 -16.945  0.00  0.00    +0.145 HD
ATOM     12  H   UNL     1      30.353 -22.776 -15.597  0.00  0.00    +0.145 HD
ENDROOT
BRANCH   1  17
ATOM     13  O   UNL     1      36.360 -25.632 -14.218  0.00  0.00    -0.326 OA
ATOM     14  C   UNL     1      37.553 -25.507 -13.430  0.00  0.00    +0.222 C 
ATOM     15  C   UNL     1      38.271 -24.245 -13.884  0.00  0.00    +0.178 C 
ATOM     16  C   UNL     1      37.140 -23.412 -14.455  0.00  0.00    +0.187 C 
ATOM     17  C   UNL     1      36.247 -24.478 -15.070  0.00  0.00    +0.226 C 
BRANCH  14  20
ATOM     18  O   UNL     1      36.979 -26.436 -11.311  0.00  0.00    -0.272 OA
ATOM     19  N   UNL     1      36.846 -24.133 -11.599  0.00  0.00    -0.304 N 
ATOM     20  C   UNL     1      37.109 -25.432 -12.005  0.00  0.00    +0.252 C 
ATOM     21  H   UNL     1      36.985 -23.400 -12.240  0.00  0.00    +0.149 HD
BRANCH  19  22
ATOM     22  C   UNL     1      36.379 -23.819 -10.279  0.00  0.00    +0.072 C 
ATOM     23  C   UNL     1      35.380 -22.722 -10.052  0.00  0.00    +0.021 C 
ATOM     24  C   UNL     1      34.981 -24.155  -9.849  0.00  0.00    +0.021 C 
ENDBRANCH  19  22
ENDBRANCH  14  20
BRANCH  15  25
ATOM     25  O   UNL     1      39.197 -24.587 -14.914  0.00  0.00    -0.379 OA
ATOM     26  H   UNL     1      40.084 -24.680 -14.533  0.00  0.00    +0.211 HD
ENDBRANCH  15  25
BRANCH  16  27
ATOM     27  O   UNL     1      37.574 -22.469 -15.413  0.00  0.00    -0.378 OA
ATOM     28  H   UNL     1      36.874 -22.329 -16.070  0.00  0.00    +0.211 HD
ENDBRANCH  16  27
ENDBRANCH   1  17
BRANCH   9  30
ATOM     29  C   UNL     1      35.029 -20.631 -19.913  0.00  0.00    -0.074 C 
ATOM     30  C   UNL     1      34.572 -21.224 -18.973  0.00  0.00    +0.032 C 
BRANCH  29  31
ATOM     31  C   UNL     1      35.594 -19.910 -21.056  0.00  0.00    +0.077 C 
BRANCH  31  34
ATOM     32  O   UNL     1      34.125 -15.569 -25.278  0.00  0.00    -0.226 OA
ATOM     33  N   UNL     1      34.026 -16.494 -23.148  0.00  0.00    -0.246 N 
ATOM     34  C   UNL     1      34.627 -18.841 -21.561  0.00  0.00    +0.016 C 
ATOM     35  C   UNL     1      34.481 -18.913 -23.088  0.00  0.00    +0.023 C 
ATOM     36  C   UNL     1      35.094 -17.439 -21.138  0.00  0.00    +0.023 C 
ATOM     37  C   UNL     1      33.572 -17.805 -23.610  0.00  0.00    +0.097 C 
ATOM     38  C   UNL     1      34.173 -16.357 -21.696  0.00  0.00    +0.097 C 
ATOM     39  C   UNL     1      34.245 -15.458 -24.060  0.00  0.00    +0.405 C 
BRANCH  39  40
ATOM     40  O   UNL     1      34.614 -14.287 -23.451  0.00  0.00    -0.430 OA
ATOM     41  C   UNL     1      33.605 -13.275 -23.364  0.00  0.00    +0.257 C 
ENDBRANCH  39  40
ENDBRANCH  31  34
ENDBRANCH  29  31
ENDBRANCH   9  30
TORSDOF 9
ENDMDL
MODEL 2
REMARK VINA RESULT:     -10.0      1.922      3.365
REMARK  Name = 11627443
REMARK  9 active torsions:
REMARK  status: ('A' for Active; 'I' for Inactive)
REMARK    1  A    between atoms: N_1  and  C_14
REMARK    2  A    between atoms: C_9  and  C_30
REMARK    3  A    between atoms: C_11  and  C_17
REMARK    4  A    between atoms: C_12  and  O_22
REMARK    5  A    between atoms: C_13  and  O_24
REMARK    6  A    between atoms: N_16  and  C_19
REMARK    7  A    between atoms: C_29  and  C_31
REMARK    8  A    between atoms: C_31  and  C_34
REMARK    9  A    between atoms: C_39  and  O_40
REMARK                            x       y       z     vdW  Elec       q    Type
REMARK                         _______ _______ _______ _____ _____    ______ ____
ROOT
ATOM      1  N   UNL     1      33.392 -23.512 -12.886  0.00  0.00    -0.236 N 
ATOM      2  N   UNL     1      31.354 -24.317 -13.300  0.00  0.00    -0.240 NA
ATOM      3  N   UNL     1      33.984 -22.716 -15.103  0.00  0.00    -0.316 NA
ATOM      4  N   UNL     1      32.186 -23.128 -16.703  0.00  0.00    -0.317 NA
ATOM      5  C   UNL     1      33.161 -23.295 -14.214  0.00  0.00    +0.221 C 
ATOM      6  C   UNL     1      32.277 -24.130 -12.381  0.00  0.00    +0.224 C 
ATOM      7  C   UNL     1      31.893 -23.800 -14.451  0.00  0.00    +0.167 C 
ATOM      8  C   UNL     1      31.409 -23.701 -15.752  0.00  0.00    +0.211 C 
ATOM      9  C   UNL     1      33.408 -22.678 -16.324  0.00  0.00    +0.188 C 
ATOM     10  N   UNL     1      30.133 -24.188 -16.082  0.00  0.00    -0.331 N 
ATOM     11  H   UNL     1      29.801 -24.112 -17.005  0.00  0.00    +0.145 HD
ATOM     12  H   UNL     1      29.570 -24.604 -15.390  0.00  0.00    +0.145 HD
ENDROOT
BRANCH   1  17
ATOM     13  O   UNL     1      35.575 -22.613 -13.035  0.00  0.00    -0.326 OA
ATOM     14  C   UNL     1      36.875 -23.066 -12.626  0.00  0.00    +0.222 C 
ATOM     15  C   UNL     1      36.699 -23.867 -11.345  0.00  0.00    +0.178 C 
ATOM     16  C   UNL     1      35.263 -24.340 -11.449  0.00  0.00    +0.187 C 
ATOM     17  C   UNL     1      34.594 -23.159 -12.135  0.00  0.00    +0.226 C 
BRANCH  14  20
ATOM     18  O   UNL     1      36.959 -23.800 -14.893  0.00  0.00    -0.272 OA
ATOM     19  N   UNL     1      38.397 -24.770 -13.346  0.00  0.00    -0.304 N 
ATOM     20  C   UNL     1      37.402 -23.895 -13.752  0.00  0.00    +0.252 C 
ATOM     21  H   UNL     1      38.678 -24.762 -12.403  0.00  0.00    +0.149 HD
BRANCH  19  22
ATOM     22  C   UNL     1      39.033 -25.686 -14.249  0.00  0.00    +0.072 C 
ATOM     23  C   UNL     1      40.141 -25.236 -15.155  0.00  0.00    +0.021 C 
ATOM     24  C   UNL     1      40.436 -26.163 -14.011  0.00  0.00    +0.021 C 
ENDBRANCH  19  22
ENDBRANCH  14  20
BRANCH  15  25
ATOM     25  O   UNL     1      36.847 -22.989 -10.230  0.00  0.00    -0.379 OA
ATOM     26  H   UNL     1      36.122 -22.345 -10.227  0.00  0.00    +0.211 HD
ENDBRANCH  15  25
BRANCH  16  27
ATOM     27  O   UNL     1      34.679 -24.621 -10.193  0.00  0.00    -0.378 OA
ATOM     28  H   UNL     1      34.059 -23.913  -9.958  0.00  0.00    +0.211 HD
ENDBRANCH  16  27
ENDBRANCH   1  17
BRANCH   9  30
ATOM     29  C   UNL     1      34.849 -21.577 -18.232  0.00  0.00    -0.074 C 
ATOM     30  C   UNL     1      34.192 -22.081 -17.360  0.00  0.00    +0.032 C 
BRANCH  29  31
ATOM     31  C   UNL     1      35.657 -20.966 -19.290  0.00  0.00    +0.077 C 
BRANCH  31  34
ATOM     32  O   UNL     1      32.802 -18.456 -24.227  0.00  0.00    -0.226 OA
ATOM     33  N   UNL     1      33.997 -18.311 -22.239  0.00  0.00    -0.246 N 
ATOM     34  C   UNL     1      34.924 -19.787 -19.926  0.00  0.00    +0.016 C 
ATOM     35  C   UNL     1      33.739 -20.273 -20.773  0.00  0.00    +0.023 C 
ATOM     36  C   UNL     1      35.882 -18.948 -20.785  0.00  0.00    +0.023 C 
ATOM     37  C   UNL     1      33.042 -19.107 -21.470  0.00  0.00    +0.097 C 
ATOM     38  C   UNL     1      35.146 -17.806 -21.481  0.00  0.00    +0.097 C 
ATOM     39  C   UNL     1      33.764 -18.034 -23.588  0.00  0.00    +0.405 C 
BRANCH  39  40
ATOM     40  O   UNL     1      34.730 -17.232 -24.138  0.00  0.00    -0.430 OA
ATOM     41  C   UNL     1      34.319 -15.911 -24.507  0.00  0.00    +0.257 C 
ENDBRANCH  39  40
ENDBRANCH  31  34
ENDBRANCH  29  31
ENDBRANCH   9  30
TORSDOF 9
ENDMDL
MODEL 3
REMARK VINA RESULT:      -9.7      2.341     10.925
REMARK  Name = 11627443
REMARK  9 active torsions:
REMARK  status: ('A' for Active; 'I' for Inactive)
REMARK    1  A    between atoms: N_1  and  C_14
REMARK    2  A    between atoms: C_9  and  C_30
REMARK    3  A    between atoms: C_11  and  C_17
REMARK    4  A    between atoms: C_12  and  O_22
REMARK    5  A    between atoms: C_13  and  O_24
REMARK    6  A    between atoms: N_16  and  C_19
REMARK    7  A    between atoms: C_29  and  C_31
REMARK    8  A    between atoms: C_31  and  C_34
REMARK    9  A    between atoms: C_39  and  O_40
REMARK                            x       y       z     vdW  Elec       q    Type
REMARK                         _______ _______ _______ _____ _____    ______ ____
ROOT
ATOM      1  N   UNL     1      33.845 -20.007 -20.377  0.00  0.00    -0.236 N 
ATOM      2  N   UNL     1      31.818 -20.706 -19.767  0.00  0.00    -0.240 NA
ATOM      3  N   UNL     1      35.186 -21.053 -18.643  0.00  0.00    -0.316 NA
ATOM      4  N   UNL     1      33.795 -22.330 -17.096  0.00  0.00    -0.317 NA
ATOM      5  C   UNL     1      34.028 -20.771 -19.260  0.00  0.00    +0.221 C 
ATOM      6  C   UNL     1      32.500 -19.997 -20.641  0.00  0.00    +0.224 C 
ATOM      7  C   UNL     1      32.760 -21.196 -18.898  0.00  0.00    +0.167 C 
ATOM      8  C   UNL     1      32.665 -22.005 -17.770  0.00  0.00    +0.211 C 
ATOM      9  C   UNL     1      34.967 -21.841 -17.568  0.00  0.00    +0.188 C 
ATOM     10  N   UNL     1      31.418 -22.481 -17.331  0.00  0.00    -0.331 N 
ATOM     11  H   UNL     1      31.364 -23.053 -16.532  0.00  0.00    +0.145 HD
ATOM     12  H   UNL     1      30.599 -22.243 -17.822  0.00  0.00    +0.145 HD
ENDROOT
BRANCH   1  17
ATOM     13  O   UNL     1      35.283 -18.130 -20.457  0.00  0.00    -0.326 OA
ATOM     14  C   UNL     1      35.531 -17.098 -21.424  0.00  0.00    +0.222 C 
ATOM     15  C   UNL     1      35.356 -17.712 -22.805  0.00  0.00    +0.178 C 
ATOM     16  C   UNL     1      34.421 -18.874 -22.531  0.00  0.00    +0.187 C 
ATOM     17  C   UNL     1      34.878 -19.324 -21.151  0.00  0.00    +0.226 C 
BRANCH  14  20
ATOM     18  O   UNL     1      34.070 -15.834 -20.026  0.00  0.00    -0.272 OA
ATOM     19  N   UNL     1      34.201 -15.302 -22.285  0.00  0.00    -0.304 N 
ATOM     20  C   UNL     1      34.536 -16.018 -21.148  0.00  0.00    +0.252 C 
ATOM     21  H   UNL     1      34.637 -15.534 -23.136  0.00  0.00    +0.149 HD
BRANCH  19  22
ATOM     22  C   UNL     1      33.242 -14.233 -22.269  0.00  0.00    +0.072 C 
ATOM     23  C   UNL     1      33.682 -12.799 -22.279  0.00  0.00    +0.021 C 
ATOM     24  C   UNL     1      33.004 -13.385 -23.484  0.00  0.00    +0.021 C 
ENDBRANCH  19  22
ENDBRANCH  14  20
BRANCH  15  25
ATOM     25  O   UNL     1      36.620 -18.195 -23.256  0.00  0.00    -0.379 OA
ATOM     26  H   UNL     1      36.814 -19.044 -22.826  0.00  0.00    +0.211 HD
ENDBRANCH  15  25
BRANCH  16  27
ATOM     27  O   UNL     1      34.528 -19.909 -23.486  0.00  0.00    -0.378 OA
ATOM     28  H   UNL     1      33.827 -19.811 -24.150  0.00  0.00    +0.211 HD
ENDBRANCH  16  27
ENDBRANCH   1  17
BRANCH   9  30
ATOM     29  C   UNL     1      37.111 -22.520 -16.200  0.00  0.00    -0.074 C 
ATOM     30  C   UNL     1      36.132 -22.212 -16.825  0.00  0.00    +0.032 C 
BRANCH  29  31
ATOM     31  C   UNL     1      38.303 -22.905 -15.440  0.00  0.00    +0.077 C 
BRANCH  31  34
ATOM     32  O   UNL     1      34.246 -24.803 -11.108  0.00  0.00    -0.226 OA
ATOM     33  N   UNL     1      36.395 -24.565 -11.961  0.00  0.00    -0.246 N 
ATOM     34  C   UNL     1      37.943 -23.861 -14.305  0.00  0.00    +0.016 C 
ATOM     35  C   UNL     1      36.475 -24.302 -14.408  0.00  0.00    +0.023 C 
ATOM     36  C   UNL     1      38.208 -23.211 -12.939  0.00  0.00    +0.023 C 
ATOM     37  C   UNL     1      36.085 -25.203 -13.239  0.00  0.00    +0.097 C 
ATOM     38  C   UNL     1      37.786 -24.133 -11.796  0.00  0.00    +0.097 C 
ATOM     39  C   UNL     1      35.414 -24.442 -10.973  0.00  0.00    +0.405 C 
BRANCH  39  40
ATOM     40  O   UNL     1      35.890 -23.871  -9.823  0.00  0.00    -0.430 OA
ATOM     41  C   UNL     1      35.963 -22.441  -9.811  0.00  0.00    +0.257 C 
ENDBRANCH  39  40
ENDBRANCH  31  34
ENDBRANCH  29  31
ENDBRANCH   9  30
TORSDOF 9
ENDMDL
MODEL 4
REMARK VINA RESULT:      -9.6      1.807      3.023
REMARK  Name = 11627443
REMARK  9 active torsions:
REMARK  status: ('A' for Active; 'I' for Inactive)
REMARK    1  A    between atoms: N_1  and  C_14
REMARK    2  A    between atoms: C_9  and  C_30
REMARK    3  A    between atoms: C_11  and  C_17
REMARK    4  A    between atoms: C_12  and  O_22
REMARK    5  A    between atoms: C_13  and  O_24
REMARK    6  A    between atoms: N_16  and  C_19
REMARK    7  A    between atoms: C_29  and  C_31
REMARK    8  A    between atoms: C_31  and  C_34
REMARK    9  A    between atoms: C_39  and  O_40
REMARK                            x       y       z     vdW  Elec       q    Type
REMARK                         _______ _______ _______ _____ _____    ______ ____
ROOT
ATOM      1  N   UNL     1      33.703 -24.267 -14.196  0.00  0.00    -0.236 N 
ATOM      2  N   UNL     1      31.486 -24.116 -14.014  0.00  0.00    -0.240 NA
ATOM      3  N   UNL     1      34.035 -23.044 -16.268  0.00  0.00    -0.316 NA
ATOM      4  N   UNL     1      31.915 -22.241 -17.173  0.00  0.00    -0.317 NA
ATOM      5  C   UNL     1      33.281 -23.556 -15.282  0.00  0.00    +0.221 C 
ATOM      6  C   UNL     1      32.588 -24.583 -13.465  0.00  0.00    +0.224 C 
ATOM      7  C   UNL     1      31.904 -23.472 -15.151  0.00  0.00    +0.167 C 
ATOM      8  C   UNL     1      31.217 -22.784 -16.146  0.00  0.00    +0.211 C 
ATOM      9  C   UNL     1      33.260 -22.403 -17.170  0.00  0.00    +0.188 C 
ATOM     10  N   UNL     1      29.820 -22.651 -16.093  0.00  0.00    -0.331 N 
ATOM     11  H   UNL     1      29.345 -22.161 -16.802  0.00  0.00    +0.145 HD
ATOM     12  H   UNL     1      29.315 -23.046 -15.346  0.00  0.00    +0.145 HD
ENDROOT
BRANCH   1  17
ATOM     13  O   UNL     1      35.842 -23.436 -13.622  0.00  0.00    -0.326 OA
ATOM     14  C   UNL     1      37.164 -23.620 -14.153  0.00  0.00    +0.222 C 
ATOM     15  C   UNL     1      37.253 -25.045 -14.676  0.00  0.00    +0.178 C 
ATOM     16  C   UNL     1      35.805 -25.375 -14.976  0.00  0.00    +0.187 C 
ATOM     17  C   UNL     1      35.078 -24.631 -13.866  0.00  0.00    +0.226 C 
BRANCH  14  20
ATOM     18  O   UNL     1      38.249 -22.651 -16.042  0.00  0.00    -0.272 OA
ATOM     19  N   UNL     1      36.352 -21.616 -15.185  0.00  0.00    -0.304 N 
ATOM     20  C   UNL     1      37.326 -22.601 -15.234  0.00  0.00    +0.252 C 
ATOM     21  H   UNL     1      35.655 -21.674 -14.493  0.00  0.00    +0.149 HD
BRANCH  19  22
ATOM     22  C   UNL     1      36.322 -20.517 -16.107  0.00  0.00    +0.072 C 
ATOM     23  C   UNL     1      37.581 -19.805 -16.505  0.00  0.00    +0.021 C 
ATOM     24  C   UNL     1      36.854 -20.659 -17.503  0.00  0.00    +0.021 C 
ENDBRANCH  19  22
ENDBRANCH  14  20
BRANCH  15  25
ATOM     25  O   UNL     1      37.744 -25.888 -13.635  0.00  0.00    -0.379 OA
ATOM     26  H   UNL     1      38.346 -26.549 -14.012  0.00  0.00    +0.211 HD
ENDBRANCH  15  25
BRANCH  16  27
ATOM     27  O   UNL     1      35.534 -26.762 -14.947  0.00  0.00    -0.378 OA
ATOM     28  H   UNL     1      35.174 -27.040 -15.804  0.00  0.00    +0.211 HD
ENDBRANCH  16  27
ENDBRANCH   1  17
BRANCH   9  30
ATOM     29  C   UNL     1      34.538 -21.318 -19.199  0.00  0.00    -0.074 C 
ATOM     30  C   UNL     1      33.954 -21.812 -18.273  0.00  0.00    +0.032 C 
BRANCH  29  31
ATOM     31  C   UNL     1      35.245 -20.710 -20.329  0.00  0.00    +0.077 C 
BRANCH  31  34
ATOM     32  O   UNL     1      34.376 -16.594 -24.926  0.00  0.00    -0.226 OA
ATOM     33  N   UNL     1      34.137 -17.317 -22.730  0.00  0.00    -0.246 N 
ATOM     34  C   UNL     1      34.424 -19.578 -20.942  0.00  0.00    +0.016 C 
ATOM     35  C   UNL     1      34.290 -19.760 -22.462  0.00  0.00    +0.023 C 
ATOM     36  C   UNL     1      35.054 -18.213 -20.625  0.00  0.00    +0.023 C 
ATOM     37  C   UNL     1      33.531 -18.597 -23.094  0.00  0.00    +0.097 C 
ATOM     38  C   UNL     1      34.280 -17.077 -21.291  0.00  0.00    +0.097 C 
ATOM     39  C   UNL     1      34.494 -16.396 -23.718  0.00  0.00    +0.405 C 
BRANCH  39  40
ATOM     40  O   UNL     1      34.996 -15.232 -23.199  0.00  0.00    -0.430 OA
ATOM     41  C   UNL     1      34.085 -14.129 -23.124  0.00  0.00    +0.257 C 
ENDBRANCH  39  40
ENDBRANCH  31  34
ENDBRANCH  29  31
ENDBRANCH   9  30
TORSDOF 9
ENDMDL
MODEL 5
REMARK VINA RESULT:      -9.4      8.406     14.188
REMARK  Name = 11627443
REMARK  9 active torsions:
REMARK  status: ('A' for Active; 'I' for Inactive)
REMARK    1  A    between atoms: N_1  and  C_14
REMARK    2  A    between atoms: C_9  and  C_30
REMARK    3  A    between atoms: C_11  and  C_17
REMARK    4  A    between atoms: C_12  and  O_22
REMARK    5  A    between atoms: C_13  and  O_24
REMARK    6  A    between atoms: N_16  and  C_19
REMARK    7  A    between atoms: C_29  and  C_31
REMARK    8  A    between atoms: C_31  and  C_34
REMARK    9  A    between atoms: C_39  and  O_40
REMARK                            x       y       z     vdW  Elec       q    Type
REMARK                         _______ _______ _______ _____ _____    ______ ____
ROOT
ATOM      1  N   UNL     1      31.945 -11.468 -21.643  0.00  0.00    -0.236 N 
ATOM      2  N   UNL     1      31.644 -10.811 -19.534  0.00  0.00    -0.240 NA
ATOM      3  N   UNL     1      31.718  -9.333 -22.780  0.00  0.00    -0.316 NA
ATOM      4  N   UNL     1      31.288  -7.526 -21.197  0.00  0.00    -0.317 NA
ATOM      5  C   UNL     1      31.739 -10.119 -21.692  0.00  0.00    +0.221 C 
ATOM      6  C   UNL     1      31.877 -11.837 -20.325  0.00  0.00    +0.224 C 
ATOM      7  C   UNL     1      31.555  -9.730 -20.375  0.00  0.00    +0.167 C 
ATOM      8  C   UNL     1      31.323  -8.378 -20.143  0.00  0.00    +0.211 C 
ATOM      9  C   UNL     1      31.485  -8.049 -22.431  0.00  0.00    +0.188 C 
ATOM     10  N   UNL     1      31.125  -7.897 -18.838  0.00  0.00    -0.331 N 
ATOM     11  H   UNL     1      30.963  -6.938 -18.687  0.00  0.00    +0.145 HD
ATOM     12  H   UNL     1      31.151  -8.517 -18.075  0.00  0.00    +0.145 HD
ENDROOT
BRANCH   1  17
ATOM     13  O   UNL     1      32.028 -13.724 -22.349  0.00  0.00    -0.326 OA
ATOM     14  C   UNL     1      33.014 -14.532 -23.010  0.00  0.00    +0.222 C 
ATOM     15  C   UNL     1      33.775 -13.630 -23.970  0.00  0.00    +0.178 C 
ATOM     16  C   UNL     1      33.597 -12.261 -23.345  0.00  0.00    +0.187 C 
ATOM     17  C   UNL     1      32.190 -12.359 -22.774  0.00  0.00    +0.226 C 
BRANCH  14  20
ATOM     18  O   UNL     1      34.118 -14.474 -20.898  0.00  0.00    -0.272 OA
ATOM     19  N   UNL     1      34.405 -16.333 -22.263  0.00  0.00    -0.304 N 
ATOM     20  C   UNL     1      33.887 -15.090 -21.934  0.00  0.00    +0.252 C 
ATOM     21  H   UNL     1      34.153 -16.737 -23.124  0.00  0.00    +0.149 HD
BRANCH  19  22
ATOM     22  C   UNL     1      35.294 -17.051 -21.395  0.00  0.00    +0.072 C 
ATOM     23  C   UNL     1      35.095 -18.513 -21.122  0.00  0.00    +0.021 C 
ATOM     24  C   UNL     1      36.267 -18.055 -21.939  0.00  0.00    +0.021 C 
ENDBRANCH  19  22
ENDBRANCH  14  20
BRANCH  15  25
ATOM     25  O   UNL     1      33.138 -13.674 -25.245  0.00  0.00    -0.379 OA
ATOM     26  H   UNL     1      33.786 -13.926 -25.922  0.00  0.00    +0.211 HD
ENDBRANCH  15  25
BRANCH  16  27
ATOM     27  O   UNL     1      33.715 -11.205 -24.277  0.00  0.00    -0.378 OA
ATOM     28  H   UNL     1      33.353 -10.392 -23.893  0.00  0.00    +0.211 HD
ENDBRANCH  16  27
ENDBRANCH   1  17
BRANCH   9  30
ATOM     29  C   UNL     1      31.401  -6.325 -24.418  0.00  0.00    -0.074 C 
ATOM     30  C   UNL     1      31.440  -7.113 -23.511  0.00  0.00    +0.032 C 
BRANCH  29  31
ATOM     31  C   UNL     1      31.361  -5.367 -25.525  0.00  0.00    +0.077 C 
BRANCH  31  34
ATOM     32  O   UNL     1      35.755  -3.768 -29.644  0.00  0.00    -0.226 OA
ATOM     33  N   UNL     1      35.051  -4.453 -27.537  0.00  0.00    -0.246 N 
ATOM     34  C   UNL     1      32.751  -4.804 -25.812  0.00  0.00    +0.016 C 
ATOM     35  C   UNL     1      32.718  -3.857 -27.021  0.00  0.00    +0.023 C 
ATOM     36  C   UNL     1      33.760  -5.938 -26.053  0.00  0.00    +0.023 C 
ATOM     37  C   UNL     1      34.115  -3.344 -27.360  0.00  0.00    +0.097 C 
ATOM     38  C   UNL     1      35.138  -5.386 -26.410  0.00  0.00    +0.097 C 
ATOM     39  C   UNL     1      35.826  -4.548 -28.696  0.00  0.00    +0.405 C 
BRANCH  39  40
ATOM     40  O   UNL     1      36.685  -5.615 -28.671  0.00  0.00    -0.430 OA
ATOM     41  C   UNL     1      37.281  -5.975 -29.922  0.00  0.00    +0.257 C 
ENDBRANCH  39  40
ENDBRANCH  31  34
ENDBRANCH  29  31
ENDBRANCH   9  30
TORSDOF 9
ENDMDL
MODEL 6
REMARK VINA RESULT:      -9.2      1.639      2.606
REMARK  Name = 11627443
REMARK  9 active torsions:
REMARK  status: ('A' for Active; 'I' for Inactive)
REMARK    1  A    between atoms: N_1  and  C_14
REMARK    2  A    between atoms: C_9  and  C_30
REMARK    3  A    between atoms: C_11  and  C_17
REMARK    4  A    between atoms: C_12  and  O_22
REMARK    5  A    between atoms: C_13  and  O_24
REMARK    6  A    between atoms: N_16  and  C_19
REMARK    7  A    between atoms: C_29  and  C_31
REMARK    8  A    between atoms: C_31  and  C_34
REMARK    9  A    between atoms: C_39  and  O_40
REMARK                            x       y       z     vdW  Elec       q    Type
REMARK                         _______ _______ _______ _____ _____    ______ ____
ROOT
ATOM      1  N   UNL     1      34.739 -22.862 -13.808  0.00  0.00    -0.236 N 
ATOM      2  N   UNL     1      32.688 -23.735 -13.877  0.00  0.00    -0.240 NA
ATOM      3  N   UNL     1      34.908 -22.016 -16.079  0.00  0.00    -0.316 NA
ATOM      4  N   UNL     1      32.873 -22.472 -17.348  0.00  0.00    -0.317 NA
ATOM      5  C   UNL     1      34.273 -22.636 -15.072  0.00  0.00    +0.221 C 
ATOM      6  C   UNL     1      33.751 -23.526 -13.128  0.00  0.00    +0.224 C 
ATOM      7  C   UNL     1      33.000 -23.183 -15.094  0.00  0.00    +0.167 C 
ATOM      8  C   UNL     1      32.293 -23.085 -16.288  0.00  0.00    +0.211 C 
ATOM      9  C   UNL     1      34.126 -21.982 -17.180  0.00  0.00    +0.188 C 
ATOM     10  N   UNL     1      30.996 -23.613 -16.400  0.00  0.00    -0.331 N 
ATOM     11  H   UNL     1      30.506 -23.537 -17.250  0.00  0.00    +0.145 HD
ATOM     12  H   UNL     1      30.577 -24.059 -15.629  0.00  0.00    +0.145 HD
ENDROOT
BRANCH   1  17
ATOM     13  O   UNL     1      37.074 -22.882 -14.187  0.00  0.00    -0.326 OA
ATOM     14  C   UNL     1      38.208 -23.332 -13.430  0.00  0.00    +0.222 C 
ATOM     15  C   UNL     1      37.895 -23.106 -11.958  0.00  0.00    +0.178 C 
ATOM     16  C   UNL     1      36.379 -23.127 -11.939  0.00  0.00    +0.187 C 
ATOM     17  C   UNL     1      36.041 -22.475 -13.271  0.00  0.00    +0.226 C 
BRANCH  14  20
ATOM     18  O   UNL     1      39.331 -25.433 -13.329  0.00  0.00    -0.272 OA
ATOM     19  N   UNL     1      37.402 -25.251 -14.614  0.00  0.00    -0.304 N 
ATOM     20  C   UNL     1      38.387 -24.777 -13.763  0.00  0.00    +0.252 C 
ATOM     21  H   UNL     1      36.689 -24.637 -14.901  0.00  0.00    +0.149 HD
BRANCH  19  22
ATOM     22  C   UNL     1      37.384 -26.604 -15.094  0.00  0.00    +0.072 C 
ATOM     23  C   UNL     1      36.462 -27.625 -14.494  0.00  0.00    +0.021 C 
ATOM     24  C   UNL     1      36.227 -27.130 -15.891  0.00  0.00    +0.021 C 
ENDBRANCH  19  22
ENDBRANCH  14  20
BRANCH  15  25
ATOM     25  O   UNL     1      38.373 -21.818 -11.578  0.00  0.00    -0.379 OA
ATOM     26  H   UNL     1      37.946 -21.546 -10.750  0.00  0.00    +0.211 HD
ENDBRANCH  15  25
BRANCH  16  27
ATOM     27  O   UNL     1      35.828 -22.418 -10.849  0.00  0.00    -0.378 OA
ATOM     28  H   UNL     1      36.533 -21.942 -10.382  0.00  0.00    +0.211 HD
ENDBRANCH  16  27
ENDBRANCH   1  17
BRANCH   9  30
ATOM     29  C   UNL     1      35.177 -20.804 -19.285  0.00  0.00    -0.074 C 
ATOM     30  C   UNL     1      34.696 -21.343 -18.325  0.00  0.00    +0.032 C 
BRANCH  29  31
ATOM     31  C   UNL     1      35.761 -20.154 -20.461  0.00  0.00    +0.077 C 
BRANCH  31  34
ATOM     32  O   UNL     1      34.295 -16.194 -25.043  0.00  0.00    -0.226 OA
ATOM     33  N   UNL     1      34.203 -16.926 -22.839  0.00  0.00    -0.246 N 
ATOM     34  C   UNL     1      34.798 -19.127 -21.053  0.00  0.00    +0.016 C 
ATOM     35  C   UNL     1      34.643 -19.334 -22.568  0.00  0.00    +0.023 C 
ATOM     36  C   UNL     1      35.276 -17.697 -20.759  0.00  0.00    +0.023 C 
ATOM     37  C   UNL     1      33.737 -18.270 -23.181  0.00  0.00    +0.097 C 
ATOM     38  C   UNL     1      34.358 -16.662 -21.405  0.00  0.00    +0.097 C 
ATOM     39  C   UNL     1      34.423 -15.976 -23.840  0.00  0.00    +0.405 C 
BRANCH  39  40
ATOM     40  O   UNL     1      34.803 -14.759 -23.339  0.00  0.00    -0.430 OA
ATOM     41  C   UNL     1      33.773 -13.769 -23.236  0.00  0.00    +0.257 C 
ENDBRANCH  39  40
ENDBRANCH  31  34
ENDBRANCH  29  31
ENDBRANCH   9  30
TORSDOF 9
ENDMDL
MODEL 7
REMARK VINA RESULT:      -8.9      4.099      9.660
REMARK  Name = 11627443
REMARK  9 active torsions:
REMARK  status: ('A' for Active; 'I' for Inactive)
REMARK    1  A    between atoms: N_1  and  C_14
REMARK    2  A    between atoms: C_9  and  C_30
REMARK    3  A    between atoms: C_11  and  C_17
REMARK    4  A    between atoms: C_12  and  O_22
REMARK    5  A    between atoms: C_13  and  O_24
REMARK    6  A    between atoms: N_16  and  C_19
REMARK    7  A    between atoms: C_29  and  C_31
REMARK    8  A    between atoms: C_31  and  C_34
REMARK    9  A    between atoms: C_39  and  O_40
REMARK                            x       y       z     vdW  Elec       q    Type
REMARK                         _______ _______ _______ _____ _____    ______ ____
ROOT
ATOM      1  N   UNL     1      35.074 -21.695 -17.938  0.00  0.00    -0.236 N 
ATOM      2  N   UNL     1      37.025 -21.358 -16.913  0.00  0.00    -0.240 NA
ATOM      3  N   UNL     1      33.849 -22.795 -16.152  0.00  0.00    -0.316 NA
ATOM      4  N   UNL     1      35.222 -23.025 -14.147  0.00  0.00    -0.317 NA
ATOM      5  C   UNL     1      34.934 -22.206 -16.679  0.00  0.00    +0.221 C 
ATOM      6  C   UNL     1      36.348 -21.199 -18.031  0.00  0.00    +0.224 C 
ATOM      7  C   UNL     1      36.154 -21.987 -16.060  0.00  0.00    +0.167 C 
ATOM      8  C   UNL     1      36.278 -22.422 -14.744  0.00  0.00    +0.211 C 
ATOM      9  C   UNL     1      34.090 -23.172 -14.877  0.00  0.00    +0.188 C 
ATOM     10  N   UNL     1      37.480 -22.241 -14.039  0.00  0.00    -0.331 N 
ATOM     11  H   UNL     1      37.555 -22.552 -13.108  0.00  0.00    +0.145 HD
ATOM     12  H   UNL     1      38.245 -21.802 -14.475  0.00  0.00    +0.145 HD
ENDROOT
BRANCH   1  17
ATOM     13  O   UNL     1      34.694 -21.355 -20.248  0.00  0.00    -0.326 OA
ATOM     14  C   UNL     1      33.807 -20.517 -21.005  0.00  0.00    +0.222 C 
ATOM     15  C   UNL     1      32.515 -20.385 -20.213  0.00  0.00    +0.178 C 
ATOM     16  C   UNL     1      32.975 -20.636 -18.791  0.00  0.00    +0.187 C 
ATOM     17  C   UNL     1      34.066 -21.677 -18.995  0.00  0.00    +0.226 C 
BRANCH  14  20
ATOM     18  O   UNL     1      35.160 -18.696 -20.269  0.00  0.00    -0.272 OA
ATOM     19  N   UNL     1      34.314 -18.662 -22.434  0.00  0.00    -0.304 N 
ATOM     20  C   UNL     1      34.510 -19.209 -21.176  0.00  0.00    +0.252 C 
ATOM     21  H   UNL     1      33.773 -19.161 -23.087  0.00  0.00    +0.149 HD
BRANCH  19  22
ATOM     22  C   UNL     1      34.869 -17.396 -22.818  0.00  0.00    +0.072 C 
ATOM     23  C   UNL     1      34.165 -16.508 -23.801  0.00  0.00    +0.021 C 
ATOM     24  C   UNL     1      34.256 -16.106 -22.357  0.00  0.00    +0.021 C 
ENDBRANCH  19  22
ENDBRANCH  14  20
BRANCH  15  25
ATOM     25  O   UNL     1      31.615 -21.412 -20.626  0.00  0.00    -0.379 OA
ATOM     26  H   UNL     1      31.275 -21.207 -21.512  0.00  0.00    +0.211 HD
ENDBRANCH  15  25
BRANCH  16  27
ATOM     27  O   UNL     1      31.944 -21.110 -17.949  0.00  0.00    -0.378 OA
ATOM     28  H   UNL     1      31.756 -20.450 -17.263  0.00  0.00    +0.211 HD
ENDBRANCH  16  27
ENDBRANCH   1  17
BRANCH   9  30
ATOM     29  C   UNL     1      32.087 -24.351 -13.643  0.00  0.00    -0.074 C 
ATOM     30  C   UNL     1      33.002 -23.813 -14.206  0.00  0.00    +0.032 C 
BRANCH  29  31
ATOM     31  C   UNL     1      30.976 -25.012 -12.953  0.00  0.00    +0.077 C 
BRANCH  31  34
ATOM     32  O   UNL     1      26.995 -23.787 -17.588  0.00  0.00    -0.226 OA
ATOM     33  N   UNL     1      27.888 -23.401 -15.477  0.00  0.00    -0.246 N 
ATOM     34  C   UNL     1      29.633 -24.455 -13.420  0.00  0.00    +0.016 C 
ATOM     35  C   UNL     1      29.010 -25.360 -14.493  0.00  0.00    +0.023 C 
ATOM     36  C   UNL     1      29.792 -23.025 -13.958  0.00  0.00    +0.023 C 
ATOM     37  C   UNL     1      27.700 -24.776 -15.017  0.00  0.00    +0.097 C 
ATOM     38  C   UNL     1      28.468 -22.483 -14.491  0.00  0.00    +0.097 C 
ATOM     39  C   UNL     1      27.481 -23.021 -16.758  0.00  0.00    +0.405 C 
BRANCH  39  40
ATOM     40  O   UNL     1      27.681 -21.688 -17.002  0.00  0.00    -0.430 OA
ATOM     41  C   UNL     1      26.502 -20.883 -17.120  0.00  0.00    +0.257 C 
ENDBRANCH  39  40
ENDBRANCH  31  34
ENDBRANCH  29  31
ENDBRANCH   9  30
TORSDOF 9
ENDMDL
MODEL 8
REMARK VINA RESULT:      -8.8      8.746     17.981
REMARK  Name = 11627443
REMARK  9 active torsions:
REMARK  status: ('A' for Active; 'I' for Inactive)
REMARK    1  A    between atoms: N_1  and  C_14
REMARK    2  A    between atoms: C_9  and  C_30
REMARK    3  A    between atoms: C_11  and  C_17
REMARK    4  A    between atoms: C_12  and  O_22
REMARK    5  A    between atoms: C_13  and  O_24
REMARK    6  A    between atoms: N_16  and  C_19
REMARK    7  A    between atoms: C_29  and  C_31
REMARK    8  A    between atoms: C_31  and  C_34
REMARK    9  A    between atoms: C_39  and  O_40
REMARK                            x       y       z     vdW  Elec       q    Type
REMARK                         _______ _______ _______ _____ _____    ______ ____
ROOT
ATOM      1  N   UNL     1      30.858  -4.919 -22.755  0.00  0.00    -0.236 N 
ATOM      2  N   UNL     1      30.646  -4.919 -20.536  0.00  0.00    -0.240 NA
ATOM      3  N   UNL     1      31.760  -7.149 -23.088  0.00  0.00    -0.316 NA
ATOM      4  N   UNL     1      32.016  -8.328 -20.966  0.00  0.00    -0.317 NA
ATOM      5  C   UNL     1      31.295  -6.142 -22.333  0.00  0.00    +0.221 C 
ATOM      6  C   UNL     1      30.480  -4.219 -21.639  0.00  0.00    +0.224 C 
ATOM      7  C   UNL     1      31.155  -6.123 -20.955  0.00  0.00    +0.167 C 
ATOM      8  C   UNL     1      31.536  -7.271 -20.268  0.00  0.00    +0.211 C 
ATOM      9  C   UNL     1      32.097  -8.203 -22.313  0.00  0.00    +0.188 C 
ATOM     10  N   UNL     1      31.429  -7.338 -18.868  0.00  0.00    -0.331 N 
ATOM     11  H   UNL     1      31.701  -8.156 -18.393  0.00  0.00    +0.145 HD
ATOM     12  H   UNL     1      31.080  -6.569 -18.363  0.00  0.00    +0.145 HD
ENDROOT
BRANCH   1  17
ATOM     13  O   UNL     1      31.381  -5.418 -25.008  0.00  0.00    -0.326 OA
ATOM     14  C   UNL     1      32.111  -4.740 -26.041  0.00  0.00    +0.222 C 
ATOM     15  C   UNL     1      31.897  -3.246 -25.848  0.00  0.00    +0.178 C 
ATOM     16  C   UNL     1      31.580  -3.150 -24.369  0.00  0.00    +0.187 C 
ATOM     17  C   UNL     1      30.801  -4.435 -24.132  0.00  0.00    +0.226 C 
BRANCH  14  20
ATOM     18  O   UNL     1      33.916  -5.843 -24.941  0.00  0.00    -0.272 OA
ATOM     19  N   UNL     1      34.358  -4.609 -26.860  0.00  0.00    -0.304 N 
ATOM     20  C   UNL     1      33.541  -5.140 -25.875  0.00  0.00    +0.252 C 
ATOM     21  H   UNL     1      33.952  -4.057 -27.566  0.00  0.00    +0.149 HD
BRANCH  19  22
ATOM     22  C   UNL     1      35.775  -4.835 -26.890  0.00  0.00    +0.072 C 
ATOM     23  C   UNL     1      36.631  -4.245 -27.972  0.00  0.00    +0.021 C 
ATOM     24  C   UNL     1      36.744  -3.736 -26.564  0.00  0.00    +0.021 C 
ENDBRANCH  19  22
ENDBRANCH  14  20
BRANCH  15  25
ATOM     25  O   UNL     1      30.770  -2.839 -26.620  0.00  0.00    -0.379 OA
ATOM     26  H   UNL     1      30.334  -2.089 -26.186  0.00  0.00    +0.211 HD
ENDBRANCH  15  25
BRANCH  16  27
ATOM     27  O   UNL     1      30.821  -2.004 -24.038  0.00  0.00    -0.378 OA
ATOM     28  H   UNL     1      30.433  -2.116 -23.156  0.00  0.00    +0.211 HD
ENDBRANCH  16  27
ENDBRANCH   1  17
BRANCH   9  30
ATOM     29  C   UNL     1      33.036 -10.302 -23.594  0.00  0.00    -0.074 C 
ATOM     30  C   UNL     1      32.607  -9.344 -23.008  0.00  0.00    +0.032 C 
BRANCH  29  31
ATOM     31  C   UNL     1      33.562 -11.471 -24.302  0.00  0.00    +0.077 C 
BRANCH  31  34
ATOM     32  O   UNL     1      35.016 -16.407 -20.786  0.00  0.00    -0.226 OA
ATOM     33  N   UNL     1      33.741 -15.326 -22.402  0.00  0.00    -0.246 N 
ATOM     34  C   UNL     1      33.136 -12.765 -23.612  0.00  0.00    +0.016 C 
ATOM     35  C   UNL     1      33.763 -12.871 -22.213  0.00  0.00    +0.023 C 
ATOM     36  C   UNL     1      33.521 -13.988 -24.460  0.00  0.00    +0.023 C 
ATOM     37  C   UNL     1      33.400 -14.193 -21.543  0.00  0.00    +0.097 C 
ATOM     38  C   UNL     1      33.162 -15.291 -23.748  0.00  0.00    +0.097 C 
ATOM     39  C   UNL     1      34.528 -16.373 -21.914  0.00  0.00    +0.405 C 
BRANCH  39  40
ATOM     40  O   UNL     1      34.703 -17.375 -22.833  0.00  0.00    -0.430 OA
ATOM     41  C   UNL     1      34.230 -18.671 -22.452  0.00  0.00    +0.257 C 
ENDBRANCH  39  40
ENDBRANCH  31  34
ENDBRANCH  29  31
ENDBRANCH   9  30
TORSDOF 9
ENDMDL
MODEL 9
REMARK VINA RESULT:      -8.6      8.747     18.707
REMARK  Name = 11627443
REMARK  9 active torsions:
REMARK  status: ('A' for Active; 'I' for Inactive)
REMARK    1  A    between atoms: N_1  and  C_14
REMARK    2  A    between atoms: C_9  and  C_30
REMARK    3  A    between atoms: C_11  and  C_17
REMARK    4  A    between atoms: C_12  and  O_22
REMARK    5  A    between atoms: C_13  and  O_24
REMARK    6  A    between atoms: N_16  and  C_19
REMARK    7  A    between atoms: C_29  and  C_31
REMARK    8  A    between atoms: C_31  and  C_34
REMARK    9  A    between atoms: C_39  and  O_40
REMARK                            x       y       z     vdW  Elec       q    Type
REMARK                         _______ _______ _______ _____ _____    ______ ____
ROOT
ATOM      1  N   UNL     1      31.997  -4.542 -24.634  0.00  0.00    -0.236 N 
ATOM      2  N   UNL     1      31.575  -3.222 -22.887  0.00  0.00    -0.240 NA
ATOM      3  N   UNL     1      31.599  -6.713 -23.621  0.00  0.00    -0.316 NA
ATOM      4  N   UNL     1      30.950  -6.493 -21.278  0.00  0.00    -0.317 NA
ATOM      5  C   UNL     1      31.664  -5.373 -23.603  0.00  0.00    +0.221 C 
ATOM      6  C   UNL     1      31.931  -3.260 -24.154  0.00  0.00    +0.224 C 
ATOM      7  C   UNL     1      31.405  -4.536 -22.530  0.00  0.00    +0.167 C 
ATOM      8  C   UNL     1      31.036  -5.142 -21.333  0.00  0.00    +0.211 C 
ATOM      9  C   UNL     1      31.233  -7.185 -22.409  0.00  0.00    +0.188 C 
ATOM     10  N   UNL     1      30.755  -4.369 -20.194  0.00  0.00    -0.331 N 
ATOM     11  H   UNL     1      30.494  -4.810 -19.353  0.00  0.00    +0.145 HD
ATOM     12  H   UNL     1      30.818  -3.388 -20.236  0.00  0.00    +0.145 HD
ENDROOT
BRANCH   1  17
ATOM     13  O   UNL     1      33.594  -5.672 -25.965  0.00  0.00    -0.326 OA
ATOM     14  C   UNL     1      34.372  -5.314 -27.118  0.00  0.00    +0.222 C 
ATOM     15  C   UNL     1      33.531  -4.365 -27.959  0.00  0.00    +0.178 C 
ATOM     16  C   UNL     1      32.594  -3.760 -26.933  0.00  0.00    +0.187 C 
ATOM     17  C   UNL     1      32.360  -4.933 -25.994  0.00  0.00    +0.226 C 
BRANCH  14  20
ATOM     18  O   UNL     1      35.762  -4.395 -25.412  0.00  0.00    -0.272 OA
ATOM     19  N   UNL     1      36.536  -4.411 -27.604  0.00  0.00    -0.304 N 
ATOM     20  C   UNL     1      35.617  -4.670 -26.600  0.00  0.00    +0.252 C 
ATOM     21  H   UNL     1      36.317  -4.675 -28.526  0.00  0.00    +0.149 HD
BRANCH  19  22
ATOM     22  C   UNL     1      37.795  -3.771 -27.348  0.00  0.00    +0.072 C 
ATOM     23  C   UNL     1      38.487  -2.970 -28.412  0.00  0.00    +0.021 C 
ATOM     24  C   UNL     1      37.897  -2.280 -27.217  0.00  0.00    +0.021 C 
ENDBRANCH  19  22
ENDBRANCH  14  20
BRANCH  15  25
ATOM     25  O   UNL     1      32.792  -5.127 -28.911  0.00  0.00    -0.379 OA
ATOM     26  H   UNL     1      32.426  -5.915 -28.480  0.00  0.00    +0.211 HD
ENDBRANCH  15  25
BRANCH  16  27
ATOM     27  O   UNL     1      31.387  -3.286 -27.496  0.00  0.00    -0.378 OA
ATOM     28  H   UNL     1      31.482  -2.347 -27.723  0.00  0.00    +0.211 HD
ENDBRANCH  16  27
ENDBRANCH   1  17
BRANCH   9  30
ATOM     29  C   UNL     1      31.043  -9.803 -22.217  0.00  0.00    -0.074 C 
ATOM     30  C   UNL     1      31.129  -8.607 -22.304  0.00  0.00    +0.032 C 
BRANCH  29  31
ATOM     31  C   UNL     1      30.935 -11.259 -22.104  0.00  0.00    +0.077 C 
BRANCH  31  34
ATOM     32  O   UNL     1      34.494 -16.229 -23.310  0.00  0.00    -0.226 OA
ATOM     33  N   UNL     1      34.025 -14.250 -22.186  0.00  0.00    -0.246 N 
ATOM     34  C   UNL     1      32.314 -11.914 -22.127  0.00  0.00    +0.016 C 
ATOM     35  C   UNL     1      32.502 -12.746 -23.404  0.00  0.00    +0.023 C 
ATOM     36  C   UNL     1      32.522 -12.793 -20.884  0.00  0.00    +0.023 C 
ATOM     37  C   UNL     1      33.851 -13.461 -23.404  0.00  0.00    +0.097 C 
ATOM     38  C   UNL     1      33.871 -13.508 -20.931  0.00  0.00    +0.097 C 
ATOM     39  C   UNL     1      34.364 -15.603 -22.260  0.00  0.00    +0.405 C 
BRANCH  39  40
ATOM     40  O   UNL     1      34.541 -16.172 -21.026  0.00  0.00    -0.430 OA
ATOM     41  C   UNL     1      35.130 -17.477 -21.010  0.00  0.00    +0.257 C 
ENDBRANCH  39  40
ENDBRANCH  31  34
ENDBRANCH  29  31
ENDBRANCH   9  30
TORSDOF 9
ENDMDL
