MODEL 1
REMARK VINA RESULT:     -11.7      0.000      0.000
REMARK  Name = 24741808
REMARK  3 active torsions:
REMARK  status: ('A' for Active; 'I' for Inactive)
REMARK    1  A    between atoms: N_4  and  C_13
REMARK    2  A    between atoms: N_4  and  C_23
REMARK    3  A    between atoms: C_23  and  C_25
REMARK                            x       y       z     vdW  Elec       q    Type
REMARK                         _______ _______ _______ _____ _____    ______ ____
ROOT
ATOM      1  O   UNL     1      33.074 -14.543 -26.038  0.00  0.00    -0.209 OA
ATOM      2  N   UNL     1      34.757 -18.135 -22.592  0.00  0.00    -0.305 N 
ATOM      3  N   UNL     1      34.924 -17.143 -20.611  0.00  0.00    -0.305 N 
ATOM      4  N   UNL     1      33.393 -12.808 -22.443  0.00  0.00    -0.275 N 
ATOM      5  N   UNL     1      32.858 -12.658 -24.757  0.00  0.00    -0.302 NA
ATOM      6  N   UNL     1      32.683 -10.812 -23.324  0.00  0.00    -0.320 N 
ATOM      7  C   UNL     1      34.371 -16.835 -22.800  0.00  0.00    +0.061 C 
ATOM      8  C   UNL     1      34.483 -16.237 -21.548  0.00  0.00    +0.061 C 
ATOM      9  C   UNL     1      33.729 -14.162 -22.534  0.00  0.00    +0.064 C 
ATOM     10  C   UNL     1      33.628 -14.801 -23.779  0.00  0.00    +0.110 C 
ATOM     11  C   UNL     1      33.948 -16.156 -23.943  0.00  0.00    +0.030 C 
ATOM     12  C   UNL     1      35.077 -18.269 -21.269  0.00  0.00    +0.208 C 
ATOM     13  C   UNL     1      34.158 -14.878 -21.405  0.00  0.00    +0.031 C 
ATOM     14  C   UNL     1      33.166 -13.994 -24.945  0.00  0.00    +0.208 C 
ATOM     15  C   UNL     1      32.975 -12.131 -23.566  0.00  0.00    +0.248 C 
ATOM     16  H   UNL     1      34.796 -18.845 -23.273  0.00  0.00    +0.150 HD
ATOM     17  H   UNL     1      35.088 -16.982 -19.653  0.00  0.00    +0.150 HD
ATOM     18  H   UNL     1      33.456 -12.340 -21.579  0.00  0.00    +0.156 HD
ATOM     19  H   UNL     1      32.783 -10.446 -22.416  0.00  0.00    +0.146 HD
ATOM     20  H   UNL     1      32.375 -10.233 -24.058  0.00  0.00    +0.146 HD
ENDROOT
BRANCH  12  21
ATOM     21  N   UNL     1      35.489 -19.479 -20.830  0.00  0.00    -0.262 NA
ATOM     22  H   UNL     1      36.458 -19.652 -20.808  0.00  0.00    +0.127 HD
BRANCH  21  23
ATOM     23  C   UNL     1      34.602 -20.540 -20.388  0.00  0.00    +0.105 C 
BRANCH  23  25
ATOM     24  S   UNL     1      33.765 -22.015 -18.184  0.00  0.00    -0.089 S 
ATOM     25  C   UNL     1      34.939 -21.102 -19.033  0.00  0.00    +0.023 C 
ATOM     26  C   UNL     1      36.115 -20.988 -18.326  0.00  0.00    +0.004 C 
ATOM     27  C   UNL     1      36.053 -21.659 -17.071  0.00  0.00    +0.007 C 
ATOM     28  C   UNL     1      34.831 -22.262 -16.867  0.00  0.00    +0.035 C 
ENDBRANCH  23  25
ENDBRANCH  21  23
ENDBRANCH  12  21
TORSDOF 3
ENDMDL
MODEL 2
REMARK VINA RESULT:     -11.6      1.248      2.047
REMARK  Name = 24741808
REMARK  3 active torsions:
REMARK  status: ('A' for Active; 'I' for Inactive)
REMARK    1  A    between atoms: N_4  and  C_13
REMARK    2  A    between atoms: N_4  and  C_23
REMARK    3  A    between atoms: C_23  and  C_25
REMARK                            x       y       z     vdW  Elec       q    Type
REMARK                         _______ _______ _______ _____ _____    ______ ____
ROOT
ATOM      1  O   UNL     1      33.395 -12.419 -21.812  0.00  0.00    -0.209 OA
ATOM      2  N   UNL     1      35.011 -17.271 -20.605  0.00  0.00    -0.305 N 
ATOM      3  N   UNL     1      34.915 -18.494 -22.457  0.00  0.00    -0.305 N 
ATOM      4  N   UNL     1      33.243 -14.672 -25.120  0.00  0.00    -0.275 N 
ATOM      5  N   UNL     1      32.915 -12.574 -24.045  0.00  0.00    -0.302 NA
ATOM      6  N   UNL     1      32.466 -12.881 -26.324  0.00  0.00    -0.320 N 
ATOM      7  C   UNL     1      34.550 -16.423 -21.580  0.00  0.00    +0.061 C 
ATOM      8  C   UNL     1      34.500 -17.210 -22.727  0.00  0.00    +0.061 C 
ATOM      9  C   UNL     1      33.685 -15.286 -23.944  0.00  0.00    +0.064 C 
ATOM     10  C   UNL     1      33.751 -14.526 -22.767  0.00  0.00    +0.110 C 
ATOM     11  C   UNL     1      34.185 -15.076 -21.553  0.00  0.00    +0.030 C 
ATOM     12  C   UNL     1      35.214 -18.496 -21.178  0.00  0.00    +0.208 C 
ATOM     13  C   UNL     1      34.061 -16.639 -23.933  0.00  0.00    +0.031 C 
ATOM     14  C   UNL     1      33.340 -13.093 -22.835  0.00  0.00    +0.208 C 
ATOM     15  C   UNL     1      32.881 -13.344 -25.101  0.00  0.00    +0.248 C 
ATOM     16  H   UNL     1      35.167 -17.039 -19.661  0.00  0.00    +0.150 HD
ATOM     17  H   UNL     1      34.975 -19.249 -23.088  0.00  0.00    +0.150 HD
ATOM     18  H   UNL     1      33.189 -15.187 -25.957  0.00  0.00    +0.156 HD
ATOM     19  H   UNL     1      32.452 -13.487 -27.100  0.00  0.00    +0.146 HD
ATOM     20  H   UNL     1      32.184 -11.943 -26.426  0.00  0.00    +0.146 HD
ENDROOT
BRANCH  12  21
ATOM     21  N   UNL     1      35.671 -19.500 -20.398  0.00  0.00    -0.262 NA
ATOM     22  H   UNL     1      36.545 -19.379 -19.961  0.00  0.00    +0.127 HD
BRANCH  21  23
ATOM     23  C   UNL     1      34.962 -20.745 -20.160  0.00  0.00    +0.105 C 
BRANCH  23  25
ATOM     24  S   UNL     1      33.769 -22.056 -18.017  0.00  0.00    -0.089 S 
ATOM     25  C   UNL     1      35.101 -21.276 -18.759  0.00  0.00    +0.023 C 
ATOM     26  C   UNL     1      36.200 -21.228 -17.929  0.00  0.00    +0.004 C 
ATOM     27  C   UNL     1      35.945 -21.840 -16.668  0.00  0.00    +0.007 C 
ATOM     28  C   UNL     1      34.661 -22.333 -16.582  0.00  0.00    +0.035 C 
ENDBRANCH  23  25
ENDBRANCH  21  23
ENDBRANCH  12  21
TORSDOF 3
ENDMDL
MODEL 3
REMARK VINA RESULT:     -11.5      3.827      8.116
REMARK  Name = 24741808
REMARK  3 active torsions:
REMARK  status: ('A' for Active; 'I' for Inactive)
REMARK    1  A    between atoms: N_4  and  C_13
REMARK    2  A    between atoms: N_4  and  C_23
REMARK    3  A    between atoms: C_23  and  C_25
REMARK                            x       y       z     vdW  Elec       q    Type
REMARK                         _______ _______ _______ _____ _____    ______ ____
ROOT
ATOM      1  O   UNL     1      32.612 -21.977 -19.252  0.00  0.00    -0.209 OA
ATOM      2  N   UNL     1      33.726 -18.273 -22.809  0.00  0.00    -0.305 N 
ATOM      3  N   UNL     1      35.774 -17.524 -22.384  0.00  0.00    -0.305 N 
ATOM      4  N   UNL     1      36.299 -20.589 -18.533  0.00  0.00    -0.275 N 
ATOM      5  N   UNL     1      34.509 -22.053 -17.972  0.00  0.00    -0.302 NA
ATOM      6  N   UNL     1      36.510 -22.020 -16.753  0.00  0.00    -0.320 N 
ATOM      7  C   UNL     1      34.157 -18.986 -21.719  0.00  0.00    +0.061 C 
ATOM      8  C   UNL     1      35.438 -18.501 -21.474  0.00  0.00    +0.061 C 
ATOM      9  C   UNL     1      35.602 -20.032 -19.610  0.00  0.00    +0.064 C 
ATOM     10  C   UNL     1      34.308 -20.495 -19.889  0.00  0.00    +0.110 C 
ATOM     11  C   UNL     1      33.551 -19.983 -20.953  0.00  0.00    +0.030 C 
ATOM     12  C   UNL     1      34.726 -17.414 -23.168  0.00  0.00    +0.208 C 
ATOM     13  C   UNL     1      36.180 -19.028 -20.403  0.00  0.00    +0.031 C 
ATOM     14  C   UNL     1      33.743 -21.564 -19.015  0.00  0.00    +0.208 C 
ATOM     15  C   UNL     1      35.708 -21.572 -17.773  0.00  0.00    +0.248 C 
ATOM     16  H   UNL     1      32.852 -18.365 -23.253  0.00  0.00    +0.150 HD
ATOM     17  H   UNL     1      36.617 -17.018 -22.436  0.00  0.00    +0.150 HD
ATOM     18  H   UNL     1      37.209 -20.278 -18.319  0.00  0.00    +0.156 HD
ATOM     19  H   UNL     1      37.408 -21.637 -16.629  0.00  0.00    +0.146 HD
ATOM     20  H   UNL     1      36.186 -22.724 -16.145  0.00  0.00    +0.146 HD
ENDROOT
BRANCH  12  21
ATOM     21  N   UNL     1      34.522 -16.601 -24.229  0.00  0.00    -0.262 NA
ATOM     22  H   UNL     1      35.209 -16.587 -24.934  0.00  0.00    +0.127 HD
BRANCH  21  23
ATOM     23  C   UNL     1      33.360 -15.747 -24.399  0.00  0.00    +0.105 C 
BRANCH  23  25
ATOM     24  S   UNL     1      32.828 -13.021 -24.276  0.00  0.00    -0.089 S 
ATOM     25  C   UNL     1      33.400 -14.481 -23.588  0.00  0.00    +0.023 C 
ATOM     26  C   UNL     1      33.854 -14.302 -22.300  0.00  0.00    +0.004 C 
ATOM     27  C   UNL     1      33.730 -12.949 -21.872  0.00  0.00    +0.007 C 
ATOM     28  C   UNL     1      33.186 -12.144 -22.849  0.00  0.00    +0.035 C 
ENDBRANCH  23  25
ENDBRANCH  21  23
ENDBRANCH  12  21
TORSDOF 3
ENDMDL
MODEL 4
REMARK VINA RESULT:     -11.2      4.169      8.493
REMARK  Name = 24741808
REMARK  3 active torsions:
REMARK  status: ('A' for Active; 'I' for Inactive)
REMARK    1  A    between atoms: N_4  and  C_13
REMARK    2  A    between atoms: N_4  and  C_23
REMARK    3  A    between atoms: C_23  and  C_25
REMARK                            x       y       z     vdW  Elec       q    Type
REMARK                         _______ _______ _______ _____ _____    ______ ____
ROOT
ATOM      1  O   UNL     1      36.285 -22.092 -16.959  0.00  0.00    -0.209 OA
ATOM      2  N   UNL     1      35.781 -18.948 -21.139  0.00  0.00    -0.305 N 
ATOM      3  N   UNL     1      33.643 -18.961 -21.739  0.00  0.00    -0.305 N 
ATOM      4  N   UNL     1      32.442 -22.078 -18.087  0.00  0.00    -0.275 N 
ATOM      5  N   UNL     1      34.150 -22.843 -16.616  0.00  0.00    -0.302 NA
ATOM      6  N   UNL     1      31.919 -23.526 -16.386  0.00  0.00    -0.320 N 
ATOM      7  C   UNL     1      35.157 -19.783 -20.248  0.00  0.00    +0.061 C 
ATOM      8  C   UNL     1      33.822 -19.774 -20.643  0.00  0.00    +0.061 C 
ATOM      9  C   UNL     1      33.332 -21.298 -18.832  0.00  0.00    +0.064 C 
ATOM     10  C   UNL     1      34.686 -21.281 -18.463  0.00  0.00    +0.110 C 
ATOM     11  C   UNL     1      35.634 -20.521 -19.164  0.00  0.00    +0.030 C 
ATOM     12  C   UNL     1      34.836 -18.482 -22.009  0.00  0.00    +0.208 C 
ATOM     13  C   UNL     1      32.889 -20.542 -19.928  0.00  0.00    +0.031 C 
ATOM     14  C   UNL     1      35.104 -22.102 -17.290  0.00  0.00    +0.208 C 
ATOM     15  C   UNL     1      32.906 -22.809 -17.017  0.00  0.00    +0.248 C 
ATOM     16  H   UNL     1      36.740 -18.723 -21.149  0.00  0.00    +0.150 HD
ATOM     17  H   UNL     1      32.801 -18.778 -22.218  0.00  0.00    +0.150 HD
ATOM     18  H   UNL     1      31.488 -22.105 -18.328  0.00  0.00    +0.156 HD
ATOM     19  H   UNL     1      30.992 -23.479 -16.713  0.00  0.00    +0.146 HD
ATOM     20  H   UNL     1      32.140 -24.085 -15.607  0.00  0.00    +0.146 HD
ENDROOT
BRANCH  12  21
ATOM     21  N   UNL     1      35.226 -17.634 -22.986  0.00  0.00    -0.262 NA
ATOM     22  H   UNL     1      36.161 -17.687 -23.291  0.00  0.00    +0.127 HD
BRANCH  21  23
ATOM     23  C   UNL     1      34.363 -16.651 -23.616  0.00  0.00    +0.105 C 
BRANCH  23  25
ATOM     24  S   UNL     1      33.500 -14.010 -23.501  0.00  0.00    -0.089 S 
ATOM     25  C   UNL     1      34.078 -15.444 -22.764  0.00  0.00    +0.023 C 
ATOM     26  C   UNL     1      34.219 -15.304 -21.401  0.00  0.00    +0.004 C 
ATOM     27  C   UNL     1      33.848 -14.003 -20.955  0.00  0.00    +0.007 C 
ATOM     28  C   UNL     1      33.436 -13.197 -21.994  0.00  0.00    +0.035 C 
ENDBRANCH  23  25
ENDBRANCH  21  23
ENDBRANCH  12  21
TORSDOF 3
ENDMDL
MODEL 5
REMARK VINA RESULT:     -11.1      4.550      9.487
REMARK  Name = 24741808
REMARK  3 active torsions:
REMARK  status: ('A' for Active; 'I' for Inactive)
REMARK    1  A    between atoms: N_4  and  C_13
REMARK    2  A    between atoms: N_4  and  C_23
REMARK    3  A    between atoms: C_23  and  C_25
REMARK                            x       y       z     vdW  Elec       q    Type
REMARK                         _______ _______ _______ _____ _____    ______ ____
ROOT
ATOM      1  O   UNL     1      37.795 -22.071 -15.781  0.00  0.00    -0.209 OA
ATOM      2  N   UNL     1      35.307 -20.069 -19.954  0.00  0.00    -0.305 N 
ATOM      3  N   UNL     1      33.213 -20.810 -19.911  0.00  0.00    -0.305 N 
ATOM      4  N   UNL     1      34.008 -23.376 -15.754  0.00  0.00    -0.275 N 
ATOM      5  N   UNL     1      36.170 -23.321 -14.761  0.00  0.00    -0.302 NA
ATOM      6  N   UNL     1      34.410 -24.556 -13.828  0.00  0.00    -0.320 N 
ATOM      7  C   UNL     1      35.222 -20.861 -18.837  0.00  0.00    +0.061 C 
ATOM      8  C   UNL     1      33.905 -21.310 -18.831  0.00  0.00    +0.061 C 
ATOM      9  C   UNL     1      34.389 -22.532 -16.802  0.00  0.00    +0.064 C 
ATOM     10  C   UNL     1      35.708 -22.057 -16.842  0.00  0.00    +0.110 C 
ATOM     11  C   UNL     1      36.159 -21.208 -17.862  0.00  0.00    +0.030 C 
ATOM     12  C   UNL     1      34.082 -20.071 -20.561  0.00  0.00    +0.208 C 
ATOM     13  C   UNL     1      33.474 -22.161 -17.800  0.00  0.00    +0.031 C 
ATOM     14  C   UNL     1      36.639 -22.482 -15.756  0.00  0.00    +0.208 C 
ATOM     15  C   UNL     1      34.926 -23.723 -14.789  0.00  0.00    +0.248 C 
ATOM     16  H   UNL     1      36.108 -19.586 -20.263  0.00  0.00    +0.150 HD
ATOM     17  H   UNL     1      32.270 -20.971 -20.144  0.00  0.00    +0.150 HD
ATOM     18  H   UNL     1      33.087 -23.720 -15.706  0.00  0.00    +0.156 HD
ATOM     19  H   UNL     1      33.469 -24.841 -13.879  0.00  0.00    +0.146 HD
ATOM     20  H   UNL     1      34.981 -24.868 -13.089  0.00  0.00    +0.146 HD
ENDROOT
BRANCH  12  21
ATOM     21  N   UNL     1      33.928 -19.351 -21.695  0.00  0.00    -0.262 NA
ATOM     22  H   UNL     1      33.060 -19.403 -22.156  0.00  0.00    +0.127 HD
BRANCH  21  23
ATOM     23  C   UNL     1      34.955 -18.507 -22.279  0.00  0.00    +0.105 C 
BRANCH  23  25
ATOM     24  S   UNL     1      34.186 -16.374 -23.889  0.00  0.00    -0.089 S 
ATOM     25  C   UNL     1      34.582 -17.052 -22.367  0.00  0.00    +0.023 C 
ATOM     26  C   UNL     1      34.506 -16.124 -21.352  0.00  0.00    +0.004 C 
ATOM     27  C   UNL     1      34.117 -14.839 -21.830  0.00  0.00    +0.007 C 
ATOM     28  C   UNL     1      33.910 -14.834 -23.192  0.00  0.00    +0.035 C 
ENDBRANCH  23  25
ENDBRANCH  21  23
ENDBRANCH  12  21
TORSDOF 3
ENDMDL
MODEL 6
REMARK VINA RESULT:     -11.1      4.364      9.033
REMARK  Name = 24741808
REMARK  3 active torsions:
REMARK  status: ('A' for Active; 'I' for Inactive)
REMARK    1  A    between atoms: N_4  and  C_13
REMARK    2  A    between atoms: N_4  and  C_23
REMARK    3  A    between atoms: C_23  and  C_25
REMARK                            x       y       z     vdW  Elec       q    Type
REMARK                         _______ _______ _______ _____ _____    ______ ____
ROOT
ATOM      1  O   UNL     1      32.351 -23.211 -16.524  0.00  0.00    -0.209 OA
ATOM      2  N   UNL     1      33.339 -20.046 -20.601  0.00  0.00    -0.305 N 
ATOM      3  N   UNL     1      35.506 -19.560 -20.568  0.00  0.00    -0.305 N 
ATOM      4  N   UNL     1      36.252 -22.301 -16.515  0.00  0.00    -0.275 N 
ATOM      5  N   UNL     1      34.404 -23.437 -15.536  0.00  0.00    -0.302 NA
ATOM      6  N   UNL     1      36.563 -23.578 -14.635  0.00  0.00    -0.320 N 
ATOM      7  C   UNL     1      33.846 -20.710 -19.512  0.00  0.00    +0.061 C 
ATOM      8  C   UNL     1      35.200 -20.391 -19.514  0.00  0.00    +0.061 C 
ATOM      9  C   UNL     1      35.467 -21.752 -17.534  0.00  0.00    +0.064 C 
ATOM     10  C   UNL     1      34.096 -22.050 -17.566  0.00  0.00    +0.110 C 
ATOM     11  C   UNL     1      33.250 -21.535 -18.558  0.00  0.00    +0.030 C 
ATOM     12  C   UNL     1      34.369 -19.374 -21.198  0.00  0.00    +0.208 C 
ATOM     13  C   UNL     1      36.031 -20.917 -18.511  0.00  0.00    +0.031 C 
ATOM     14  C   UNL     1      33.548 -22.943 -16.504  0.00  0.00    +0.208 C 
ATOM     15  C   UNL     1      35.671 -23.116 -15.570  0.00  0.00    +0.248 C 
ATOM     16  H   UNL     1      32.400 -20.052 -20.898  0.00  0.00    +0.150 HD
ATOM     17  H   UNL     1      36.388 -19.186 -20.800  0.00  0.00    +0.150 HD
ATOM     18  H   UNL     1      37.215 -22.105 -16.474  0.00  0.00    +0.156 HD
ATOM     19  H   UNL     1      37.510 -23.317 -14.688  0.00  0.00    +0.146 HD
ATOM     20  H   UNL     1      36.255 -24.170 -13.911  0.00  0.00    +0.146 HD
ENDROOT
BRANCH  12  21
ATOM     21  N   UNL     1      34.101 -18.641 -22.302  0.00  0.00    -0.262 NA
ATOM     22  H   UNL     1      33.290 -18.864 -22.813  0.00  0.00    +0.127 HD
BRANCH  21  23
ATOM     23  C   UNL     1      34.926 -17.549 -22.784  0.00  0.00    +0.105 C 
BRANCH  23  25
ATOM     24  S   UNL     1      34.169 -14.968 -23.490  0.00  0.00    -0.089 S 
ATOM     25  C   UNL     1      34.477 -16.187 -22.328  0.00  0.00    +0.023 C 
ATOM     26  C   UNL     1      34.263 -15.742 -21.042  0.00  0.00    +0.004 C 
ATOM     27  C   UNL     1      33.839 -14.382 -21.010  0.00  0.00    +0.007 C 
ATOM     28  C   UNL     1      33.746 -13.839 -22.273  0.00  0.00    +0.035 C 
ENDBRANCH  23  25
ENDBRANCH  21  23
ENDBRANCH  12  21
TORSDOF 3
ENDMDL
MODEL 7
REMARK VINA RESULT:     -11.0      4.395      8.441
REMARK  Name = 24741808
REMARK  3 active torsions:
REMARK  status: ('A' for Active; 'I' for Inactive)
REMARK    1  A    between atoms: N_4  and  C_13
REMARK    2  A    between atoms: N_4  and  C_23
REMARK    3  A    between atoms: C_23  and  C_25
REMARK                            x       y       z     vdW  Elec       q    Type
REMARK                         _______ _______ _______ _____ _____    ______ ____
ROOT
ATOM      1  O   UNL     1      35.189 -17.083 -20.556  0.00  0.00    -0.209 OA
ATOM      2  N   UNL     1      33.662 -12.355 -22.265  0.00  0.00    -0.305 N 
ATOM      3  N   UNL     1      32.899 -12.601 -24.337  0.00  0.00    -0.305 N 
ATOM      4  N   UNL     1      33.803 -17.467 -24.294  0.00  0.00    -0.275 N 
ATOM      5  N   UNL     1      34.745 -18.447 -22.340  0.00  0.00    -0.302 NA
ATOM      6  N   UNL     1      34.236 -19.719 -24.242  0.00  0.00    -0.320 N 
ATOM      7  C   UNL     1      33.795 -13.691 -22.548  0.00  0.00    +0.061 C 
ATOM      8  C   UNL     1      33.311 -13.819 -23.847  0.00  0.00    +0.061 C 
ATOM      9  C   UNL     1      33.789 -16.186 -23.732  0.00  0.00    +0.064 C 
ATOM     10  C   UNL     1      34.268 -16.017 -22.424  0.00  0.00    +0.110 C 
ATOM     11  C   UNL     1      34.283 -14.762 -21.798  0.00  0.00    +0.030 C 
ATOM     12  C   UNL     1      33.123 -11.747 -23.365  0.00  0.00    +0.208 C 
ATOM     13  C   UNL     1      33.305 -15.085 -24.456  0.00  0.00    +0.031 C 
ATOM     14  C   UNL     1      34.770 -17.221 -21.700  0.00  0.00    +0.208 C 
ATOM     15  C   UNL     1      34.283 -18.528 -23.561  0.00  0.00    +0.248 C 
ATOM     16  H   UNL     1      33.910 -11.913 -21.421  0.00  0.00    +0.150 HD
ATOM     17  H   UNL     1      32.518 -12.411 -25.226  0.00  0.00    +0.150 HD
ATOM     18  H   UNL     1      33.471 -17.608 -25.210  0.00  0.00    +0.156 HD
ATOM     19  H   UNL     1      33.883 -19.746 -25.160  0.00  0.00    +0.146 HD
ATOM     20  H   UNL     1      34.555 -20.545 -23.812  0.00  0.00    +0.146 HD
ENDROOT
BRANCH  12  21
ATOM     21  N   UNL     1      32.900 -10.414 -23.315  0.00  0.00    -0.262 NA
ATOM     22  H   UNL     1      33.658  -9.816 -23.509  0.00  0.00    +0.127 HD
BRANCH  21  23
ATOM     23  C   UNL     1      31.621  -9.805 -22.996  0.00  0.00    +0.105 C 
BRANCH  23  25
ATOM     24  S   UNL     1      31.721  -7.791 -21.082  0.00  0.00    -0.089 S 
ATOM     25  C   UNL     1      31.466  -9.418 -21.550  0.00  0.00    +0.023 C 
ATOM     26  C   UNL     1      31.132 -10.218 -20.480  0.00  0.00    +0.004 C 
ATOM     27  C   UNL     1      31.083  -9.485 -19.259  0.00  0.00    +0.007 C 
ATOM     28  C   UNL     1      31.382  -8.153 -19.443  0.00  0.00    +0.035 C 
ENDBRANCH  23  25
ENDBRANCH  21  23
ENDBRANCH  12  21
TORSDOF 3
ENDMDL
MODEL 8
REMARK VINA RESULT:     -10.9      2.219      3.285
REMARK  Name = 24741808
REMARK  3 active torsions:
REMARK  status: ('A' for Active; 'I' for Inactive)
REMARK    1  A    between atoms: N_4  and  C_13
REMARK    2  A    between atoms: N_4  and  C_23
REMARK    3  A    between atoms: C_23  and  C_25
REMARK                            x       y       z     vdW  Elec       q    Type
REMARK                         _______ _______ _______ _____ _____    ______ ____
ROOT
ATOM      1  O   UNL     1      31.706 -11.794 -19.609  0.00  0.00    -0.209 OA
ATOM      2  N   UNL     1      34.346 -16.012 -21.297  0.00  0.00    -0.305 N 
ATOM      3  N   UNL     1      34.848 -15.682 -23.436  0.00  0.00    -0.305 N 
ATOM      4  N   UNL     1      32.638 -11.254 -23.466  0.00  0.00    -0.275 N 
ATOM      5  N   UNL     1      31.616 -10.462 -21.468  0.00  0.00    -0.302 NA
ATOM      6  N   UNL     1      31.604  -9.206 -23.447  0.00  0.00    -0.320 N 
ATOM      7  C   UNL     1      33.827 -14.781 -21.609  0.00  0.00    +0.061 C 
ATOM      8  C   UNL     1      34.154 -14.598 -22.949  0.00  0.00    +0.061 C 
ATOM      9  C   UNL     1      33.050 -12.448 -22.868  0.00  0.00    +0.064 C 
ATOM     10  C   UNL     1      32.739 -12.670 -21.518  0.00  0.00    +0.110 C 
ATOM     11  C   UNL     1      33.121 -13.844 -20.853  0.00  0.00    +0.030 C 
ATOM     12  C   UNL     1      34.945 -16.509 -22.421  0.00  0.00    +0.208 C 
ATOM     13  C   UNL     1      33.762 -13.414 -23.597  0.00  0.00    +0.031 C 
ATOM     14  C   UNL     1      31.981 -11.610 -20.790  0.00  0.00    +0.208 C 
ATOM     15  C   UNL     1      31.941 -10.325 -22.727  0.00  0.00    +0.248 C 
ATOM     16  H   UNL     1      34.296 -16.457 -20.420  0.00  0.00    +0.150 HD
ATOM     17  H   UNL     1      35.196 -15.810 -24.349  0.00  0.00    +0.150 HD
ATOM     18  H   UNL     1      32.845 -11.078 -24.412  0.00  0.00    +0.156 HD
ATOM     19  H   UNL     1      31.863  -9.134 -24.394  0.00  0.00    +0.146 HD
ATOM     20  H   UNL     1      31.102  -8.477 -23.017  0.00  0.00    +0.146 HD
ENDROOT
BRANCH  12  21
ATOM     21  N   UNL     1      35.531 -17.726 -22.349  0.00  0.00    -0.262 NA
ATOM     22  H   UNL     1      35.628 -18.237 -23.185  0.00  0.00    +0.127 HD
BRANCH  21  23
ATOM     23  C   UNL     1      36.027 -18.329 -21.125  0.00  0.00    +0.105 C 
BRANCH  23  25
ATOM     24  S   UNL     1      35.777 -20.609 -19.552  0.00  0.00    -0.089 S 
ATOM     25  C   UNL     1      35.117 -19.375 -20.540  0.00  0.00    +0.023 C 
ATOM     26  C   UNL     1      33.753 -19.503 -20.686  0.00  0.00    +0.004 C 
ATOM     27  C   UNL     1      33.243 -20.629 -19.977  0.00  0.00    +0.007 C 
ATOM     28  C   UNL     1      34.236 -21.318 -19.316  0.00  0.00    +0.035 C 
ENDBRANCH  23  25
ENDBRANCH  21  23
ENDBRANCH  12  21
TORSDOF 3
ENDMDL
MODEL 9
REMARK VINA RESULT:     -10.8      3.958      8.271
REMARK  Name = 24741808
REMARK  3 active torsions:
REMARK  status: ('A' for Active; 'I' for Inactive)
REMARK    1  A    between atoms: N_4  and  C_13
REMARK    2  A    between atoms: N_4  and  C_23
REMARK    3  A    between atoms: C_23  and  C_25
REMARK                            x       y       z     vdW  Elec       q    Type
REMARK                         _______ _______ _______ _____ _____    ______ ____
ROOT
ATOM      1  O   UNL     1      33.820 -17.910 -24.790  0.00  0.00    -0.209 OA
ATOM      2  N   UNL     1      32.982 -12.788 -23.971  0.00  0.00    -0.305 N 
ATOM      3  N   UNL     1      33.507 -12.348 -21.858  0.00  0.00    -0.305 N 
ATOM      4  N   UNL     1      34.753 -17.058 -20.989  0.00  0.00    -0.275 N 
ATOM      5  N   UNL     1      34.569 -18.644 -22.754  0.00  0.00    -0.302 NA
ATOM      6  N   UNL     1      35.320 -19.250 -20.619  0.00  0.00    -0.320 N 
ATOM      7  C   UNL     1      33.389 -13.985 -23.439  0.00  0.00    +0.061 C 
ATOM      8  C   UNL     1      33.712 -13.683 -22.119  0.00  0.00    +0.061 C 
ATOM      9  C   UNL     1      34.297 -16.006 -21.789  0.00  0.00    +0.064 C 
ATOM     10  C   UNL     1      33.961 -16.270 -23.126  0.00  0.00    +0.110 C 
ATOM     11  C   UNL     1      33.498 -15.264 -23.986  0.00  0.00    +0.030 C 
ATOM     12  C   UNL     1      33.069 -11.842 -22.988  0.00  0.00    +0.208 C 
ATOM     13  C   UNL     1      34.175 -14.706 -21.274  0.00  0.00    +0.031 C 
ATOM     14  C   UNL     1      34.110 -17.669 -23.622  0.00  0.00    +0.208 C 
ATOM     15  C   UNL     1      34.862 -18.322 -21.521  0.00  0.00    +0.248 C 
ATOM     16  H   UNL     1      32.679 -12.638 -24.896  0.00  0.00    +0.150 HD
ATOM     17  H   UNL     1      33.656 -11.874 -21.007  0.00  0.00    +0.150 HD
ATOM     18  H   UNL     1      34.994 -16.895 -20.049  0.00  0.00    +0.156 HD
ATOM     19  H   UNL     1      35.532 -18.976 -19.697  0.00  0.00    +0.146 HD
ATOM     20  H   UNL     1      35.436 -20.188 -20.893  0.00  0.00    +0.146 HD
ENDROOT
BRANCH  12  21
ATOM     21  N   UNL     1      32.714 -10.572 -23.288  0.00  0.00    -0.262 NA
ATOM     22  H   UNL     1      33.360 -10.021 -23.785  0.00  0.00    +0.127 HD
BRANCH  21  23
ATOM     23  C   UNL     1      31.444  -9.967 -22.926  0.00  0.00    +0.105 C 
BRANCH  23  25
ATOM     24  S   UNL     1      31.778  -7.786 -21.234  0.00  0.00    -0.089 S 
ATOM     25  C   UNL     1      31.395  -9.430 -21.521  0.00  0.00    +0.023 C 
ATOM     26  C   UNL     1      31.072 -10.096 -20.360  0.00  0.00    +0.004 C 
ATOM     27  C   UNL     1      31.139  -9.246 -19.219  0.00  0.00    +0.007 C 
ATOM     28  C   UNL     1      31.510  -7.961 -19.551  0.00  0.00    +0.035 C 
ENDBRANCH  23  25
ENDBRANCH  21  23
ENDBRANCH  12  21
TORSDOF 3
ENDMDL
