MODEL 1
REMARK VINA RESULT:     -11.5      0.000      0.000
REMARK  Name = 4708
REMARK  3 active torsions:
REMARK  status: ('A' for Active; 'I' for Inactive)
REMARK    1  A    between atoms: N_1  and  C_14
REMARK    2  A    between atoms: C_8  and  N_21
REMARK    3  A    between atoms: C_22  and  C_24
REMARK                            x       y       z     vdW  Elec       q    Type
REMARK                         _______ _______ _______ _____ _____    ______ ____
ROOT
ATOM      1  N   UNL     1      32.852 -22.268 -17.684  0.00  0.00    -0.301 N 
ATOM      2  N   UNL     1      33.174 -24.198 -14.037  0.00  0.00    -0.248 NA
ATOM      3  N   UNL     1      34.143 -23.451 -16.114  0.00  0.00    -0.233 NA
ATOM      4  C   UNL     1      31.824 -22.994 -15.611  0.00  0.00    +0.117 C 
ATOM      5  C   UNL     1      31.992 -23.660 -14.387  0.00  0.00    +0.067 C 
ATOM      6  C   UNL     1      32.946 -22.924 -16.432  0.00  0.00    +0.115 C 
ATOM      7  C   UNL     1      30.583 -22.436 -15.967  0.00  0.00    +0.001 C 
ATOM      8  C   UNL     1      29.500 -22.540 -15.101  0.00  0.00    +0.047 C 
ATOM      9  C   UNL     1      30.891 -23.750 -13.539  0.00  0.00    +0.016 C 
ATOM     10  C   UNL     1      29.654 -23.198 -13.885  0.00  0.00    +0.016 C 
ATOM     11  C   UNL     1      34.186 -24.063 -14.918  0.00  0.00    +0.251 C 
ATOM     12  H   UNL     1      31.957 -22.312 -18.090  0.00  0.00    +0.153 HD
ENDROOT
BRANCH   1  14
ATOM     13 BR   UNL     1      33.738 -19.101 -21.816  0.00  0.00    -0.049 Br
ATOM     14  C   UNL     1      33.791 -21.566 -18.458  0.00  0.00    +0.050 C 
ATOM     15  C   UNL     1      33.374 -20.814 -19.561  0.00  0.00    +0.021 C 
ATOM     16  C   UNL     1      35.149 -21.613 -18.129  0.00  0.00    +0.015 C 
ATOM     17  C   UNL     1      34.307 -20.115 -20.326  0.00  0.00    +0.036 C 
ATOM     18  C   UNL     1      36.082 -20.915 -18.896  0.00  0.00    +0.002 C 
ATOM     19  C   UNL     1      35.661 -20.166 -19.995  0.00  0.00    +0.007 C 
ENDBRANCH   1  14
BRANCH   8  21
ATOM     20  O   UNL     1      27.442 -23.469 -17.081  0.00  0.00    -0.270 OA
ATOM     21  N   UNL     1      28.267 -21.989 -15.447  0.00  0.00    -0.281 N 
ATOM     22  C   UNL     1      27.339 -22.467 -16.384  0.00  0.00    +0.250 C 
ATOM     23  H   UNL     1      28.015 -21.163 -14.975  0.00  0.00    +0.155 HD
BRANCH  22  24
ATOM     24  C   UNL     1      26.135 -21.590 -16.463  0.00  0.00    +0.058 C 
ATOM     25  C   UNL     1      25.725 -21.102 -17.638  0.00  0.00    +0.005 C 
ENDBRANCH  22  24
ENDBRANCH   8  21
TORSDOF 3
ENDMDL
MODEL 2
REMARK VINA RESULT:     -11.4      2.731      3.858
REMARK  Name = 4708
REMARK  3 active torsions:
REMARK  status: ('A' for Active; 'I' for Inactive)
REMARK    1  A    between atoms: N_1  and  C_14
REMARK    2  A    between atoms: C_8  and  N_21
REMARK    3  A    between atoms: C_22  and  C_24
REMARK                            x       y       z     vdW  Elec       q    Type
REMARK                         _______ _______ _______ _____ _____    ______ ____
ROOT
ATOM      1  N   UNL     1      34.294 -22.134 -17.803  0.00  0.00    -0.301 N 
ATOM      2  N   UNL     1      37.158 -22.161 -14.815  0.00  0.00    -0.248 NA
ATOM      3  N   UNL     1      36.455 -21.591 -17.048  0.00  0.00    -0.233 NA
ATOM      4  C   UNL     1      34.946 -22.732 -15.544  0.00  0.00    +0.117 C 
ATOM      5  C   UNL     1      35.956 -22.712 -14.569  0.00  0.00    +0.067 C 
ATOM      6  C   UNL     1      35.263 -22.151 -16.769  0.00  0.00    +0.115 C 
ATOM      7  C   UNL     1      33.693 -23.311 -15.277  0.00  0.00    +0.001 C 
ATOM      8  C   UNL     1      33.440 -23.875 -14.031  0.00  0.00    +0.047 C 
ATOM      9  C   UNL     1      35.675 -23.284 -13.331  0.00  0.00    +0.016 C 
ATOM     10  C   UNL     1      34.432 -23.862 -13.057  0.00  0.00    +0.016 C 
ATOM     11  C   UNL     1      37.342 -21.630 -16.040  0.00  0.00    +0.251 C 
ATOM     12  H   UNL     1      33.669 -22.894 -17.774  0.00  0.00    +0.153 HD
ENDROOT
BRANCH   1  14
ATOM     13 BR   UNL     1      36.314 -18.769 -21.336  0.00  0.00    -0.049 Br
ATOM     14  C   UNL     1      34.053 -21.242 -18.860  0.00  0.00    +0.050 C 
ATOM     15  C   UNL     1      35.115 -20.565 -19.468  0.00  0.00    +0.021 C 
ATOM     16  C   UNL     1      32.748 -21.024 -19.312  0.00  0.00    +0.015 C 
ATOM     17  C   UNL     1      34.874 -19.681 -20.519  0.00  0.00    +0.036 C 
ATOM     18  C   UNL     1      32.507 -20.138 -20.362  0.00  0.00    +0.002 C 
ATOM     19  C   UNL     1      33.570 -19.467 -20.966  0.00  0.00    +0.007 C 
ENDBRANCH   1  14
BRANCH   8  21
ATOM     20  O   UNL     1      30.759 -22.600 -13.575  0.00  0.00    -0.270 OA
ATOM     21  N   UNL     1      32.200 -24.452 -13.759  0.00  0.00    -0.281 N 
ATOM     22  C   UNL     1      30.972 -23.806 -13.554  0.00  0.00    +0.250 C 
ATOM     23  H   UNL     1      32.184 -25.435 -13.705  0.00  0.00    +0.155 HD
BRANCH  22  24
ATOM     24  C   UNL     1      29.874 -24.781 -13.290  0.00  0.00    +0.058 C 
ATOM     25  C   UNL     1      29.013 -25.115 -14.256  0.00  0.00    +0.005 C 
ENDBRANCH  22  24
ENDBRANCH   8  21
TORSDOF 3
ENDMDL
MODEL 3
REMARK VINA RESULT:     -11.2      7.469     10.532
REMARK  Name = 4708
REMARK  3 active torsions:
REMARK  status: ('A' for Active; 'I' for Inactive)
REMARK    1  A    between atoms: N_1  and  C_14
REMARK    2  A    between atoms: C_8  and  N_21
REMARK    3  A    between atoms: C_22  and  C_24
REMARK                            x       y       z     vdW  Elec       q    Type
REMARK                         _______ _______ _______ _____ _____    ______ ____
ROOT
ATOM      1  N   UNL     1      34.717 -16.439 -21.630  0.00  0.00    -0.301 N 
ATOM      2  N   UNL     1      33.358 -15.102 -25.304  0.00  0.00    -0.248 NA
ATOM      3  N   UNL     1      34.469 -16.756 -23.948  0.00  0.00    -0.233 NA
ATOM      4  C   UNL     1      33.589 -14.741 -22.945  0.00  0.00    +0.117 C 
ATOM      5  C   UNL     1      33.150 -14.339 -24.217  0.00  0.00    +0.067 C 
ATOM      6  C   UNL     1      34.245 -15.967 -22.880  0.00  0.00    +0.115 C 
ATOM      7  C   UNL     1      33.367 -13.935 -21.814  0.00  0.00    +0.001 C 
ATOM      8  C   UNL     1      32.703 -12.720 -21.946  0.00  0.00    +0.047 C 
ATOM      9  C   UNL     1      32.489 -13.117 -24.320  0.00  0.00    +0.016 C 
ATOM     10  C   UNL     1      32.264 -12.310 -23.201  0.00  0.00    +0.016 C 
ATOM     11  C   UNL     1      34.005 -16.269 -25.111  0.00  0.00    +0.251 C 
ATOM     12  H   UNL     1      34.966 -15.723 -21.004  0.00  0.00    +0.153 HD
ENDROOT
BRANCH   1  14
ATOM     13 BR   UNL     1      32.469 -20.845 -19.779  0.00  0.00    -0.049 Br
ATOM     14  C   UNL     1      34.896 -17.732 -21.113  0.00  0.00    +0.050 C 
ATOM     15  C   UNL     1      33.790 -18.512 -20.763  0.00  0.00    +0.021 C 
ATOM     16  C   UNL     1      36.184 -18.250 -20.945  0.00  0.00    +0.015 C 
ATOM     17  C   UNL     1      33.969 -19.797 -20.251  0.00  0.00    +0.036 C 
ATOM     18  C   UNL     1      36.364 -19.534 -20.432  0.00  0.00    +0.002 C 
ATOM     19  C   UNL     1      35.256 -20.308 -20.085  0.00  0.00    +0.007 C 
ENDBRANCH   1  14
BRANCH   8  21
ATOM     20  O   UNL     1      30.471 -10.803 -21.344  0.00  0.00    -0.270 OA
ATOM     21  N   UNL     1      32.480 -11.916 -20.829  0.00  0.00    -0.281 N 
ATOM     22  C   UNL     1      31.415 -11.034 -20.597  0.00  0.00    +0.250 C 
ATOM     23  H   UNL     1      33.154 -11.975 -20.114  0.00  0.00    +0.155 HD
BRANCH  22  24
ATOM     24  C   UNL     1      31.539 -10.355 -19.275  0.00  0.00    +0.058 C 
ATOM     25  C   UNL     1      31.160  -9.082 -19.126  0.00  0.00    +0.005 C 
ENDBRANCH  22  24
ENDBRANCH   8  21
TORSDOF 3
ENDMDL
MODEL 4
REMARK VINA RESULT:     -11.1      1.898      2.890
REMARK  Name = 4708
REMARK  3 active torsions:
REMARK  status: ('A' for Active; 'I' for Inactive)
REMARK    1  A    between atoms: N_1  and  C_14
REMARK    2  A    between atoms: C_8  and  N_21
REMARK    3  A    between atoms: C_22  and  C_24
REMARK                            x       y       z     vdW  Elec       q    Type
REMARK                         _______ _______ _______ _____ _____    ______ ____
ROOT
ATOM      1  N   UNL     1      34.269 -21.009 -19.589  0.00  0.00    -0.301 N 
ATOM      2  N   UNL     1      35.725 -22.458 -15.997  0.00  0.00    -0.248 NA
ATOM      3  N   UNL     1      36.083 -21.475 -18.167  0.00  0.00    -0.233 NA
ATOM      4  C   UNL     1      33.847 -21.998 -17.415  0.00  0.00    +0.117 C 
ATOM      5  C   UNL     1      34.398 -22.477 -16.216  0.00  0.00    +0.067 C 
ATOM      6  C   UNL     1      34.750 -21.508 -18.354  0.00  0.00    +0.115 C 
ATOM      7  C   UNL     1      32.458 -22.023 -17.634  0.00  0.00    +0.001 C 
ATOM      8  C   UNL     1      31.609 -22.526 -16.655  0.00  0.00    +0.047 C 
ATOM      9  C   UNL     1      33.524 -22.975 -15.252  0.00  0.00    +0.016 C 
ATOM     10  C   UNL     1      32.143 -23.003 -15.462  0.00  0.00    +0.016 C 
ATOM     11  C   UNL     1      36.495 -21.958 -16.983  0.00  0.00    +0.251 C 
ATOM     12  H   UNL     1      33.438 -21.439 -19.895  0.00  0.00    +0.153 HD
ENDROOT
BRANCH   1  14
ATOM     13 BR   UNL     1      33.490 -18.204 -23.995  0.00  0.00    -0.049 Br
ATOM     14  C   UNL     1      34.747 -20.017 -20.461  0.00  0.00    +0.050 C 
ATOM     15  C   UNL     1      34.012 -19.663 -21.597  0.00  0.00    +0.021 C 
ATOM     16  C   UNL     1      35.961 -19.377 -20.199  0.00  0.00    +0.015 C 
ATOM     17  C   UNL     1      34.487 -18.677 -22.461  0.00  0.00    +0.036 C 
ATOM     18  C   UNL     1      36.437 -18.391 -21.064  0.00  0.00    +0.002 C 
ATOM     19  C   UNL     1      35.700 -18.041 -22.195  0.00  0.00    +0.007 C 
ENDBRANCH   1  14
BRANCH   8  21
ATOM     20  O   UNL     1      29.337 -22.277 -14.705  0.00  0.00    -0.270 OA
ATOM     21  N   UNL     1      30.231 -22.553 -16.865  0.00  0.00    -0.281 N 
ATOM     22  C   UNL     1      29.208 -22.431 -15.914  0.00  0.00    +0.250 C 
ATOM     23  H   UNL     1      29.940 -22.672 -17.798  0.00  0.00    +0.155 HD
BRANCH  22  24
ATOM     24  C   UNL     1      27.858 -22.512 -16.543  0.00  0.00    +0.058 C 
ATOM     25  C   UNL     1      26.786 -22.010 -15.922  0.00  0.00    +0.005 C 
ENDBRANCH  22  24
ENDBRANCH   8  21
TORSDOF 3
ENDMDL
MODEL 5
REMARK VINA RESULT:     -10.9      3.165      6.790
REMARK  Name = 4708
REMARK  3 active torsions:
REMARK  status: ('A' for Active; 'I' for Inactive)
REMARK    1  A    between atoms: N_1  and  C_14
REMARK    2  A    between atoms: C_8  and  N_21
REMARK    3  A    between atoms: C_22  and  C_24
REMARK                            x       y       z     vdW  Elec       q    Type
REMARK                         _______ _______ _______ _____ _____    ______ ____
ROOT
ATOM      1  N   UNL     1      32.472 -22.739 -14.797  0.00  0.00    -0.301 N 
ATOM      2  N   UNL     1      36.089 -23.903 -13.156  0.00  0.00    -0.248 NA
ATOM      3  N   UNL     1      33.680 -23.838 -13.104  0.00  0.00    -0.233 NA
ATOM      4  C   UNL     1      34.896 -22.773 -14.901  0.00  0.00    +0.117 C 
ATOM      5  C   UNL     1      36.091 -23.195 -14.299  0.00  0.00    +0.067 C 
ATOM      6  C   UNL     1      33.719 -23.130 -14.249  0.00  0.00    +0.115 C 
ATOM      7  C   UNL     1      34.909 -22.032 -16.096  0.00  0.00    +0.001 C 
ATOM      8  C   UNL     1      36.120 -21.708 -16.699  0.00  0.00    +0.047 C 
ATOM      9  C   UNL     1      37.289 -22.856 -14.923  0.00  0.00    +0.016 C 
ATOM     10  C   UNL     1      37.312 -22.120 -16.111  0.00  0.00    +0.016 C 
ATOM     11  C   UNL     1      34.884 -24.187 -12.621  0.00  0.00    +0.251 C 
ATOM     12  H   UNL     1      32.509 -21.897 -15.304  0.00  0.00    +0.153 HD
ENDROOT
BRANCH   1  14
ATOM     13 BR   UNL     1      27.484 -22.652 -16.528  0.00  0.00    -0.049 Br
ATOM     14  C   UNL     1      31.196 -23.322 -14.758  0.00  0.00    +0.050 C 
ATOM     15  C   UNL     1      30.154 -22.792 -15.526  0.00  0.00    +0.021 C 
ATOM     16  C   UNL     1      30.957 -24.437 -13.949  0.00  0.00    +0.015 C 
ATOM     17  C   UNL     1      28.887 -23.373 -15.487  0.00  0.00    +0.036 C 
ATOM     18  C   UNL     1      29.689 -25.017 -13.909  0.00  0.00    +0.002 C 
ATOM     19  C   UNL     1      28.654 -24.485 -14.678  0.00  0.00    +0.007 C 
ENDBRANCH   1  14
BRANCH   8  21
ATOM     20  O   UNL     1      34.620 -22.116 -19.269  0.00  0.00    -0.270 OA
ATOM     21  N   UNL     1      36.142 -20.973 -17.884  0.00  0.00    -0.281 N 
ATOM     22  C   UNL     1      35.417 -21.208 -19.060  0.00  0.00    +0.250 C 
ATOM     23  H   UNL     1      36.739 -20.191 -17.895  0.00  0.00    +0.155 HD
BRANCH  22  24
ATOM     24  C   UNL     1      35.720 -20.190 -20.108  0.00  0.00    +0.058 C 
ATOM     25  C   UNL     1      34.732 -19.563 -20.753  0.00  0.00    +0.005 C 
ENDBRANCH  22  24
ENDBRANCH   8  21
TORSDOF 3
ENDMDL
MODEL 6
REMARK VINA RESULT:     -10.1      3.439      6.015
REMARK  Name = 4708
REMARK  3 active torsions:
REMARK  status: ('A' for Active; 'I' for Inactive)
REMARK    1  A    between atoms: N_1  and  C_14
REMARK    2  A    between atoms: C_8  and  N_21
REMARK    3  A    between atoms: C_22  and  C_24
REMARK                            x       y       z     vdW  Elec       q    Type
REMARK                         _______ _______ _______ _____ _____    ______ ____
ROOT
ATOM      1  N   UNL     1      33.921 -23.998 -14.209  0.00  0.00    -0.301 N 
ATOM      2  N   UNL     1      29.846 -24.147 -13.498  0.00  0.00    -0.248 NA
ATOM      3  N   UNL     1      32.111 -24.670 -12.864  0.00  0.00    -0.233 NA
ATOM      4  C   UNL     1      31.662 -23.443 -14.897  0.00  0.00    +0.117 C 
ATOM      5  C   UNL     1      30.291 -23.525 -14.604  0.00  0.00    +0.067 C 
ATOM      6  C   UNL     1      32.523 -24.039 -13.980  0.00  0.00    +0.115 C 
ATOM      7  C   UNL     1      32.117 -22.791 -16.057  0.00  0.00    +0.001 C 
ATOM      8  C   UNL     1      31.203 -22.214 -16.933  0.00  0.00    +0.047 C 
ATOM      9  C   UNL     1      29.399 -22.940 -15.499  0.00  0.00    +0.016 C 
ATOM     10  C   UNL     1      29.843 -22.289 -16.654  0.00  0.00    +0.016 C 
ATOM     11  C   UNL     1      30.779 -24.685 -12.688  0.00  0.00    +0.251 C 
ATOM     12  H   UNL     1      34.167 -23.976 -15.161  0.00  0.00    +0.153 HD
ENDROOT
BRANCH   1  14
ATOM     13 BR   UNL     1      39.036 -25.089 -13.482  0.00  0.00    -0.049 Br
ATOM     14  C   UNL     1      35.022 -23.981 -13.338  0.00  0.00    +0.050 C 
ATOM     15  C   UNL     1      36.265 -24.459 -13.764  0.00  0.00    +0.021 C 
ATOM     16  C   UNL     1      34.884 -23.484 -12.039  0.00  0.00    +0.015 C 
ATOM     17  C   UNL     1      37.359 -24.440 -12.900  0.00  0.00    +0.036 C 
ATOM     18  C   UNL     1      35.978 -23.466 -11.173  0.00  0.00    +0.002 C 
ATOM     19  C   UNL     1      37.215 -23.944 -11.604  0.00  0.00    +0.007 C 
ENDBRANCH   1  14
BRANCH   8  21
ATOM     20  O   UNL     1      33.871 -22.303 -18.311  0.00  0.00    -0.270 OA
ATOM     21  N   UNL     1      31.647 -21.566 -18.085  0.00  0.00    -0.281 N 
ATOM     22  C   UNL     1      32.910 -21.644 -18.689  0.00  0.00    +0.250 C 
ATOM     23  H   UNL     1      30.992 -20.983 -18.531  0.00  0.00    +0.155 HD
BRANCH  22  24
ATOM     24  C   UNL     1      32.988 -20.797 -19.914  0.00  0.00    +0.058 C 
ATOM     25  C   UNL     1      34.093 -20.096 -20.188  0.00  0.00    +0.005 C 
ENDBRANCH  22  24
ENDBRANCH   8  21
TORSDOF 3
ENDMDL
MODEL 7
REMARK VINA RESULT:     -10.0     12.252     14.862
REMARK  Name = 4708
REMARK  3 active torsions:
REMARK  status: ('A' for Active; 'I' for Inactive)
REMARK    1  A    between atoms: N_1  and  C_14
REMARK    2  A    between atoms: C_8  and  N_21
REMARK    3  A    between atoms: C_22  and  C_24
REMARK                            x       y       z     vdW  Elec       q    Type
REMARK                         _______ _______ _______ _____ _____    ______ ____
ROOT
ATOM      1  N   UNL     1      31.911 -11.280 -22.103  0.00  0.00    -0.301 N 
ATOM      2  N   UNL     1      31.252  -8.403 -19.201  0.00  0.00    -0.248 NA
ATOM      3  N   UNL     1      31.610 -10.698 -19.844  0.00  0.00    -0.233 NA
ATOM      4  C   UNL     1      31.555  -8.954 -21.515  0.00  0.00    +0.117 C 
ATOM      5  C   UNL     1      31.333  -8.022 -20.488  0.00  0.00    +0.067 C 
ATOM      6  C   UNL     1      31.686 -10.282 -21.122  0.00  0.00    +0.115 C 
ATOM      7  C   UNL     1      31.637  -8.545 -22.858  0.00  0.00    +0.001 C 
ATOM      8  C   UNL     1      31.498  -7.200 -23.185  0.00  0.00    +0.047 C 
ATOM      9  C   UNL     1      31.197  -6.683 -20.844  0.00  0.00    +0.016 C 
ATOM     10  C   UNL     1      31.278  -6.268 -22.177  0.00  0.00    +0.016 C 
ATOM     11  C   UNL     1      31.396  -9.719 -18.948  0.00  0.00    +0.251 C 
ATOM     12  H   UNL     1      31.517 -11.071 -22.980  0.00  0.00    +0.153 HD
ENDROOT
BRANCH   1  14
ATOM     13 BR   UNL     1      33.651 -15.487 -24.778  0.00  0.00    -0.049 Br
ATOM     14  C   UNL     1      32.589 -12.509 -22.065  0.00  0.00    +0.050 C 
ATOM     15  C   UNL     1      32.755 -13.259 -23.234  0.00  0.00    +0.021 C 
ATOM     16  C   UNL     1      33.104 -12.991 -20.858  0.00  0.00    +0.015 C 
ATOM     17  C   UNL     1      33.431 -14.478 -23.195  0.00  0.00    +0.036 C 
ATOM     18  C   UNL     1      33.779 -14.211 -20.820  0.00  0.00    +0.002 C 
ATOM     19  C   UNL     1      33.942 -14.955 -21.988  0.00  0.00    +0.007 C 
ENDBRANCH   1  14
BRANCH   8  21
ATOM     20  O   UNL     1      33.652  -5.679 -24.624  0.00  0.00    -0.270 OA
ATOM     21  N   UNL     1      31.578  -6.787 -24.515  0.00  0.00    -0.281 N 
ATOM     22  C   UNL     1      32.613  -6.077 -25.139  0.00  0.00    +0.250 C 
ATOM     23  H   UNL     1      30.814  -7.026 -25.087  0.00  0.00    +0.155 HD
BRANCH  22  24
ATOM     24  C   UNL     1      32.320  -5.828 -26.580  0.00  0.00    +0.058 C 
ATOM     25  C   UNL     1      33.293  -5.462 -27.419  0.00  0.00    +0.005 C 
ENDBRANCH  22  24
ENDBRANCH   8  21
TORSDOF 3
ENDMDL
MODEL 8
REMARK VINA RESULT:      -9.9      3.585      5.663
REMARK  Name = 4708
REMARK  3 active torsions:
REMARK  status: ('A' for Active; 'I' for Inactive)
REMARK    1  A    between atoms: N_1  and  C_14
REMARK    2  A    between atoms: C_8  and  N_21
REMARK    3  A    between atoms: C_22  and  C_24
REMARK                            x       y       z     vdW  Elec       q    Type
REMARK                         _______ _______ _______ _____ _____    ______ ____
ROOT
ATOM      1  N   UNL     1      35.455 -22.811 -14.280  0.00  0.00    -0.301 N 
ATOM      2  N   UNL     1      35.307 -21.529 -18.212  0.00  0.00    -0.248 NA
ATOM      3  N   UNL     1      36.540 -21.970 -16.190  0.00  0.00    -0.233 NA
ATOM      4  C   UNL     1      34.162 -22.387 -16.288  0.00  0.00    +0.117 C 
ATOM      5  C   UNL     1      34.172 -21.942 -17.620  0.00  0.00    +0.067 C 
ATOM      6  C   UNL     1      35.387 -22.376 -15.627  0.00  0.00    +0.115 C 
ATOM      7  C   UNL     1      32.970 -22.816 -15.678  0.00  0.00    +0.001 C 
ATOM      8  C   UNL     1      31.778 -22.804 -16.395  0.00  0.00    +0.047 C 
ATOM      9  C   UNL     1      32.965 -21.939 -18.314  0.00  0.00    +0.016 C 
ATOM     10  C   UNL     1      31.776 -22.364 -17.714  0.00  0.00    +0.016 C 
ATOM     11  C   UNL     1      36.429 -21.566 -17.466  0.00  0.00    +0.251 C 
ATOM     12  H   UNL     1      34.628 -22.656 -13.771  0.00  0.00    +0.153 HD
ENDROOT
BRANCH   1  14
ATOM     13 BR   UNL     1      39.979 -25.534 -14.317  0.00  0.00    -0.049 Br
ATOM     14  C   UNL     1      36.475 -23.422 -13.533  0.00  0.00    +0.050 C 
ATOM     15  C   UNL     1      37.535 -24.064 -14.180  0.00  0.00    +0.021 C 
ATOM     16  C   UNL     1      36.437 -23.392 -12.136  0.00  0.00    +0.015 C 
ATOM     17  C   UNL     1      38.549 -24.668 -13.436  0.00  0.00    +0.036 C 
ATOM     18  C   UNL     1      37.450 -23.998 -11.392  0.00  0.00    +0.002 C 
ATOM     19  C   UNL     1      38.506 -24.636 -12.042  0.00  0.00    +0.007 C 
ENDBRANCH   1  14
BRANCH   8  21
ATOM     20  O   UNL     1      28.941 -21.941 -16.871  0.00  0.00    -0.270 OA
ATOM     21  N   UNL     1      30.593 -23.227 -15.796  0.00  0.00    -0.281 N 
ATOM     22  C   UNL     1      29.287 -22.789 -16.058  0.00  0.00    +0.250 C 
ATOM     23  H   UNL     1      30.684 -23.921 -15.103  0.00  0.00    +0.155 HD
BRANCH  22  24
ATOM     24  C   UNL     1      28.288 -23.492 -15.202  0.00  0.00    +0.058 C 
ATOM     25  C   UNL     1      28.574 -24.676 -14.653  0.00  0.00    +0.005 C 
ENDBRANCH  22  24
ENDBRANCH   8  21
TORSDOF 3
ENDMDL
MODEL 9
REMARK VINA RESULT:      -9.8      4.023      7.059
REMARK  Name = 4708
REMARK  3 active torsions:
REMARK  status: ('A' for Active; 'I' for Inactive)
REMARK    1  A    between atoms: N_1  and  C_14
REMARK    2  A    between atoms: C_8  and  N_21
REMARK    3  A    between atoms: C_22  and  C_24
REMARK                            x       y       z     vdW  Elec       q    Type
REMARK                         _______ _______ _______ _____ _____    ______ ____
ROOT
ATOM      1  N   UNL     1      35.375 -23.189 -15.924  0.00  0.00    -0.301 N 
ATOM      2  N   UNL     1      31.333 -22.525 -16.519  0.00  0.00    -0.248 NA
ATOM      3  N   UNL     1      33.144 -23.444 -15.222  0.00  0.00    -0.233 NA
ATOM      4  C   UNL     1      33.593 -22.243 -17.270  0.00  0.00    +0.117 C 
ATOM      5  C   UNL     1      32.210 -22.048 -17.420  0.00  0.00    +0.067 C 
ATOM      6  C   UNL     1      33.995 -22.953 -16.142  0.00  0.00    +0.115 C 
ATOM      7  C   UNL     1      34.501 -21.740 -18.218  0.00  0.00    +0.001 C 
ATOM      8  C   UNL     1      34.034 -21.038 -19.324  0.00  0.00    +0.047 C 
ATOM      9  C   UNL     1      31.770 -21.342 -18.537  0.00  0.00    +0.016 C 
ATOM     10  C   UNL     1      32.667 -20.839 -19.484  0.00  0.00    +0.016 C 
ATOM     11  C   UNL     1      31.847 -23.196 -15.469  0.00  0.00    +0.251 C 
ATOM     12  H   UNL     1      35.902 -23.256 -16.752  0.00  0.00    +0.153 HD
ENDROOT
BRANCH   1  14
ATOM     13 BR   UNL     1      39.661 -25.268 -13.646  0.00  0.00    -0.049 Br
ATOM     14  C   UNL     1      36.135 -23.346 -14.754  0.00  0.00    +0.050 C 
ATOM     15  C   UNL     1      37.314 -24.098 -14.775  0.00  0.00    +0.021 C 
ATOM     16  C   UNL     1      35.718 -22.750 -13.560  0.00  0.00    +0.015 C 
ATOM     17  C   UNL     1      38.069 -24.251 -13.612  0.00  0.00    +0.036 C 
ATOM     18  C   UNL     1      36.473 -22.905 -12.397  0.00  0.00    +0.002 C 
ATOM     19  C   UNL     1      37.649 -23.655 -12.423  0.00  0.00    +0.007 C 
ENDBRANCH   1  14
BRANCH   8  21
ATOM     20  O   UNL     1      34.164 -18.343 -20.644  0.00  0.00    -0.270 OA
ATOM     21  N   UNL     1      34.929 -20.537 -20.269  0.00  0.00    -0.281 N 
ATOM     22  C   UNL     1      34.945 -19.263 -20.855  0.00  0.00    +0.250 C 
ATOM     23  H   UNL     1      35.640 -21.153 -20.559  0.00  0.00    +0.155 HD
BRANCH  22  24
ATOM     24  C   UNL     1      36.070 -19.116 -21.823  0.00  0.00    +0.058 C 
ATOM     25  C   UNL     1      36.879 -18.053 -21.771  0.00  0.00    +0.005 C 
ENDBRANCH  22  24
ENDBRANCH   8  21
TORSDOF 3
ENDMDL
