MODEL 1
REMARK VINA RESULT:     -11.6      0.000      0.000
REMARK  Name = 51040
REMARK  6 active torsions:
REMARK  status: ('A' for Active; 'I' for Inactive)
REMARK    1  A    between atoms: C_2  and  C_6
REMARK    2  A    between atoms: C_2  and  C_13
REMARK    3  A    between atoms: C_3  and  C_9
REMARK    4  A    between atoms: C_13  and  C_15
REMARK    5  A    between atoms: C_15  and  C_16
REMARK    6  A    between atoms: C_21  and  O_22
REMARK                            x       y       z     vdW  Elec       q    Type
REMARK                         _______ _______ _______ _____ _____    ______ ____
ROOT
ATOM      1  O   UNL     1      33.184 -23.849 -18.405  0.00  0.00    -0.291 OA
ATOM      2  C   UNL     1      33.167 -22.659 -18.031  0.00  0.00    +0.181 C 
ENDROOT
BRANCH   2   6
ATOM      3  C   UNL     1      34.596 -19.619 -20.550  0.00  0.00    -0.023 C 
ATOM      4  C   UNL     1      33.238 -19.792 -20.443  0.00  0.00    -0.004 C 
ATOM      5  C   UNL     1      35.509 -20.389 -19.875  0.00  0.00    -0.004 C 
ATOM      6  C   UNL     1      33.662 -21.606 -18.904  0.00  0.00    +0.035 C 
ATOM      7  C   UNL     1      32.763 -20.802 -19.606  0.00  0.00    +0.003 C 
ATOM      8  C   UNL     1      35.035 -21.399 -19.039  0.00  0.00    +0.003 C 
BRANCH   3   9
ATOM      9  C   UNL     1      35.118 -18.506 -21.474  0.00  0.00    +0.019 C 
ATOM     10  C   UNL     1      34.646 -17.090 -21.074  0.00  0.00    +0.004 C 
ATOM     11  C   UNL     1      34.632 -18.758 -22.917  0.00  0.00    +0.004 C 
ATOM     12  C   UNL     1      36.661 -18.495 -21.452  0.00  0.00    +0.004 C 
ENDBRANCH   3   9
ENDBRANCH   2   6
BRANCH   2  13
ATOM     13  C   UNL     1      32.653 -22.307 -16.627  0.00  0.00    +0.138 C 
BRANCH  13  15
ATOM     14  O   UNL     1      32.440 -23.712 -14.678  0.00  0.00    -0.291 OA
ATOM     15  C   UNL     1      33.181 -23.139 -15.471  0.00  0.00    +0.181 C 
BRANCH  15  16
ATOM     16  C   UNL     1      34.657 -23.237 -15.280  0.00  0.00    +0.035 C 
ATOM     17  C   UNL     1      35.193 -24.440 -14.879  0.00  0.00    +0.006 C 
ATOM     18  C   UNL     1      35.428 -22.121 -15.513  0.00  0.00    +0.006 C 
ATOM     19  C   UNL     1      36.573 -24.531 -14.699  0.00  0.00    +0.037 C 
ATOM     20  C   UNL     1      36.809 -22.212 -15.334  0.00  0.00    +0.037 C 
ATOM     21  C   UNL     1      37.382 -23.417 -14.927  0.00  0.00    +0.139 C 
BRANCH  21  22
ATOM     22  O   UNL     1      38.728 -23.507 -14.751  0.00  0.00    -0.471 OA
ATOM     23  C   UNL     1      39.286 -24.818 -14.670  0.00  0.00    +0.252 C 
ENDBRANCH  21  22
ENDBRANCH  15  16
ENDBRANCH  13  15
ENDBRANCH   2  13
TORSDOF 6
ENDMDL
MODEL 2
REMARK VINA RESULT:     -11.1      3.017      8.531
REMARK  Name = 51040
REMARK  6 active torsions:
REMARK  status: ('A' for Active; 'I' for Inactive)
REMARK    1  A    between atoms: C_2  and  C_6
REMARK    2  A    between atoms: C_2  and  C_13
REMARK    3  A    between atoms: C_3  and  C_9
REMARK    4  A    between atoms: C_13  and  C_15
REMARK    5  A    between atoms: C_15  and  C_16
REMARK    6  A    between atoms: C_21  and  O_22
REMARK                            x       y       z     vdW  Elec       q    Type
REMARK                         _______ _______ _______ _____ _____    ______ ____
ROOT
ATOM      1  O   UNL     1      32.974 -20.347 -19.983  0.00  0.00    -0.291 OA
ATOM      2  C   UNL     1      34.110 -20.744 -19.655  0.00  0.00    +0.181 C 
ENDROOT
BRANCH   2   6
ATOM      3  C   UNL     1      34.690 -22.758 -16.018  0.00  0.00    -0.023 C 
ATOM      4  C   UNL     1      35.743 -22.054 -16.547  0.00  0.00    -0.004 C 
ATOM      5  C   UNL     1      33.459 -22.838 -16.618  0.00  0.00    -0.004 C 
ATOM      6  C   UNL     1      34.312 -21.442 -18.395  0.00  0.00    +0.035 C 
ATOM      7  C   UNL     1      35.550 -21.384 -17.756  0.00  0.00    +0.003 C 
ATOM      8  C   UNL     1      33.266 -22.169 -17.826  0.00  0.00    +0.003 C 
BRANCH   3   9
ATOM      9  C   UNL     1      34.904 -23.497 -14.686  0.00  0.00    +0.019 C 
ATOM     10  C   UNL     1      35.359 -24.965 -14.852  0.00  0.00    +0.004 C 
ATOM     11  C   UNL     1      33.584 -23.517 -13.886  0.00  0.00    +0.004 C 
ATOM     12  C   UNL     1      35.989 -22.775 -13.860  0.00  0.00    +0.004 C 
ENDBRANCH   3   9
ENDBRANCH   2   6
BRANCH   2  13
ATOM     13  C   UNL     1      35.311 -20.465 -20.573  0.00  0.00    +0.138 C 
BRANCH  13  15
ATOM     14  O   UNL     1      36.464 -18.398 -20.105  0.00  0.00    -0.291 OA
ATOM     15  C   UNL     1      35.668 -19.008 -20.814  0.00  0.00    +0.181 C 
BRANCH  15  16
ATOM     16  C   UNL     1      35.002 -18.287 -21.937  0.00  0.00    +0.035 C 
ATOM     17  C   UNL     1      35.044 -16.911 -21.957  0.00  0.00    +0.006 C 
ATOM     18  C   UNL     1      34.370 -19.025 -22.913  0.00  0.00    +0.006 C 
ATOM     19  C   UNL     1      34.420 -16.237 -23.007  0.00  0.00    +0.037 C 
ATOM     20  C   UNL     1      33.747 -18.351 -23.964  0.00  0.00    +0.037 C 
ATOM     21  C   UNL     1      33.772 -16.957 -24.010  0.00  0.00    +0.139 C 
BRANCH  21  22
ATOM     22  O   UNL     1      33.163 -16.298 -25.034  0.00  0.00    -0.471 OA
ATOM     23  C   UNL     1      33.219 -14.872 -25.012  0.00  0.00    +0.252 C 
ENDBRANCH  21  22
ENDBRANCH  15  16
ENDBRANCH  13  15
ENDBRANCH   2  13
TORSDOF 6
ENDMDL
MODEL 3
REMARK VINA RESULT:     -11.0      4.587      9.555
REMARK  Name = 51040
REMARK  6 active torsions:
REMARK  status: ('A' for Active; 'I' for Inactive)
REMARK    1  A    between atoms: C_2  and  C_6
REMARK    2  A    between atoms: C_2  and  C_13
REMARK    3  A    between atoms: C_3  and  C_9
REMARK    4  A    between atoms: C_13  and  C_15
REMARK    5  A    between atoms: C_15  and  C_16
REMARK    6  A    between atoms: C_21  and  O_22
REMARK                            x       y       z     vdW  Elec       q    Type
REMARK                         _______ _______ _______ _____ _____    ______ ____
ROOT
ATOM      1  O   UNL     1      37.118 -18.245 -21.851  0.00  0.00    -0.291 OA
ATOM      2  C   UNL     1      35.889 -18.233 -21.640  0.00  0.00    +0.181 C 
ENDROOT
BRANCH   2   6
ATOM      3  C   UNL     1      34.129 -21.139 -19.174  0.00  0.00    -0.023 C 
ATOM      4  C   UNL     1      33.314 -20.407 -20.001  0.00  0.00    -0.004 C 
ATOM      5  C   UNL     1      35.489 -20.969 -19.112  0.00  0.00    -0.004 C 
ATOM      6  C   UNL     1      35.279 -19.240 -20.785  0.00  0.00    +0.035 C 
ATOM      7  C   UNL     1      33.899 -19.441 -20.821  0.00  0.00    +0.003 C 
ATOM      8  C   UNL     1      36.074 -20.004 -19.931  0.00  0.00    +0.003 C 
BRANCH   3   9
ATOM      9  C   UNL     1      33.483 -22.203 -18.270  0.00  0.00    +0.019 C 
ATOM     10  C   UNL     1      32.039 -21.862 -17.838  0.00  0.00    +0.004 C 
ATOM     11  C   UNL     1      34.318 -22.366 -16.982  0.00  0.00    +0.004 C 
ATOM     12  C   UNL     1      33.429 -23.554 -19.015  0.00  0.00    +0.004 C 
ENDBRANCH   3   9
ENDBRANCH   2   6
BRANCH   2  13
ATOM     13  C   UNL     1      35.009 -17.168 -22.313  0.00  0.00    +0.138 C 
BRANCH  13  15
ATOM     14  O   UNL     1      34.513 -16.095 -20.210  0.00  0.00    -0.291 OA
ATOM     15  C   UNL     1      34.515 -16.030 -21.436  0.00  0.00    +0.181 C 
BRANCH  15  16
ATOM     16  C   UNL     1      33.985 -14.801 -22.096  0.00  0.00    +0.035 C 
ATOM     17  C   UNL     1      33.732 -13.692 -21.320  0.00  0.00    +0.006 C 
ATOM     18  C   UNL     1      33.770 -14.822 -23.455  0.00  0.00    +0.006 C 
ATOM     19  C   UNL     1      33.236 -12.543 -21.937  0.00  0.00    +0.037 C 
ATOM     20  C   UNL     1      33.274 -13.673 -24.072  0.00  0.00    +0.037 C 
ATOM     21  C   UNL     1      33.007 -12.533 -23.313  0.00  0.00    +0.139 C 
BRANCH  21  22
ATOM     22  O   UNL     1      32.523 -11.412 -23.913  0.00  0.00    -0.471 OA
ATOM     23  C   UNL     1      32.253 -10.291 -23.072  0.00  0.00    +0.252 C 
ENDBRANCH  21  22
ENDBRANCH  15  16
ENDBRANCH  13  15
ENDBRANCH   2  13
TORSDOF 6
ENDMDL
MODEL 4
REMARK VINA RESULT:     -11.0      2.325      4.975
REMARK  Name = 51040
REMARK  6 active torsions:
REMARK  status: ('A' for Active; 'I' for Inactive)
REMARK    1  A    between atoms: C_2  and  C_6
REMARK    2  A    between atoms: C_2  and  C_13
REMARK    3  A    between atoms: C_3  and  C_9
REMARK    4  A    between atoms: C_13  and  C_15
REMARK    5  A    between atoms: C_15  and  C_16
REMARK    6  A    between atoms: C_21  and  O_22
REMARK                            x       y       z     vdW  Elec       q    Type
REMARK                         _______ _______ _______ _____ _____    ______ ____
ROOT
ATOM      1  O   UNL     1      33.181 -23.647 -18.317  0.00  0.00    -0.291 OA
ATOM      2  C   UNL     1      33.607 -22.552 -17.899  0.00  0.00    +0.181 C 
ENDROOT
BRANCH   2   6
ATOM      3  C   UNL     1      34.721 -19.535 -20.598  0.00  0.00    -0.023 C 
ATOM      4  C   UNL     1      35.710 -20.183 -19.901  0.00  0.00    -0.004 C 
ATOM      5  C   UNL     1      33.386 -19.823 -20.456  0.00  0.00    -0.004 C 
ATOM      6  C   UNL     1      33.994 -21.506 -18.834  0.00  0.00    +0.035 C 
ATOM      7  C   UNL     1      35.340 -21.186 -19.005  0.00  0.00    +0.003 C 
ATOM      8  C   UNL     1      33.017 -20.825 -19.560  0.00  0.00    +0.003 C 
BRANCH   3   9
ATOM      9  C   UNL     1      35.129 -18.429 -21.585  0.00  0.00    +0.019 C 
ATOM     10  C   UNL     1      34.672 -17.014 -21.163  0.00  0.00    +0.004 C 
ATOM     11  C   UNL     1      34.509 -18.713 -22.970  0.00  0.00    +0.004 C 
ATOM     12  C   UNL     1      36.666 -18.390 -21.716  0.00  0.00    +0.004 C 
ENDBRANCH   3   9
ENDBRANCH   2   6
BRANCH   2  13
ATOM     13  C   UNL     1      33.758 -22.317 -16.388  0.00  0.00    +0.138 C 
BRANCH  13  15
ATOM     14  O   UNL     1      33.616 -24.125 -14.797  0.00  0.00    -0.291 OA
ATOM     15  C   UNL     1      33.028 -23.280 -15.466  0.00  0.00    +0.181 C 
BRANCH  15  16
ATOM     16  C   UNL     1      31.540 -23.212 -15.399  0.00  0.00    +0.035 C 
ATOM     17  C   UNL     1      30.877 -22.366 -16.260  0.00  0.00    +0.006 C 
ATOM     18  C   UNL     1      30.884 -23.998 -14.479  0.00  0.00    +0.006 C 
ATOM     19  C   UNL     1      29.485 -22.302 -16.196  0.00  0.00    +0.037 C 
ATOM     20  C   UNL     1      29.491 -23.934 -14.416  0.00  0.00    +0.037 C 
ATOM     21  C   UNL     1      28.792 -23.086 -15.274  0.00  0.00    +0.139 C 
BRANCH  21  22
ATOM     22  O   UNL     1      27.434 -23.023 -15.213  0.00  0.00    -0.471 OA
ATOM     23  C   UNL     1      26.790 -22.069 -16.057  0.00  0.00    +0.252 C 
ENDBRANCH  21  22
ENDBRANCH  15  16
ENDBRANCH  13  15
ENDBRANCH   2  13
TORSDOF 6
ENDMDL
MODEL 5
REMARK VINA RESULT:     -10.7      7.513     11.947
REMARK  Name = 51040
REMARK  6 active torsions:
REMARK  status: ('A' for Active; 'I' for Inactive)
REMARK    1  A    between atoms: C_2  and  C_6
REMARK    2  A    between atoms: C_2  and  C_13
REMARK    3  A    between atoms: C_3  and  C_9
REMARK    4  A    between atoms: C_13  and  C_15
REMARK    5  A    between atoms: C_15  and  C_16
REMARK    6  A    between atoms: C_21  and  O_22
REMARK                            x       y       z     vdW  Elec       q    Type
REMARK                         _______ _______ _______ _____ _____    ______ ____
ROOT
ATOM      1  O   UNL     1      33.809 -12.068 -23.647  0.00  0.00    -0.291 OA
ATOM      2  C   UNL     1      33.115 -12.898 -23.027  0.00  0.00    +0.181 C 
ENDROOT
BRANCH   2   6
ATOM      3  C   UNL     1      34.538 -16.791 -22.361  0.00  0.00    -0.023 C 
ATOM      4  C   UNL     1      34.431 -15.944 -21.286  0.00  0.00    -0.004 C 
ATOM      5  C   UNL     1      34.204 -16.429 -23.642  0.00  0.00    -0.004 C 
ATOM      6  C   UNL     1      33.608 -14.246 -22.796  0.00  0.00    +0.035 C 
ATOM      7  C   UNL     1      33.957 -14.650 -21.507  0.00  0.00    +0.003 C 
ATOM      8  C   UNL     1      33.732 -15.136 -23.863  0.00  0.00    +0.003 C 
BRANCH   3   9
ATOM      9  C   UNL     1      35.061 -18.216 -22.117  0.00  0.00    +0.019 C 
ATOM     10  C   UNL     1      34.449 -18.902 -20.875  0.00  0.00    +0.004 C 
ATOM     11  C   UNL     1      36.590 -18.180 -21.911  0.00  0.00    +0.004 C 
ATOM     12  C   UNL     1      34.734 -19.105 -23.336  0.00  0.00    +0.004 C 
ENDBRANCH   3   9
ENDBRANCH   2   6
BRANCH   2  13
ATOM     13  C   UNL     1      31.714 -12.503 -22.532  0.00  0.00    +0.138 C 
BRANCH  13  15
ATOM     14  O   UNL     1      31.526 -12.947 -20.169  0.00  0.00    -0.291 OA
ATOM     15  C   UNL     1      31.585 -12.114 -21.070  0.00  0.00    +0.181 C 
BRANCH  15  16
ATOM     16  C   UNL     1      31.496 -10.667 -20.722  0.00  0.00    +0.035 C 
ATOM     17  C   UNL     1      31.475 -10.306 -19.393  0.00  0.00    +0.006 C 
ATOM     18  C   UNL     1      31.440  -9.745 -21.743  0.00  0.00    +0.006 C 
ATOM     19  C   UNL     1      31.391  -8.952 -19.069  0.00  0.00    +0.037 C 
ATOM     20  C   UNL     1      31.357  -8.390 -21.418  0.00  0.00    +0.037 C 
ATOM     21  C   UNL     1      31.333  -7.994 -20.080  0.00  0.00    +0.139 C 
BRANCH  21  22
ATOM     22  O   UNL     1      31.250  -6.674 -19.763  0.00  0.00    -0.471 OA
ATOM     23  C   UNL     1      31.734  -5.742 -20.730  0.00  0.00    +0.252 C 
ENDBRANCH  21  22
ENDBRANCH  15  16
ENDBRANCH  13  15
ENDBRANCH   2  13
TORSDOF 6
ENDMDL
MODEL 6
REMARK VINA RESULT:     -10.5      1.922      2.323
REMARK  Name = 51040
REMARK  6 active torsions:
REMARK  status: ('A' for Active; 'I' for Inactive)
REMARK    1  A    between atoms: C_2  and  C_6
REMARK    2  A    between atoms: C_2  and  C_13
REMARK    3  A    between atoms: C_3  and  C_9
REMARK    4  A    between atoms: C_13  and  C_15
REMARK    5  A    between atoms: C_15  and  C_16
REMARK    6  A    between atoms: C_21  and  O_22
REMARK                            x       y       z     vdW  Elec       q    Type
REMARK                         _______ _______ _______ _____ _____    ______ ____
ROOT
ATOM      1  O   UNL     1      33.120 -23.414 -18.661  0.00  0.00    -0.291 OA
ATOM      2  C   UNL     1      33.778 -22.441 -18.244  0.00  0.00    +0.181 C 
ENDROOT
BRANCH   2   6
ATOM      3  C   UNL     1      34.750 -19.269 -20.818  0.00  0.00    -0.023 C 
ATOM      4  C   UNL     1      33.426 -19.594 -20.654  0.00  0.00    -0.004 C 
ATOM      5  C   UNL     1      35.772 -19.930 -20.182  0.00  0.00    -0.004 C 
ATOM      6  C   UNL     1      34.115 -21.342 -19.136  0.00  0.00    +0.035 C 
ATOM      7  C   UNL     1      33.103 -20.647 -19.799  0.00  0.00    +0.003 C 
ATOM      8  C   UNL     1      35.449 -20.983 -19.328  0.00  0.00    +0.003 C 
BRANCH   3   9
ATOM      9  C   UNL     1      35.106 -18.108 -21.762  0.00  0.00    +0.019 C 
ATOM     10  C   UNL     1      34.698 -16.718 -21.223  0.00  0.00    +0.004 C 
ATOM     11  C   UNL     1      34.388 -18.302 -23.115  0.00  0.00    +0.004 C 
ATOM     12  C   UNL     1      36.631 -18.077 -21.995  0.00  0.00    +0.004 C 
ENDBRANCH   3   9
ENDBRANCH   2   6
BRANCH   2  13
ATOM     13  C   UNL     1      34.267 -22.417 -16.786  0.00  0.00    +0.138 C 
BRANCH  13  15
ATOM     14  O   UNL     1      32.147 -23.165 -15.912  0.00  0.00    -0.291 OA
ATOM     15  C   UNL     1      33.358 -23.048 -15.746  0.00  0.00    +0.181 C 
BRANCH  15  16
ATOM     16  C   UNL     1      33.959 -23.514 -14.463  0.00  0.00    +0.035 C 
ATOM     17  C   UNL     1      33.205 -23.436 -13.313  0.00  0.00    +0.006 C 
ATOM     18  C   UNL     1      35.245 -24.006 -14.477  0.00  0.00    +0.006 C 
ATOM     19  C   UNL     1      33.768 -23.871 -12.114  0.00  0.00    +0.037 C 
ATOM     20  C   UNL     1      35.807 -24.442 -13.276  0.00  0.00    +0.037 C 
ATOM     21  C   UNL     1      35.069 -24.374 -12.094  0.00  0.00    +0.139 C 
BRANCH  21  22
ATOM     22  O   UNL     1      35.617 -24.798 -10.924  0.00  0.00    -0.471 OA
ATOM     23  C   UNL     1      35.682 -23.851  -9.858  0.00  0.00    +0.252 C 
ENDBRANCH  21  22
ENDBRANCH  15  16
ENDBRANCH  13  15
ENDBRANCH   2  13
TORSDOF 6
ENDMDL
MODEL 7
REMARK VINA RESULT:     -10.4      3.054      8.455
REMARK  Name = 51040
REMARK  6 active torsions:
REMARK  status: ('A' for Active; 'I' for Inactive)
REMARK    1  A    between atoms: C_2  and  C_6
REMARK    2  A    between atoms: C_2  and  C_13
REMARK    3  A    between atoms: C_3  and  C_9
REMARK    4  A    between atoms: C_13  and  C_15
REMARK    5  A    between atoms: C_15  and  C_16
REMARK    6  A    between atoms: C_21  and  O_22
REMARK                            x       y       z     vdW  Elec       q    Type
REMARK                         _______ _______ _______ _____ _____    ______ ____
ROOT
ATOM      1  O   UNL     1      36.103 -21.649 -18.835  0.00  0.00    -0.291 OA
ATOM      2  C   UNL     1      34.891 -21.362 -18.878  0.00  0.00    +0.181 C 
ENDROOT
BRANCH   2   6
ATOM      3  C   UNL     1      32.250 -22.829 -15.962  0.00  0.00    -0.023 C 
ATOM      4  C   UNL     1      33.599 -22.928 -15.728  0.00  0.00    -0.004 C 
ATOM      5  C   UNL     1      31.721 -22.276 -17.101  0.00  0.00    -0.004 C 
ATOM      6  C   UNL     1      33.976 -21.871 -17.867  0.00  0.00    +0.035 C 
ATOM      7  C   UNL     1      34.477 -22.440 -16.697  0.00  0.00    +0.003 C 
ATOM      8  C   UNL     1      32.598 -21.789 -18.069  0.00  0.00    +0.003 C 
BRANCH   3   9
ATOM      9  C   UNL     1      31.284 -23.368 -14.894  0.00  0.00    +0.019 C 
ATOM     10  C   UNL     1      31.954 -24.298 -13.858  0.00  0.00    +0.004 C 
ATOM     11  C   UNL     1      30.159 -24.179 -15.574  0.00  0.00    +0.004 C 
ATOM     12  C   UNL     1      30.661 -22.191 -14.115  0.00  0.00    +0.004 C 
ENDBRANCH   3   9
ENDBRANCH   2   6
BRANCH   2  13
ATOM     13  C   UNL     1      34.353 -20.491 -20.025  0.00  0.00    +0.138 C 
BRANCH  13  15
ATOM     14  O   UNL     1      36.275 -19.039 -19.916  0.00  0.00    -0.291 OA
ATOM     15  C   UNL     1      35.234 -19.345 -20.490  0.00  0.00    +0.181 C 
BRANCH  15  16
ATOM     16  C   UNL     1      34.799 -18.546 -21.672  0.00  0.00    +0.035 C 
ATOM     17  C   UNL     1      34.188 -19.196 -22.721  0.00  0.00    +0.006 C 
ATOM     18  C   UNL     1      35.022 -17.188 -21.669  0.00  0.00    +0.006 C 
ATOM     19  C   UNL     1      33.782 -18.449 -23.826  0.00  0.00    +0.037 C 
ATOM     20  C   UNL     1      34.615 -16.440 -22.774  0.00  0.00    +0.037 C 
ATOM     21  C   UNL     1      33.995 -17.070 -23.853  0.00  0.00    +0.139 C 
BRANCH  21  22
ATOM     22  O   UNL     1      33.599 -16.342 -24.932  0.00  0.00    -0.471 OA
ATOM     23  C   UNL     1      33.379 -14.947 -24.728  0.00  0.00    +0.252 C 
ENDBRANCH  21  22
ENDBRANCH  15  16
ENDBRANCH  13  15
ENDBRANCH   2  13
TORSDOF 6
ENDMDL
MODEL 8
REMARK VINA RESULT:     -10.3      7.861     12.619
REMARK  Name = 51040
REMARK  6 active torsions:
REMARK  status: ('A' for Active; 'I' for Inactive)
REMARK    1  A    between atoms: C_2  and  C_6
REMARK    2  A    between atoms: C_2  and  C_13
REMARK    3  A    between atoms: C_3  and  C_9
REMARK    4  A    between atoms: C_13  and  C_15
REMARK    5  A    between atoms: C_15  and  C_16
REMARK    6  A    between atoms: C_21  and  O_22
REMARK                            x       y       z     vdW  Elec       q    Type
REMARK                         _______ _______ _______ _____ _____    ______ ____
ROOT
ATOM      1  O   UNL     1      32.540 -13.065 -25.133  0.00  0.00    -0.291 OA
ATOM      2  C   UNL     1      33.091 -13.178 -24.020  0.00  0.00    +0.181 C 
ENDROOT
BRANCH   2   6
ATOM      3  C   UNL     1      34.486 -16.913 -22.706  0.00  0.00    -0.023 C 
ATOM      4  C   UNL     1      34.042 -16.802 -24.000  0.00  0.00    -0.004 C 
ATOM      5  C   UNL     1      34.496 -15.865 -21.820  0.00  0.00    -0.004 C 
ATOM      6  C   UNL     1      33.574 -14.472 -23.565  0.00  0.00    +0.035 C 
ATOM      7  C   UNL     1      33.580 -15.561 -24.437  0.00  0.00    +0.003 C 
ATOM      8  C   UNL     1      34.033 -14.625 -22.257  0.00  0.00    +0.003 C 
BRANCH   3   9
ATOM      9  C   UNL     1      34.995 -18.282 -22.225  0.00  0.00    +0.019 C 
ATOM     10  C   UNL     1      34.326 -18.775 -20.922  0.00  0.00    +0.004 C 
ATOM     11  C   UNL     1      36.514 -18.206 -21.956  0.00  0.00    +0.004 C 
ATOM     12  C   UNL     1      34.724 -19.347 -23.308  0.00  0.00    +0.004 C 
ENDBRANCH   3   9
ENDBRANCH   2   6
BRANCH   2  13
ATOM     13  C   UNL     1      33.232 -11.948 -23.109  0.00  0.00    +0.138 C 
BRANCH  13  15
ATOM     14  O   UNL     1      31.288 -12.434 -21.767  0.00  0.00    -0.291 OA
ATOM     15  C   UNL     1      32.032 -11.586 -22.251  0.00  0.00    +0.181 C 
BRANCH  15  16
ATOM     16  C   UNL     1      31.732 -10.144 -22.017  0.00  0.00    +0.035 C 
ATOM     17  C   UNL     1      31.783  -9.276 -23.085  0.00  0.00    +0.006 C 
ATOM     18  C   UNL     1      31.415  -9.734 -20.742  0.00  0.00    +0.006 C 
ATOM     19  C   UNL     1      31.504  -7.928 -22.865  0.00  0.00    +0.037 C 
ATOM     20  C   UNL     1      31.134  -8.385 -20.522  0.00  0.00    +0.037 C 
ATOM     21  C   UNL     1      31.179  -7.481 -21.584  0.00  0.00    +0.139 C 
BRANCH  21  22
ATOM     22  O   UNL     1      30.906  -6.166 -21.371  0.00  0.00    -0.471 OA
ATOM     23  C   UNL     1      30.380  -5.425 -22.472  0.00  0.00    +0.252 C 
ENDBRANCH  21  22
ENDBRANCH  15  16
ENDBRANCH  13  15
ENDBRANCH   2  13
TORSDOF 6
ENDMDL
MODEL 9
REMARK VINA RESULT:     -10.2      1.965      4.002
REMARK  Name = 51040
REMARK  6 active torsions:
REMARK  status: ('A' for Active; 'I' for Inactive)
REMARK    1  A    between atoms: C_2  and  C_6
REMARK    2  A    between atoms: C_2  and  C_13
REMARK    3  A    between atoms: C_3  and  C_9
REMARK    4  A    between atoms: C_13  and  C_15
REMARK    5  A    between atoms: C_15  and  C_16
REMARK    6  A    between atoms: C_21  and  O_22
REMARK                            x       y       z     vdW  Elec       q    Type
REMARK                         _______ _______ _______ _____ _____    ______ ____
ROOT
ATOM      1  O   UNL     1      33.411 -23.374 -18.297  0.00  0.00    -0.291 OA
ATOM      2  C   UNL     1      34.033 -22.346 -17.965  0.00  0.00    +0.181 C 
ENDROOT
BRANCH   2   6
ATOM      3  C   UNL     1      34.826 -19.334 -20.780  0.00  0.00    -0.023 C 
ATOM      4  C   UNL     1      33.520 -19.701 -20.569  0.00  0.00    -0.004 C 
ATOM      5  C   UNL     1      35.885 -19.902 -20.117  0.00  0.00    -0.004 C 
ATOM      6  C   UNL     1      34.308 -21.302 -18.940  0.00  0.00    +0.035 C 
ATOM      7  C   UNL     1      33.257 -20.702 -19.633  0.00  0.00    +0.003 C 
ATOM      8  C   UNL     1      35.622 -20.902 -19.182  0.00  0.00    +0.003 C 
BRANCH   3   9
ATOM      9  C   UNL     1      35.116 -18.232 -21.812  0.00  0.00    +0.019 C 
ATOM     10  C   UNL     1      34.730 -16.813 -21.336  0.00  0.00    +0.004 C 
ATOM     11  C   UNL     1      34.321 -18.510 -23.106  0.00  0.00    +0.004 C 
ATOM     12  C   UNL     1      36.624 -18.209 -22.138  0.00  0.00    +0.004 C 
ENDBRANCH   3   9
ENDBRANCH   2   6
BRANCH   2  13
ATOM     13  C   UNL     1      34.543 -22.195 -16.523  0.00  0.00    +0.138 C 
BRANCH  13  15
ATOM     14  O   UNL     1      35.190 -24.167 -15.294  0.00  0.00    -0.291 OA
ATOM     15  C   UNL     1      34.307 -23.365 -15.583  0.00  0.00    +0.181 C 
BRANCH  15  16
ATOM     16  C   UNL     1      32.941 -23.560 -15.018  0.00  0.00    +0.035 C 
ATOM     17  C   UNL     1      32.768 -24.482 -14.010  0.00  0.00    +0.006 C 
ATOM     18  C   UNL     1      31.903 -22.809 -15.523  0.00  0.00    +0.006 C 
ATOM     19  C   UNL     1      31.490 -24.665 -13.482  0.00  0.00    +0.037 C 
ATOM     20  C   UNL     1      30.625 -22.991 -14.994  0.00  0.00    +0.037 C 
ATOM     21  C   UNL     1      30.418 -23.920 -13.973  0.00  0.00    +0.139 C 
BRANCH  21  22
ATOM     22  O   UNL     1      29.172 -24.099 -13.458  0.00  0.00    -0.471 OA
ATOM     23  C   UNL     1      28.404 -25.183 -13.979  0.00  0.00    +0.252 C 
ENDBRANCH  21  22
ENDBRANCH  15  16
ENDBRANCH  13  15
ENDBRANCH   2  13
TORSDOF 6
ENDMDL
