MODEL 1
REMARK VINA RESULT:     -12.5      0.000      0.000
REMARK  Name = 5288527
REMARK  4 active torsions:
REMARK  status: ('A' for Active; 'I' for Inactive)
REMARK    1  A    between atoms: N_1  and  C_18
REMARK    2  A    between atoms: C_4  and  C_11
REMARK    3  A    between atoms: C_19  and  S_24
REMARK    4  A    between atoms: S_24  and  N_27
REMARK                            x       y       z     vdW  Elec       q    Type
REMARK                         _______ _______ _______ _____ _____    ______ ____
ROOT
ATOM      1  N   UNL     1      34.365 -24.389 -12.681  0.00  0.00    -0.247 N 
ATOM      2  N   UNL     1      33.485 -23.428 -14.632  0.00  0.00    -0.336 NA
ATOM      3  N   UNL     1      32.085 -23.835 -12.714  0.00  0.00    -0.170 NA
ATOM      4  C   UNL     1      32.404 -22.927 -15.262  0.00  0.00    +0.161 C 
ATOM      5  C   UNL     1      33.257 -23.858 -13.377  0.00  0.00    +0.149 C 
ATOM      6  C   UNL     1      31.150 -22.847 -14.699  0.00  0.00    +0.056 C 
ATOM      7  C   UNL     1      31.048 -23.321 -13.407  0.00  0.00    +0.114 C 
ATOM      8  H   UNL     1      34.152 -24.690 -11.768  0.00  0.00    +0.165 HD
ENDROOT
BRANCH   4  11
ATOM      9  N   UNL     1      33.877 -22.085 -17.095  0.00  0.00    -0.246 N 
ATOM     10  N   UNL     1      32.423 -21.848 -18.779  0.00  0.00    -0.227 NA
ATOM     11  C   UNL     1      32.653 -22.468 -16.608  0.00  0.00    +0.107 C 
ATOM     12  C   UNL     1      33.684 -21.715 -18.424  0.00  0.00    +0.139 C 
ATOM     13  C   UNL     1      31.780 -22.314 -17.660  0.00  0.00    +0.118 C 
ATOM     14  C   UNL     1      35.112 -22.044 -16.454  0.00  0.00    +0.071 C 
ATOM     15  C   UNL     1      34.833 -21.275 -19.145  0.00  0.00    +0.035 C 
ATOM     16  C   UNL     1      36.189 -21.628 -17.141  0.00  0.00    +0.017 C 
ATOM     17  C   UNL     1      36.031 -21.232 -18.532  0.00  0.00    +0.004 C 
ENDBRANCH   4  11
BRANCH   1  18
ATOM     18  C   UNL     1      35.715 -24.571 -13.036  0.00  0.00    +0.058 C 
ATOM     19  C   UNL     1      38.392 -24.933 -13.743  0.00  0.00    +0.122 C 
ATOM     20  C   UNL     1      36.729 -24.064 -12.221  0.00  0.00    +0.017 C 
ATOM     21  C   UNL     1      36.044 -25.260 -14.206  0.00  0.00    +0.017 C 
ATOM     22  C   UNL     1      38.066 -24.244 -12.574  0.00  0.00    +0.021 C 
ATOM     23  C   UNL     1      37.381 -25.440 -14.559  0.00  0.00    +0.021 C 
BRANCH  19  24
ATOM     24  S   UNL     1      40.066 -25.158 -14.185  0.00  0.00    +0.057 S 
ATOM     25  O   UNL     1      40.742 -23.872 -14.093  0.00  0.00    -0.153 OA
ATOM     26  O   UNL     1      40.588 -26.304 -13.454  0.00  0.00    -0.153 OA
BRANCH  24  27
ATOM     27  N   UNL     1      39.913 -25.584 -15.833  0.00  0.00    -0.203 NA
ATOM     28  H   UNL     1      40.688 -25.184 -16.360  0.00  0.00    +0.144 HD
ATOM     29  H   UNL     1      39.031 -25.223 -16.197  0.00  0.00    +0.144 HD
ENDBRANCH  24  27
ENDBRANCH  19  24
ENDBRANCH   1  18
TORSDOF 4
ENDMDL
MODEL 2
REMARK VINA RESULT:     -11.9      4.918      6.965
REMARK  Name = 5288527
REMARK  4 active torsions:
REMARK  status: ('A' for Active; 'I' for Inactive)
REMARK    1  A    between atoms: N_1  and  C_18
REMARK    2  A    between atoms: C_4  and  C_11
REMARK    3  A    between atoms: C_19  and  S_24
REMARK    4  A    between atoms: S_24  and  N_27
REMARK                            x       y       z     vdW  Elec       q    Type
REMARK                         _______ _______ _______ _____ _____    ______ ____
ROOT
ATOM      1  N   UNL     1      32.134 -24.117 -12.820  0.00  0.00    -0.247 N 
ATOM      2  N   UNL     1      33.944 -23.279 -14.055  0.00  0.00    -0.336 NA
ATOM      3  N   UNL     1      34.290 -24.355 -11.927  0.00  0.00    -0.170 NA
ATOM      4  C   UNL     1      35.278 -23.097 -14.132  0.00  0.00    +0.161 C 
ATOM      5  C   UNL     1      33.525 -23.906 -12.940  0.00  0.00    +0.149 C 
ATOM      6  C   UNL     1      36.171 -23.507 -13.168  0.00  0.00    +0.056 C 
ATOM      7  C   UNL     1      35.614 -24.138 -12.074  0.00  0.00    +0.114 C 
ATOM      8  H   UNL     1      31.873 -24.579 -11.991  0.00  0.00    +0.165 HD
ENDROOT
BRANCH   4  11
ATOM      9  N   UNL     1      34.975 -22.266 -16.468  0.00  0.00    -0.246 N 
ATOM     10  N   UNL     1      36.947 -21.287 -16.865  0.00  0.00    -0.227 NA
ATOM     11  C   UNL     1      35.723 -22.423 -15.329  0.00  0.00    +0.107 C 
ATOM     12  C   UNL     1      35.766 -21.566 -17.376  0.00  0.00    +0.139 C 
ATOM     13  C   UNL     1      36.926 -21.814 -15.598  0.00  0.00    +0.118 C 
ATOM     14  C   UNL     1      33.678 -22.690 -16.742  0.00  0.00    +0.071 C 
ATOM     15  C   UNL     1      35.191 -21.282 -18.649  0.00  0.00    +0.035 C 
ATOM     16  C   UNL     1      33.144 -22.419 -17.944  0.00  0.00    +0.017 C 
ATOM     17  C   UNL     1      33.936 -21.691 -18.922  0.00  0.00    +0.004 C 
ENDBRANCH   4  11
BRANCH   1  18
ATOM     18  C   UNL     1      31.047 -23.797 -13.655  0.00  0.00    +0.058 C 
ATOM     19  C   UNL     1      28.890 -23.160 -15.311  0.00  0.00    +0.122 C 
ATOM     20  C   UNL     1      30.209 -24.806 -14.133  0.00  0.00    +0.017 C 
ATOM     21  C   UNL     1      30.803 -22.467 -14.007  0.00  0.00    +0.017 C 
ATOM     22  C   UNL     1      29.133 -24.488 -14.960  0.00  0.00    +0.021 C 
ATOM     23  C   UNL     1      29.726 -22.150 -14.834  0.00  0.00    +0.021 C 
BRANCH  19  24
ATOM     24  S   UNL     1      27.543 -22.761 -16.347  0.00  0.00    +0.057 S 
ATOM     25  O   UNL     1      27.875 -21.552 -17.087  0.00  0.00    -0.153 OA
ATOM     26  O   UNL     1      27.141 -23.961 -17.066  0.00  0.00    -0.153 OA
BRANCH  24  27
ATOM     27  N   UNL     1      26.342 -22.387 -15.190  0.00  0.00    -0.203 NA
ATOM     28  H   UNL     1      26.105 -21.398 -15.255  0.00  0.00    +0.144 HD
ATOM     29  H   UNL     1      26.695 -22.593 -14.255  0.00  0.00    +0.144 HD
ENDBRANCH  24  27
ENDBRANCH  19  24
ENDBRANCH   1  18
TORSDOF 4
ENDMDL
MODEL 3
REMARK VINA RESULT:     -11.8      4.214      7.130
REMARK  Name = 5288527
REMARK  4 active torsions:
REMARK  status: ('A' for Active; 'I' for Inactive)
REMARK    1  A    between atoms: N_1  and  C_18
REMARK    2  A    between atoms: C_4  and  C_11
REMARK    3  A    between atoms: C_19  and  S_24
REMARK    4  A    between atoms: S_24  and  N_27
REMARK                            x       y       z     vdW  Elec       q    Type
REMARK                         _______ _______ _______ _____ _____    ______ ____
ROOT
ATOM      1  N   UNL     1      32.021 -21.939 -17.987  0.00  0.00    -0.247 N 
ATOM      2  N   UNL     1      33.610 -22.560 -16.378  0.00  0.00    -0.336 NA
ATOM      3  N   UNL     1      31.312 -23.256 -16.180  0.00  0.00    -0.170 NA
ATOM      4  C   UNL     1      33.866 -23.221 -15.231  0.00  0.00    +0.161 C 
ATOM      5  C   UNL     1      32.330 -22.618 -16.789  0.00  0.00    +0.149 C 
ATOM      6  C   UNL     1      32.917 -23.912 -14.511  0.00  0.00    +0.056 C 
ATOM      7  C   UNL     1      31.642 -23.895 -15.038  0.00  0.00    +0.114 C 
ATOM      8  H   UNL     1      31.074 -22.008 -18.250  0.00  0.00    +0.165 HD
ENDROOT
BRANCH   4  11
ATOM      9  N   UNL     1      36.066 -24.238 -14.630  0.00  0.00    -0.246 N 
ATOM     10  N   UNL     1      37.272 -22.433 -14.092  0.00  0.00    -0.227 NA
ATOM     11  C   UNL     1      35.240 -23.155 -14.794  0.00  0.00    +0.107 C 
ATOM     12  C   UNL     1      37.296 -23.745 -14.201  0.00  0.00    +0.139 C 
ATOM     13  C   UNL     1      36.003 -22.062 -14.458  0.00  0.00    +0.118 C 
ATOM     14  C   UNL     1      35.805 -25.591 -14.832  0.00  0.00    +0.071 C 
ATOM     15  C   UNL     1      38.327 -24.700 -13.962  0.00  0.00    +0.035 C 
ATOM     16  C   UNL     1      36.782 -26.483 -14.604  0.00  0.00    +0.017 C 
ATOM     17  C   UNL     1      38.082 -26.011 -14.154  0.00  0.00    +0.004 C 
ENDBRANCH   4  11
BRANCH   1  18
ATOM     18  C   UNL     1      32.801 -21.182 -18.881  0.00  0.00    +0.058 C 
ATOM     19  C   UNL     1      34.347 -19.679 -20.656  0.00  0.00    +0.122 C 
ATOM     20  C   UNL     1      34.189 -21.328 -18.898  0.00  0.00    +0.017 C 
ATOM     21  C   UNL     1      32.188 -20.281 -19.756  0.00  0.00    +0.017 C 
ATOM     22  C   UNL     1      34.962 -20.578 -19.783  0.00  0.00    +0.021 C 
ATOM     23  C   UNL     1      32.960 -19.531 -20.642  0.00  0.00    +0.021 C 
BRANCH  19  24
ATOM     24  S   UNL     1      35.314 -18.739 -21.765  0.00  0.00    +0.057 S 
ATOM     25  O   UNL     1      36.714 -18.895 -21.399  0.00  0.00    -0.153 OA
ATOM     26  O   UNL     1      34.884 -19.038 -23.123  0.00  0.00    -0.153 OA
BRANCH  24  27
ATOM     27  N   UNL     1      34.814 -17.153 -21.369  0.00  0.00    -0.203 NA
ATOM     28  H   UNL     1      35.633 -16.554 -21.269  0.00  0.00    +0.144 HD
ATOM     29  H   UNL     1      34.294 -17.169 -20.491  0.00  0.00    +0.144 HD
ENDBRANCH  24  27
ENDBRANCH  19  24
ENDBRANCH   1  18
TORSDOF 4
ENDMDL
MODEL 4
REMARK VINA RESULT:     -11.0      9.059     12.286
REMARK  Name = 5288527
REMARK  4 active torsions:
REMARK  status: ('A' for Active; 'I' for Inactive)
REMARK    1  A    between atoms: N_1  and  C_18
REMARK    2  A    between atoms: C_4  and  C_11
REMARK    3  A    between atoms: C_19  and  S_24
REMARK    4  A    between atoms: S_24  and  N_27
REMARK                            x       y       z     vdW  Elec       q    Type
REMARK                         _______ _______ _______ _____ _____    ______ ____
ROOT
ATOM      1  N   UNL     1      33.984 -16.311 -24.610  0.00  0.00    -0.247 N 
ATOM      2  N   UNL     1      33.121 -14.473 -23.435  0.00  0.00    -0.336 NA
ATOM      3  N   UNL     1      33.329 -14.421 -25.835  0.00  0.00    -0.170 NA
ATOM      4  C   UNL     1      32.616 -13.225 -23.494  0.00  0.00    +0.161 C 
ATOM      5  C   UNL     1      33.452 -15.004 -24.627  0.00  0.00    +0.149 C 
ATOM      6  C   UNL     1      32.438 -12.517 -24.662  0.00  0.00    +0.056 C 
ATOM      7  C   UNL     1      32.817 -13.173 -25.816  0.00  0.00    +0.114 C 
ATOM      8  H   UNL     1      34.212 -16.659 -25.502  0.00  0.00    +0.165 HD
ENDROOT
BRANCH   4  11
ATOM      9  N   UNL     1      31.903 -11.352 -22.003  0.00  0.00    -0.246 N 
ATOM     10  N   UNL     1      31.823 -12.362 -20.008  0.00  0.00    -0.227 NA
ATOM     11  C   UNL     1      32.263 -12.659 -22.213  0.00  0.00    +0.107 C 
ATOM     12  C   UNL     1      31.644 -11.221 -20.640  0.00  0.00    +0.139 C 
ATOM     13  C   UNL     1      32.205 -13.255 -20.976  0.00  0.00    +0.118 C 
ATOM     14  C   UNL     1      31.794 -10.305 -22.913  0.00  0.00    +0.071 C 
ATOM     15  C   UNL     1      31.247  -9.931 -20.180  0.00  0.00    +0.035 C 
ATOM     16  C   UNL     1      31.420  -9.094 -22.472  0.00  0.00    +0.017 C 
ATOM     17  C   UNL     1      31.140  -8.913 -21.055  0.00  0.00    +0.004 C 
ENDBRANCH   4  11
BRANCH   1  18
ATOM     18  C   UNL     1      34.253 -17.216 -23.566  0.00  0.00    +0.058 C 
ATOM     19  C   UNL     1      34.786 -19.012 -21.495  0.00  0.00    +0.122 C 
ATOM     20  C   UNL     1      34.987 -16.803 -22.451  0.00  0.00    +0.017 C 
ATOM     21  C   UNL     1      33.786 -18.530 -23.641  0.00  0.00    +0.017 C 
ATOM     22  C   UNL     1      35.253 -17.700 -21.418  0.00  0.00    +0.021 C 
ATOM     23  C   UNL     1      34.053 -19.427 -22.607  0.00  0.00    +0.021 C 
BRANCH  19  24
ATOM     24  S   UNL     1      35.119 -20.136 -20.201  0.00  0.00    +0.057 S 
ATOM     25  O   UNL     1      35.368 -21.447 -20.785  0.00  0.00    -0.153 OA
ATOM     26  O   UNL     1      36.107 -19.540 -19.313  0.00  0.00    -0.153 OA
BRANCH  24  27
ATOM     27  N   UNL     1      33.610 -20.167 -19.399  0.00  0.00    -0.203 NA
ATOM     28  H   UNL     1      33.137 -21.047 -19.601  0.00  0.00    +0.144 HD
ATOM     29  H   UNL     1      33.036 -19.389 -19.725  0.00  0.00    +0.144 HD
ENDBRANCH  24  27
ENDBRANCH  19  24
ENDBRANCH   1  18
TORSDOF 4
ENDMDL
MODEL 5
REMARK VINA RESULT:     -10.5      1.712      2.745
REMARK  Name = 5288527
REMARK  4 active torsions:
REMARK  status: ('A' for Active; 'I' for Inactive)
REMARK    1  A    between atoms: N_1  and  C_18
REMARK    2  A    between atoms: C_4  and  C_11
REMARK    3  A    between atoms: C_19  and  S_24
REMARK    4  A    between atoms: S_24  and  N_27
REMARK                            x       y       z     vdW  Elec       q    Type
REMARK                         _______ _______ _______ _____ _____    ______ ____
ROOT
ATOM      1  N   UNL     1      34.134 -24.273 -14.704  0.00  0.00    -0.247 N 
ATOM      2  N   UNL     1      34.135 -22.850 -16.570  0.00  0.00    -0.336 NA
ATOM      3  N   UNL     1      32.070 -23.507 -15.517  0.00  0.00    -0.170 NA
ATOM      4  C   UNL     1      33.410 -22.128 -17.447  0.00  0.00    +0.161 C 
ATOM      5  C   UNL     1      33.411 -23.505 -15.643  0.00  0.00    +0.149 C 
ATOM      6  C   UNL     1      32.035 -22.045 -17.428  0.00  0.00    +0.056 C 
ATOM      7  C   UNL     1      31.411 -22.764 -16.429  0.00  0.00    +0.114 C 
ATOM      8  H   UNL     1      33.565 -24.734 -14.047  0.00  0.00    +0.165 HD
ENDROOT
BRANCH   4  11
ATOM      9  N   UNL     1      33.671 -20.725 -19.496  0.00  0.00    -0.246 N 
ATOM     10  N   UNL     1      35.896 -20.547 -19.648  0.00  0.00    -0.227 NA
ATOM     11  C   UNL     1      34.191 -21.427 -18.439  0.00  0.00    +0.107 C 
ATOM     12  C   UNL     1      34.752 -20.206 -20.205  0.00  0.00    +0.139 C 
ATOM     13  C   UNL     1      35.555 -21.302 -18.555  0.00  0.00    +0.118 C 
ATOM     14  C   UNL     1      32.343 -20.522 -19.859  0.00  0.00    +0.071 C 
ATOM     15  C   UNL     1      34.453 -19.429 -21.362  0.00  0.00    +0.035 C 
ATOM     16  C   UNL     1      32.070 -19.789 -20.950  0.00  0.00    +0.017 C 
ATOM     17  C   UNL     1      33.170 -19.229 -21.719  0.00  0.00    +0.004 C 
ENDBRANCH   4  11
BRANCH   1  18
ATOM     18  C   UNL     1      35.510 -24.507 -14.523  0.00  0.00    +0.058 C 
ATOM     19  C   UNL     1      38.240 -24.973 -14.164  0.00  0.00    +0.122 C 
ATOM     20  C   UNL     1      36.331 -23.500 -14.011  0.00  0.00    +0.017 C 
ATOM     21  C   UNL     1      36.059 -25.748 -14.855  0.00  0.00    +0.017 C 
ATOM     22  C   UNL     1      37.694 -23.732 -13.832  0.00  0.00    +0.021 C 
ATOM     23  C   UNL     1      37.422 -25.980 -14.676  0.00  0.00    +0.021 C 
BRANCH  19  24
ATOM     24  S   UNL     1      39.947 -25.264 -13.941  0.00  0.00    +0.057 S 
ATOM     25  O   UNL     1      40.605 -23.985 -13.713  0.00  0.00    -0.153 OA
ATOM     26  O   UNL     1      40.110 -26.343 -12.978  0.00  0.00    -0.153 OA
BRANCH  24  27
ATOM     27  N   UNL     1      40.385 -25.841 -15.489  0.00  0.00    -0.203 NA
ATOM     28  H   UNL     1      39.939 -26.743 -15.654  0.00  0.00    +0.144 HD
ATOM     29  H   UNL     1      41.398 -25.948 -15.538  0.00  0.00    +0.144 HD
ENDBRANCH  24  27
ENDBRANCH  19  24
ENDBRANCH   1  18
TORSDOF 4
ENDMDL
MODEL 6
REMARK VINA RESULT:     -10.3     14.484     17.576
REMARK  Name = 5288527
REMARK  4 active torsions:
REMARK  status: ('A' for Active; 'I' for Inactive)
REMARK    1  A    between atoms: N_1  and  C_18
REMARK    2  A    between atoms: C_4  and  C_11
REMARK    3  A    between atoms: C_19  and  S_24
REMARK    4  A    between atoms: S_24  and  N_27
REMARK                            x       y       z     vdW  Elec       q    Type
REMARK                         _______ _______ _______ _____ _____    ______ ____
ROOT
ATOM      1  N   UNL     1      31.619  -7.625 -22.203  0.00  0.00    -0.247 N 
ATOM      2  N   UNL     1      32.022  -9.906 -22.575  0.00  0.00    -0.336 NA
ATOM      3  N   UNL     1      31.017  -9.146 -20.521  0.00  0.00    -0.170 NA
ATOM      4  C   UNL     1      31.937 -11.165 -22.102  0.00  0.00    +0.161 C 
ATOM      5  C   UNL     1      31.550  -8.958 -21.744  0.00  0.00    +0.149 C 
ATOM      6  C   UNL     1      31.416 -11.494 -20.871  0.00  0.00    +0.056 C 
ATOM      7  C   UNL     1      30.966 -10.431 -20.114  0.00  0.00    +0.114 C 
ATOM      8  H   UNL     1      31.263  -6.966 -21.563  0.00  0.00    +0.165 HD
ENDROOT
BRANCH   4  11
ATOM      9  N   UNL     1      33.114 -13.310 -22.605  0.00  0.00    -0.246 N 
ATOM     10  N   UNL     1      32.995 -13.384 -24.837  0.00  0.00    -0.227 NA
ATOM     11  C   UNL     1      32.446 -12.178 -22.996  0.00  0.00    +0.107 C 
ATOM     12  C   UNL     1      33.429 -14.013 -23.765  0.00  0.00    +0.139 C 
ATOM     13  C   UNL     1      32.386 -12.248 -24.368  0.00  0.00    +0.118 C 
ATOM     14  C   UNL     1      33.451 -13.742 -21.325  0.00  0.00    +0.071 C 
ATOM     15  C   UNL     1      34.135 -15.242 -23.604  0.00  0.00    +0.035 C 
ATOM     16  C   UNL     1      34.117 -14.899 -21.182  0.00  0.00    +0.017 C 
ATOM     17  C   UNL     1      34.465 -15.666 -22.369  0.00  0.00    +0.004 C 
ENDBRANCH   4  11
BRANCH   1  18
ATOM     18  C   UNL     1      32.097  -7.052 -23.396  0.00  0.00    +0.058 C 
ATOM     19  C   UNL     1      33.044  -5.915 -25.765  0.00  0.00    +0.122 C 
ATOM     20  C   UNL     1      33.452  -6.744 -23.532  0.00  0.00    +0.017 C 
ATOM     21  C   UNL     1      31.217  -6.790 -24.449  0.00  0.00    +0.017 C 
ATOM     22  C   UNL     1      33.925  -6.176 -24.714  0.00  0.00    +0.021 C 
ATOM     23  C   UNL     1      31.690  -6.223 -25.631  0.00  0.00    +0.021 C 
BRANCH  19  24
ATOM     24  S   UNL     1      33.636  -5.204 -27.245  0.00  0.00    +0.057 S 
ATOM     25  O   UNL     1      35.084  -5.085 -27.150  0.00  0.00    -0.153 OA
ATOM     26  O   UNL     1      33.040  -5.912 -28.369  0.00  0.00    -0.153 OA
BRANCH  24  27
ATOM     27  N   UNL     1      32.948  -3.642 -27.154  0.00  0.00    -0.203 NA
ATOM     28  H   UNL     1      32.073  -3.687 -26.633  0.00  0.00    +0.144 HD
ATOM     29  H   UNL     1      32.766  -3.295 -28.097  0.00  0.00    +0.144 HD
ENDBRANCH  24  27
ENDBRANCH  19  24
ENDBRANCH   1  18
TORSDOF 4
ENDMDL
MODEL 7
REMARK VINA RESULT:     -10.1      5.067      7.077
REMARK  Name = 5288527
REMARK  4 active torsions:
REMARK  status: ('A' for Active; 'I' for Inactive)
REMARK    1  A    between atoms: N_1  and  C_18
REMARK    2  A    between atoms: C_4  and  C_11
REMARK    3  A    between atoms: C_19  and  S_24
REMARK    4  A    between atoms: S_24  and  N_27
REMARK                            x       y       z     vdW  Elec       q    Type
REMARK                         _______ _______ _______ _____ _____    ______ ____
ROOT
ATOM      1  N   UNL     1      32.927 -23.391 -14.083  0.00  0.00    -0.247 N 
ATOM      2  N   UNL     1      34.219 -22.458 -15.804  0.00  0.00    -0.336 NA
ATOM      3  N   UNL     1      35.263 -23.438 -13.867  0.00  0.00    -0.170 NA
ATOM      4  C   UNL     1      35.451 -22.179 -16.275  0.00  0.00    +0.161 C 
ATOM      5  C   UNL     1      34.199 -23.080 -14.611  0.00  0.00    +0.149 C 
ATOM      6  C   UNL     1      36.619 -22.490 -15.615  0.00  0.00    +0.056 C 
ATOM      7  C   UNL     1      36.462 -23.127 -14.401  0.00  0.00    +0.114 C 
ATOM      8  H   UNL     1      32.960 -23.845 -13.210  0.00  0.00    +0.165 HD
ENDROOT
BRANCH   4  11
ATOM      9  N   UNL     1      34.359 -21.244 -18.317  0.00  0.00    -0.246 N 
ATOM     10  N   UNL     1      36.116 -20.447 -19.451  0.00  0.00    -0.227 NA
ATOM     11  C   UNL     1      35.468 -21.511 -17.555  0.00  0.00    +0.107 C 
ATOM     12  C   UNL     1      34.807 -20.593 -19.465  0.00  0.00    +0.139 C 
ATOM     13  C   UNL     1      36.530 -21.012 -18.272  0.00  0.00    +0.118 C 
ATOM     14  C   UNL     1      33.021 -21.531 -18.066  0.00  0.00    +0.071 C 
ATOM     15  C   UNL     1      33.818 -20.213 -20.419  0.00  0.00    +0.035 C 
ATOM     16  C   UNL     1      32.096 -21.170 -18.970  0.00  0.00    +0.017 C 
ATOM     17  C   UNL     1      32.521 -20.488 -20.183  0.00  0.00    +0.004 C 
ENDBRANCH   4  11
BRANCH   1  18
ATOM     18  C   UNL     1      31.620 -23.180 -14.561  0.00  0.00    +0.058 C 
ATOM     19  C   UNL     1      29.027 -22.760 -15.508  0.00  0.00    +0.122 C 
ATOM     20  C   UNL     1      31.215 -23.750 -15.770  0.00  0.00    +0.017 C 
ATOM     21  C   UNL     1      30.724 -22.399 -13.827  0.00  0.00    +0.017 C 
ATOM     22  C   UNL     1      29.920 -23.541 -16.242  0.00  0.00    +0.021 C 
ATOM     23  C   UNL     1      29.429 -22.190 -14.300  0.00  0.00    +0.021 C 
BRANCH  19  24
ATOM     24  S   UNL     1      27.405 -22.497 -16.100  0.00  0.00    +0.057 S 
ATOM     25  O   UNL     1      26.487 -22.575 -14.972  0.00  0.00    -0.153 OA
ATOM     26  O   UNL     1      27.409 -21.314 -16.949  0.00  0.00    -0.153 OA
BRANCH  24  27
ATOM     27  N   UNL     1      27.189 -23.878 -17.084  0.00  0.00    -0.203 NA
ATOM     28  H   UNL     1      27.448 -23.654 -18.044  0.00  0.00    +0.144 HD
ATOM     29  H   UNL     1      26.211 -24.167 -17.053  0.00  0.00    +0.144 HD
ENDBRANCH  24  27
ENDBRANCH  19  24
ENDBRANCH   1  18
TORSDOF 4
ENDMDL
MODEL 8
REMARK VINA RESULT:     -10.1      5.163      7.060
REMARK  Name = 5288527
REMARK  4 active torsions:
REMARK  status: ('A' for Active; 'I' for Inactive)
REMARK    1  A    between atoms: N_1  and  C_18
REMARK    2  A    between atoms: C_4  and  C_11
REMARK    3  A    between atoms: C_19  and  S_24
REMARK    4  A    between atoms: S_24  and  N_27
REMARK                            x       y       z     vdW  Elec       q    Type
REMARK                         _______ _______ _______ _____ _____    ______ ____
ROOT
ATOM      1  N   UNL     1      33.801 -22.982 -15.514  0.00  0.00    -0.247 N 
ATOM      2  N   UNL     1      34.064 -21.769 -17.505  0.00  0.00    -0.336 NA
ATOM      3  N   UNL     1      35.972 -22.376 -16.164  0.00  0.00    -0.170 NA
ATOM      4  C   UNL     1      34.912 -21.172 -18.366  0.00  0.00    +0.161 C 
ATOM      5  C   UNL     1      34.655 -22.344 -16.440  0.00  0.00    +0.149 C 
ATOM      6  C   UNL     1      36.279 -21.132 -18.202  0.00  0.00    +0.056 C 
ATOM      7  C   UNL     1      36.759 -21.758 -17.070  0.00  0.00    +0.114 C 
ATOM      8  H   UNL     1      34.275 -23.388 -14.752  0.00  0.00    +0.165 HD
ENDROOT
BRANCH   4  11
ATOM      9  N   UNL     1      34.890 -19.703 -20.385  0.00  0.00    -0.246 N 
ATOM     10  N   UNL     1      32.776 -19.916 -21.084  0.00  0.00    -0.227 NA
ATOM     11  C   UNL     1      34.275 -20.556 -19.506  0.00  0.00    +0.107 C 
ATOM     12  C   UNL     1      33.934 -19.339 -21.330  0.00  0.00    +0.139 C 
ATOM     13  C   UNL     1      32.981 -20.670 -19.956  0.00  0.00    +0.118 C 
ATOM     14  C   UNL     1      36.204 -19.242 -20.401  0.00  0.00    +0.071 C 
ATOM     15  C   UNL     1      34.350 -18.444 -22.359  0.00  0.00    +0.035 C 
ATOM     16  C   UNL     1      36.587 -18.399 -21.373  0.00  0.00    +0.017 C 
ATOM     17  C   UNL     1      35.619 -17.994 -22.381  0.00  0.00    +0.004 C 
ENDBRANCH   4  11
BRANCH   1  18
ATOM     18  C   UNL     1      32.405 -23.152 -15.466  0.00  0.00    +0.058 C 
ATOM     19  C   UNL     1      29.634 -23.489 -15.372  0.00  0.00    +0.122 C 
ATOM     20  C   UNL     1      31.825 -23.905 -14.443  0.00  0.00    +0.017 C 
ATOM     21  C   UNL     1      31.594 -22.567 -16.442  0.00  0.00    +0.017 C 
ATOM     22  C   UNL     1      30.442 -24.074 -14.396  0.00  0.00    +0.021 C 
ATOM     23  C   UNL     1      30.211 -22.736 -16.395  0.00  0.00    +0.021 C 
BRANCH  19  24
ATOM     24  S   UNL     1      27.902 -23.700 -15.315  0.00  0.00    +0.057 S 
ATOM     25  O   UNL     1      27.611 -24.893 -14.532  0.00  0.00    -0.153 OA
ATOM     26  O   UNL     1      27.292 -22.429 -14.950  0.00  0.00    -0.153 OA
BRANCH  24  27
ATOM     27  N   UNL     1      27.558 -24.022 -16.958  0.00  0.00    -0.203 NA
ATOM     28  H   UNL     1      26.956 -24.842 -17.024  0.00  0.00    +0.144 HD
ATOM     29  H   UNL     1      28.429 -24.196 -17.460  0.00  0.00    +0.144 HD
ENDBRANCH  24  27
ENDBRANCH  19  24
ENDBRANCH   1  18
TORSDOF 4
ENDMDL
MODEL 9
REMARK VINA RESULT:      -9.8      4.078      6.705
REMARK  Name = 5288527
REMARK  4 active torsions:
REMARK  status: ('A' for Active; 'I' for Inactive)
REMARK    1  A    between atoms: N_1  and  C_18
REMARK    2  A    between atoms: C_4  and  C_11
REMARK    3  A    between atoms: C_19  and  S_24
REMARK    4  A    between atoms: S_24  and  N_27
REMARK                            x       y       z     vdW  Elec       q    Type
REMARK                         _______ _______ _______ _____ _____    ______ ____
ROOT
ATOM      1  N   UNL     1      31.476 -21.815 -17.801  0.00  0.00    -0.247 N 
ATOM      2  N   UNL     1      32.942 -22.846 -16.287  0.00  0.00    -0.336 NA
ATOM      3  N   UNL     1      30.555 -23.090 -16.059  0.00  0.00    -0.170 NA
ATOM      4  C   UNL     1      33.083 -23.623 -15.194  0.00  0.00    +0.161 C 
ATOM      5  C   UNL     1      31.667 -22.624 -16.659  0.00  0.00    +0.149 C 
ATOM      6  C   UNL     1      32.031 -24.162 -14.489  0.00  0.00    +0.056 C 
ATOM      7  C   UNL     1      30.775 -23.859 -14.973  0.00  0.00    +0.114 C 
ATOM      8  H   UNL     1      30.529 -21.679 -18.036  0.00  0.00    +0.165 HD
ENDROOT
BRANCH   4  11
ATOM      9  N   UNL     1      35.537 -23.166 -15.271  0.00  0.00    -0.246 N 
ATOM     10  N   UNL     1      36.328 -24.670 -13.817  0.00  0.00    -0.227 NA
ATOM     11  C   UNL     1      34.451 -23.858 -14.798  0.00  0.00    +0.107 C 
ATOM     12  C   UNL     1      36.660 -23.699 -14.642  0.00  0.00    +0.139 C 
ATOM     13  C   UNL     1      34.964 -24.773 -13.909  0.00  0.00    +0.118 C 
ATOM     14  C   UNL     1      35.592 -22.126 -16.194  0.00  0.00    +0.071 C 
ATOM     15  C   UNL     1      37.922 -23.129 -14.980  0.00  0.00    +0.035 C 
ATOM     16  C   UNL     1      36.784 -21.595 -16.508  0.00  0.00    +0.017 C 
ATOM     17  C   UNL     1      37.983 -22.122 -15.874  0.00  0.00    +0.004 C 
ENDBRANCH   4  11
BRANCH   1  18
ATOM     18  C   UNL     1      32.373 -21.166 -18.670  0.00  0.00    +0.058 C 
ATOM     19  C   UNL     1      34.154 -19.878 -20.392  0.00  0.00    +0.122 C 
ATOM     20  C   UNL     1      31.906 -20.204 -19.569  0.00  0.00    +0.017 C 
ATOM     21  C   UNL     1      33.733 -21.481 -18.635  0.00  0.00    +0.017 C 
ATOM     22  C   UNL     1      32.795 -19.562 -20.429  0.00  0.00    +0.021 C 
ATOM     23  C   UNL     1      34.622 -20.838 -19.495  0.00  0.00    +0.021 C 
BRANCH  19  24
ATOM     24  S   UNL     1      35.267 -19.074 -21.470  0.00  0.00    +0.057 S 
ATOM     25  O   UNL     1      36.624 -19.380 -21.039  0.00  0.00    -0.153 OA
ATOM     26  O   UNL     1      34.865 -19.349 -22.842  0.00  0.00    -0.153 OA
BRANCH  24  27
ATOM     27  N   UNL     1      34.934 -17.434 -21.119  0.00  0.00    -0.203 NA
ATOM     28  H   UNL     1      35.669 -17.059 -20.521  0.00  0.00    +0.144 HD
ATOM     29  H   UNL     1      34.036 -17.365 -20.640  0.00  0.00    +0.144 HD
ENDBRANCH  24  27
ENDBRANCH  19  24
ENDBRANCH   1  18
TORSDOF 4
ENDMDL
