MODEL 1
REMARK VINA RESULT:     -10.2      0.000      0.000
REMARK  Name = 9927355
REMARK  5 active torsions:
REMARK  status: ('A' for Active; 'I' for Inactive)
REMARK    1  A    between atoms: C_7  and  C_14
REMARK    2  A    between atoms: C_11  and  C_24
REMARK    3  A    between atoms: C_12  and  O_22
REMARK    4  A    between atoms: C_19  and  O_20
REMARK    5  A    between atoms: C_24  and  O_25
REMARK                            x       y       z     vdW  Elec       q    Type
REMARK                         _______ _______ _______ _____ _____    ______ ____
ROOT
ATOM      1  O   UNL     1      32.067 -22.185 -16.514  0.00  0.00    -0.475 OA
ATOM      2  C   UNL     1      34.355 -23.040 -16.249  0.00  0.00    +0.049 C 
ATOM      3  C   UNL     1      33.911 -24.067 -15.196  0.00  0.00    +0.029 C 
ATOM      4  C   UNL     1      34.875 -21.841 -15.433  0.00  0.00    +0.004 C 
ATOM      5  C   UNL     1      34.969 -23.878 -14.105  0.00  0.00    +0.005 C 
ATOM      6  C   UNL     1      35.191 -22.373 -14.037  0.00  0.00    +0.000 C 
ATOM      7  C   UNL     1      33.199 -22.731 -17.207  0.00  0.00    +0.188 C 
ATOM      8  C   UNL     1      32.487 -23.826 -14.752  0.00  0.00    +0.014 C 
ATOM      9  C   UNL     1      31.660 -22.915 -15.427  0.00  0.00    +0.133 C 
ATOM     10  C   UNL     1      31.951 -24.541 -13.669  0.00  0.00    +0.035 C 
ATOM     11  C   UNL     1      30.354 -22.678 -14.988  0.00  0.00    +0.044 C 
ATOM     12  C   UNL     1      30.641 -24.316 -13.243  0.00  0.00    +0.133 C 
ATOM     13  C   UNL     1      29.845 -23.380 -13.898  0.00  0.00    +0.038 C 
ENDROOT
BRANCH   7  14
ATOM     14  C   UNL     1      33.625 -21.803 -18.330  0.00  0.00    +0.017 C 
ATOM     15  C   UNL     1      34.979 -21.647 -18.628  0.00  0.00    +0.002 C 
ATOM     16  C   UNL     1      32.663 -21.106 -19.060  0.00  0.00    +0.002 C 
ATOM     17  C   UNL     1      35.370 -20.793 -19.659  0.00  0.00    +0.036 C 
ATOM     18  C   UNL     1      33.056 -20.252 -20.091  0.00  0.00    +0.036 C 
ATOM     19  C   UNL     1      34.410 -20.096 -20.390  0.00  0.00    +0.134 C 
BRANCH  19  20
ATOM     20  O   UNL     1      34.793 -19.263 -21.397  0.00  0.00    -0.506 OA
ATOM     21  H   UNL     1      34.886 -19.596 -22.268  0.00  0.00    +0.292 HD
ENDBRANCH  19  20
ENDBRANCH   7  14
BRANCH  12  22
ATOM     22  O   UNL     1      30.141 -25.013 -12.186  0.00  0.00    -0.506 OA
ATOM     23  H   UNL     1      30.568 -24.969 -11.352  0.00  0.00    +0.292 HD
ENDBRANCH  12  22
BRANCH  11  24
ATOM     24  C   UNL     1      29.476 -21.686 -15.681  0.00  0.00    +0.172 C 
BRANCH  24  25
ATOM     25  O   UNL     1      28.867 -22.305 -16.806  0.00  0.00    -0.346 OA
ATOM     26  C   UNL     1      27.461 -22.427 -16.636  0.00  0.00    +0.175 C 
ENDBRANCH  24  25
ENDBRANCH  11  24
TORSDOF 5
ENDMDL
MODEL 2
REMARK VINA RESULT:      -9.0     13.920     17.198
REMARK  Name = 9927355
REMARK  5 active torsions:
REMARK  status: ('A' for Active; 'I' for Inactive)
REMARK    1  A    between atoms: C_7  and  C_14
REMARK    2  A    between atoms: C_11  and  C_24
REMARK    3  A    between atoms: C_12  and  O_22
REMARK    4  A    between atoms: C_19  and  O_20
REMARK    5  A    between atoms: C_24  and  O_25
REMARK                            x       y       z     vdW  Elec       q    Type
REMARK                         _______ _______ _______ _____ _____    ______ ____
ROOT
ATOM      1  O   UNL     1      32.390  -7.342 -23.356  0.00  0.00    -0.475 OA
ATOM      2  C   UNL     1      32.192  -5.054 -22.479  0.00  0.00    +0.049 C 
ATOM      3  C   UNL     1      32.008  -5.560 -21.040  0.00  0.00    +0.029 C 
ATOM      4  C   UNL     1      30.760  -4.815 -22.997  0.00  0.00    +0.004 C 
ATOM      5  C   UNL     1      30.810  -4.732 -20.564  0.00  0.00    +0.005 C 
ATOM      6  C   UNL     1      29.870  -4.688 -21.762  0.00  0.00    +0.000 C 
ATOM      7  C   UNL     1      33.023  -6.055 -23.290  0.00  0.00    +0.188 C 
ATOM      8  C   UNL     1      31.805  -7.057 -20.999  0.00  0.00    +0.014 C 
ATOM      9  C   UNL     1      32.006  -7.848 -22.140  0.00  0.00    +0.133 C 
ATOM     10  C   UNL     1      31.442  -7.691 -19.800  0.00  0.00    +0.035 C 
ATOM     11  C   UNL     1      31.786  -9.227 -22.098  0.00  0.00    +0.044 C 
ATOM     12  C   UNL     1      31.239  -9.071 -19.756  0.00  0.00    +0.133 C 
ATOM     13  C   UNL     1      31.404  -9.838 -20.906  0.00  0.00    +0.038 C 
ENDROOT
BRANCH   7  14
ATOM     14  C   UNL     1      33.321  -5.544 -24.688  0.00  0.00    +0.017 C 
ATOM     15  C   UNL     1      34.304  -4.574 -24.879  0.00  0.00    +0.002 C 
ATOM     16  C   UNL     1      32.611  -6.045 -25.778  0.00  0.00    +0.002 C 
ATOM     17  C   UNL     1      34.577  -4.104 -26.164  0.00  0.00    +0.036 C 
ATOM     18  C   UNL     1      32.884  -5.575 -27.063  0.00  0.00    +0.036 C 
ATOM     19  C   UNL     1      33.868  -4.604 -27.255  0.00  0.00    +0.134 C 
BRANCH  19  20
ATOM     20  O   UNL     1      34.135  -4.146 -28.509  0.00  0.00    -0.506 OA
ATOM     21  H   UNL     1      34.540  -3.308 -28.624  0.00  0.00    +0.292 HD
ENDBRANCH  19  20
ENDBRANCH   7  14
BRANCH  12  22
ATOM     22  O   UNL     1      30.879  -9.667 -18.586  0.00  0.00    -0.506 OA
ATOM     23  H   UNL     1      30.926 -10.599 -18.501  0.00  0.00    +0.292 HD
ENDBRANCH  12  22
BRANCH  11  24
ATOM     24  C   UNL     1      31.966 -10.075 -23.316  0.00  0.00    +0.172 C 
BRANCH  24  25
ATOM     25  O   UNL     1      33.241 -10.703 -23.265  0.00  0.00    -0.346 OA
ATOM     26  C   UNL     1      33.157 -12.080 -23.605  0.00  0.00    +0.175 C 
ENDBRANCH  24  25
ENDBRANCH  11  24
TORSDOF 5
ENDMDL
MODEL 3
REMARK VINA RESULT:      -8.9      2.491      6.645
REMARK  Name = 9927355
REMARK  5 active torsions:
REMARK  status: ('A' for Active; 'I' for Inactive)
REMARK    1  A    between atoms: C_7  and  C_14
REMARK    2  A    between atoms: C_11  and  C_24
REMARK    3  A    between atoms: C_12  and  O_22
REMARK    4  A    between atoms: C_19  and  O_20
REMARK    5  A    between atoms: C_24  and  O_25
REMARK                            x       y       z     vdW  Elec       q    Type
REMARK                         _______ _______ _______ _____ _____    ______ ____
ROOT
ATOM      1  O   UNL     1      34.846 -22.973 -16.289  0.00  0.00    -0.475 OA
ATOM      2  C   UNL     1      32.851 -23.753 -15.085  0.00  0.00    +0.049 C 
ATOM      3  C   UNL     1      31.920 -23.317 -16.226  0.00  0.00    +0.029 C 
ATOM      4  C   UNL     1      32.812 -22.586 -14.079  0.00  0.00    +0.004 C 
ATOM      5  C   UNL     1      30.813 -22.580 -15.468  0.00  0.00    +0.005 C 
ATOM      6  C   UNL     1      31.542 -21.795 -14.385  0.00  0.00    +0.000 C 
ATOM      7  C   UNL     1      34.239 -24.098 -15.635  0.00  0.00    +0.188 C 
ATOM      8  C   UNL     1      32.653 -22.485 -17.253  0.00  0.00    +0.014 C 
ATOM      9  C   UNL     1      34.050 -22.365 -17.226  0.00  0.00    +0.133 C 
ATOM     10  C   UNL     1      31.945 -21.840 -18.280  0.00  0.00    +0.035 C 
ATOM     11  C   UNL     1      34.715 -21.568 -18.163  0.00  0.00    +0.044 C 
ATOM     12  C   UNL     1      32.612 -21.059 -19.225  0.00  0.00    +0.133 C 
ATOM     13  C   UNL     1      33.995 -20.916 -19.162  0.00  0.00    +0.038 C 
ENDROOT
BRANCH   7  14
ATOM     14  C   UNL     1      35.160 -24.638 -14.557  0.00  0.00    +0.017 C 
ATOM     15  C   UNL     1      35.197 -24.027 -13.304  0.00  0.00    +0.002 C 
ATOM     16  C   UNL     1      35.969 -25.743 -14.820  0.00  0.00    +0.002 C 
ATOM     17  C   UNL     1      36.045 -24.522 -12.312  0.00  0.00    +0.036 C 
ATOM     18  C   UNL     1      36.816 -26.238 -13.828  0.00  0.00    +0.036 C 
ATOM     19  C   UNL     1      36.853 -25.627 -12.575  0.00  0.00    +0.134 C 
BRANCH  19  20
ATOM     20  O   UNL     1      37.679 -26.111 -11.606  0.00  0.00    -0.506 OA
ATOM     21  H   UNL     1      38.581 -26.275 -11.800  0.00  0.00    +0.292 HD
ENDBRANCH  19  20
ENDBRANCH   7  14
BRANCH  12  22
ATOM     22  O   UNL     1      31.907 -20.434 -20.208  0.00  0.00    -0.506 OA
ATOM     23  H   UNL     1      32.356 -19.932 -20.860  0.00  0.00    +0.292 HD
ENDBRANCH  12  22
BRANCH  11  24
ATOM     24  C   UNL     1      36.200 -21.407 -18.124  0.00  0.00    +0.172 C 
BRANCH  24  25
ATOM     25  O   UNL     1      36.532 -20.329 -17.259  0.00  0.00    -0.346 OA
ATOM     26  C   UNL     1      37.286 -20.773 -16.139  0.00  0.00    +0.175 C 
ENDBRANCH  24  25
ENDBRANCH  11  24
TORSDOF 5
ENDMDL
MODEL 4
REMARK VINA RESULT:      -8.6     13.815     17.921
REMARK  Name = 9927355
REMARK  5 active torsions:
REMARK  status: ('A' for Active; 'I' for Inactive)
REMARK    1  A    between atoms: C_7  and  C_14
REMARK    2  A    between atoms: C_11  and  C_24
REMARK    3  A    between atoms: C_12  and  O_22
REMARK    4  A    between atoms: C_19  and  O_20
REMARK    5  A    between atoms: C_24  and  O_25
REMARK                            x       y       z     vdW  Elec       q    Type
REMARK                         _______ _______ _______ _____ _____    ______ ____
ROOT
ATOM      1  O   UNL     1      32.492  -7.222 -23.605  0.00  0.00    -0.475 OA
ATOM      2  C   UNL     1      31.119  -7.222 -21.567  0.00  0.00    +0.049 C 
ATOM      3  C   UNL     1      30.679  -5.768 -21.794  0.00  0.00    +0.029 C 
ATOM      4  C   UNL     1      32.303  -7.124 -20.584  0.00  0.00    +0.004 C 
ATOM      5  C   UNL     1      30.884  -5.154 -20.406  0.00  0.00    +0.005 C 
ATOM      6  C   UNL     1      32.187  -5.762 -19.903  0.00  0.00    +0.000 C 
ATOM      7  C   UNL     1      31.433  -7.896 -22.907  0.00  0.00    +0.188 C 
ATOM      8  C   UNL     1      31.471  -5.114 -22.904  0.00  0.00    +0.014 C 
ATOM      9  C   UNL     1      32.316  -5.868 -23.732  0.00  0.00    +0.133 C 
ATOM     10  C   UNL     1      31.347  -3.738 -23.148  0.00  0.00    +0.035 C 
ATOM     11  C   UNL     1      33.066  -5.249 -24.735  0.00  0.00    +0.044 C 
ATOM     12  C   UNL     1      32.084  -3.124 -24.162  0.00  0.00    +0.133 C 
ATOM     13  C   UNL     1      32.949  -3.877 -24.950  0.00  0.00    +0.038 C 
ENDROOT
BRANCH   7  14
ATOM     14  C   UNL     1      31.768  -9.366 -22.738  0.00  0.00    +0.017 C 
ATOM     15  C   UNL     1      31.008 -10.159 -21.879  0.00  0.00    +0.002 C 
ATOM     16  C   UNL     1      32.836  -9.922 -23.442  0.00  0.00    +0.002 C 
ATOM     17  C   UNL     1      31.317 -11.510 -21.723  0.00  0.00    +0.036 C 
ATOM     18  C   UNL     1      33.145 -11.274 -23.285  0.00  0.00    +0.036 C 
ATOM     19  C   UNL     1      32.385 -12.068 -22.425  0.00  0.00    +0.134 C 
BRANCH  19  20
ATOM     20  O   UNL     1      32.685 -13.387 -22.274  0.00  0.00    -0.506 OA
ATOM     21  H   UNL     1      33.526 -13.641 -21.949  0.00  0.00    +0.292 HD
ENDBRANCH  19  20
ENDBRANCH   7  14
BRANCH  12  22
ATOM     22  O   UNL     1      31.957  -1.786 -24.378  0.00  0.00    -0.506 OA
ATOM     23  H   UNL     1      31.122  -1.372 -24.277  0.00  0.00    +0.292 HD
ENDBRANCH  12  22
BRANCH  11  24
ATOM     24  C   UNL     1      33.994  -6.037 -25.603  0.00  0.00    +0.172 C 
BRANCH  24  25
ATOM     25  O   UNL     1      34.133  -5.381 -26.857  0.00  0.00    -0.346 OA
ATOM     26  C   UNL     1      35.498  -5.147 -27.174  0.00  0.00    +0.175 C 
ENDBRANCH  24  25
ENDBRANCH  11  24
TORSDOF 5
ENDMDL
MODEL 5
REMARK VINA RESULT:      -8.4      2.926      5.585
REMARK  Name = 9927355
REMARK  5 active torsions:
REMARK  status: ('A' for Active; 'I' for Inactive)
REMARK    1  A    between atoms: C_7  and  C_14
REMARK    2  A    between atoms: C_11  and  C_24
REMARK    3  A    between atoms: C_12  and  O_22
REMARK    4  A    between atoms: C_19  and  O_20
REMARK    5  A    between atoms: C_24  and  O_25
REMARK                            x       y       z     vdW  Elec       q    Type
REMARK                         _______ _______ _______ _____ _____    ______ ____
ROOT
ATOM      1  O   UNL     1      34.921 -23.436 -15.911  0.00  0.00    -0.475 OA
ATOM      2  C   UNL     1      34.388 -24.468 -13.746  0.00  0.00    +0.049 C 
ATOM      3  C   UNL     1      32.878 -24.391 -14.015  0.00  0.00    +0.029 C 
ATOM      4  C   UNL     1      34.700 -23.219 -12.899  0.00  0.00    +0.004 C 
ATOM      5  C   UNL     1      32.350 -23.819 -12.696  0.00  0.00    +0.005 C 
ATOM      6  C   UNL     1      33.373 -22.765 -12.294  0.00  0.00    +0.000 C 
ATOM      7  C   UNL     1      35.157 -24.573 -15.067  0.00  0.00    +0.188 C 
ATOM      8  C   UNL     1      32.574 -23.557 -15.238  0.00  0.00    +0.014 C 
ATOM      9  C   UNL     1      33.596 -23.136 -16.102  0.00  0.00    +0.133 C 
ATOM     10  C   UNL     1      31.249 -23.215 -15.552  0.00  0.00    +0.035 C 
ATOM     11  C   UNL     1      33.307 -22.340 -17.213  0.00  0.00    +0.044 C 
ATOM     12  C   UNL     1      30.960 -22.434 -16.672  0.00  0.00    +0.133 C 
ATOM     13  C   UNL     1      31.989 -21.990 -17.498  0.00  0.00    +0.038 C 
ENDROOT
BRANCH   7  14
ATOM     14  C   UNL     1      36.647 -24.761 -14.844  0.00  0.00    +0.017 C 
ATOM     15  C   UNL     1      37.523 -23.698 -15.064  0.00  0.00    +0.002 C 
ATOM     16  C   UNL     1      37.137 -25.996 -14.421  0.00  0.00    +0.002 C 
ATOM     17  C   UNL     1      38.892 -23.872 -14.860  0.00  0.00    +0.036 C 
ATOM     18  C   UNL     1      38.506 -26.168 -14.217  0.00  0.00    +0.036 C 
ATOM     19  C   UNL     1      39.383 -25.106 -14.437  0.00  0.00    +0.134 C 
BRANCH  19  20
ATOM     20  O   UNL     1      40.719 -25.274 -14.237  0.00  0.00    -0.506 OA
ATOM     21  H   UNL     1      41.068 -26.134 -14.106  0.00  0.00    +0.292 HD
ENDBRANCH  19  20
ENDBRANCH   7  14
BRANCH  12  22
ATOM     22  O   UNL     1      29.670 -22.105 -16.956  0.00  0.00    -0.506 OA
ATOM     23  H   UNL     1      28.972 -22.671 -16.688  0.00  0.00    +0.292 HD
ENDBRANCH  12  22
BRANCH  11  24
ATOM     24  C   UNL     1      34.392 -21.859 -18.123  0.00  0.00    +0.172 C 
BRANCH  24  25
ATOM     25  O   UNL     1      33.822 -21.057 -19.149  0.00  0.00    -0.346 OA
ATOM     26  C   UNL     1      34.824 -20.485 -19.979  0.00  0.00    +0.175 C 
ENDBRANCH  24  25
ENDBRANCH  11  24
TORSDOF 5
ENDMDL
MODEL 6
REMARK VINA RESULT:      -8.0      2.910      5.256
REMARK  Name = 9927355
REMARK  5 active torsions:
REMARK  status: ('A' for Active; 'I' for Inactive)
REMARK    1  A    between atoms: C_7  and  C_14
REMARK    2  A    between atoms: C_11  and  C_24
REMARK    3  A    between atoms: C_12  and  O_22
REMARK    4  A    between atoms: C_19  and  O_20
REMARK    5  A    between atoms: C_24  and  O_25
REMARK                            x       y       z     vdW  Elec       q    Type
REMARK                         _______ _______ _______ _____ _____    ______ ____
ROOT
ATOM      1  O   UNL     1      35.762 -23.390 -15.493  0.00  0.00    -0.475 OA
ATOM      2  C   UNL     1      33.541 -22.418 -15.089  0.00  0.00    +0.049 C 
ATOM      3  C   UNL     1      33.615 -22.729 -13.586  0.00  0.00    +0.029 C 
ATOM      4  C   UNL     1      32.747 -23.591 -15.694  0.00  0.00    +0.004 C 
ATOM      5  C   UNL     1      32.241 -23.354 -13.325  0.00  0.00    +0.005 C 
ATOM      6  C   UNL     1      31.978 -24.233 -14.541  0.00  0.00    +0.000 C 
ATOM      7  C   UNL     1      34.950 -22.217 -15.658  0.00  0.00    +0.188 C 
ATOM      8  C   UNL     1      34.792 -23.618 -13.260  0.00  0.00    +0.014 C 
ATOM      9  C   UNL     1      35.782 -23.891 -14.216  0.00  0.00    +0.133 C 
ATOM     10  C   UNL     1      34.935 -24.163 -11.974  0.00  0.00    +0.035 C 
ATOM     11  C   UNL     1      36.850 -24.740 -13.913  0.00  0.00    +0.044 C 
ATOM     12  C   UNL     1      36.012 -24.996 -11.668  0.00  0.00    +0.133 C 
ATOM     13  C   UNL     1      36.965 -25.291 -12.639  0.00  0.00    +0.038 C 
ENDROOT
BRANCH   7  14
ATOM     14  C   UNL     1      34.920 -21.801 -17.117  0.00  0.00    +0.017 C 
ATOM     15  C   UNL     1      36.060 -21.260 -17.710  0.00  0.00    +0.002 C 
ATOM     16  C   UNL     1      33.751 -21.960 -17.862  0.00  0.00    +0.002 C 
ATOM     17  C   UNL     1      36.031 -20.875 -19.051  0.00  0.00    +0.036 C 
ATOM     18  C   UNL     1      33.724 -21.575 -19.203  0.00  0.00    +0.036 C 
ATOM     19  C   UNL     1      34.864 -21.033 -19.797  0.00  0.00    +0.134 C 
BRANCH  19  20
ATOM     20  O   UNL     1      34.837 -20.660 -21.106  0.00  0.00    -0.506 OA
ATOM     21  H   UNL     1      34.124 -20.925 -21.653  0.00  0.00    +0.292 HD
ENDBRANCH  19  20
ENDBRANCH   7  14
BRANCH  12  22
ATOM     22  O   UNL     1      36.129 -25.522 -10.418  0.00  0.00    -0.506 OA
ATOM     23  H   UNL     1      35.360 -25.744  -9.929  0.00  0.00    +0.292 HD
ENDBRANCH  12  22
BRANCH  11  24
ATOM     24  C   UNL     1      37.893 -25.063 -14.934  0.00  0.00    +0.172 C 
BRANCH  24  25
ATOM     25  O   UNL     1      38.706 -26.126 -14.453  0.00  0.00    -0.346 OA
ATOM     26  C   UNL     1      40.066 -25.730 -14.337  0.00  0.00    +0.175 C 
ENDBRANCH  24  25
ENDBRANCH  11  24
TORSDOF 5
ENDMDL
MODEL 7
REMARK VINA RESULT:      -8.0      3.374      6.645
REMARK  Name = 9927355
REMARK  5 active torsions:
REMARK  status: ('A' for Active; 'I' for Inactive)
REMARK    1  A    between atoms: C_7  and  C_14
REMARK    2  A    between atoms: C_11  and  C_24
REMARK    3  A    between atoms: C_12  and  O_22
REMARK    4  A    between atoms: C_19  and  O_20
REMARK    5  A    between atoms: C_24  and  O_25
REMARK                            x       y       z     vdW  Elec       q    Type
REMARK                         _______ _______ _______ _____ _____    ______ ____
ROOT
ATOM      1  O   UNL     1      35.099 -23.887 -13.721  0.00  0.00    -0.475 OA
ATOM      2  C   UNL     1      35.285 -22.711 -15.870  0.00  0.00    +0.049 C 
ATOM      3  C   UNL     1      36.717 -23.219 -16.091  0.00  0.00    +0.029 C 
ATOM      4  C   UNL     1      35.456 -21.305 -15.262  0.00  0.00    +0.004 C 
ATOM      5  C   UNL     1      37.446 -21.939 -16.513  0.00  0.00    +0.005 C 
ATOM      6  C   UNL     1      36.872 -20.853 -15.613  0.00  0.00    +0.000 C 
ATOM      7  C   UNL     1      34.496 -23.705 -15.011  0.00  0.00    +0.188 C 
ATOM      8  C   UNL     1      37.267 -23.886 -14.851  0.00  0.00    +0.014 C 
ATOM      9  C   UNL     1      36.439 -24.178 -13.757  0.00  0.00    +0.133 C 
ATOM     10  C   UNL     1      38.619 -24.258 -14.786  0.00  0.00    +0.035 C 
ATOM     11  C   UNL     1      36.965 -24.767 -12.603  0.00  0.00    +0.044 C 
ATOM     12  C   UNL     1      39.138 -24.862 -13.640  0.00  0.00    +0.133 C 
ATOM     13  C   UNL     1      38.313 -25.110 -12.546  0.00  0.00    +0.038 C 
ENDROOT
BRANCH   7  14
ATOM     14  C   UNL     1      33.043 -23.296 -14.858  0.00  0.00    +0.017 C 
ATOM     15  C   UNL     1      32.292 -22.960 -15.984  0.00  0.00    +0.002 C 
ATOM     16  C   UNL     1      32.460 -23.256 -13.592  0.00  0.00    +0.002 C 
ATOM     17  C   UNL     1      30.957 -22.582 -15.844  0.00  0.00    +0.036 C 
ATOM     18  C   UNL     1      31.124 -22.879 -13.452  0.00  0.00    +0.036 C 
ATOM     19  C   UNL     1      30.373 -22.542 -14.578  0.00  0.00    +0.134 C 
BRANCH  19  20
ATOM     20  O   UNL     1      29.069 -22.175 -14.442  0.00  0.00    -0.506 OA
ATOM     21  H   UNL     1      28.457 -22.360 -15.127  0.00  0.00    +0.292 HD
ENDBRANCH  19  20
ENDBRANCH   7  14
BRANCH  12  22
ATOM     22  O   UNL     1      40.454 -25.209 -13.592  0.00  0.00    -0.506 OA
ATOM     23  H   UNL     1      40.961 -25.021 -12.826  0.00  0.00    +0.292 HD
ENDBRANCH  12  22
BRANCH  11  24
ATOM     24  C   UNL     1      36.098 -25.053 -11.419  0.00  0.00    +0.172 C 
BRANCH  24  25
ATOM     25  O   UNL     1      36.520 -24.250 -10.325  0.00  0.00    -0.346 OA
ATOM     26  C   UNL     1      35.737 -23.070 -10.212  0.00  0.00    +0.175 C 
ENDBRANCH  24  25
ENDBRANCH  11  24
TORSDOF 5
ENDMDL
MODEL 8
REMARK VINA RESULT:      -7.8      1.867      6.149
REMARK  Name = 9927355
REMARK  5 active torsions:
REMARK  status: ('A' for Active; 'I' for Inactive)
REMARK    1  A    between atoms: C_7  and  C_14
REMARK    2  A    between atoms: C_11  and  C_24
REMARK    3  A    between atoms: C_12  and  O_22
REMARK    4  A    between atoms: C_19  and  O_20
REMARK    5  A    between atoms: C_24  and  O_25
REMARK                            x       y       z     vdW  Elec       q    Type
REMARK                         _______ _______ _______ _____ _____    ______ ____
ROOT
ATOM      1  O   UNL     1      32.885 -22.928 -16.058  0.00  0.00    -0.475 OA
ATOM      2  C   UNL     1      33.652 -23.393 -13.770  0.00  0.00    +0.049 C 
ATOM      3  C   UNL     1      34.888 -22.497 -13.940  0.00  0.00    +0.029 C 
ATOM      4  C   UNL     1      34.158 -24.819 -14.063  0.00  0.00    +0.004 C 
ATOM      5  C   UNL     1      36.003 -23.386 -13.380  0.00  0.00    +0.005 C 
ATOM      6  C   UNL     1      35.674 -24.784 -13.888  0.00  0.00    +0.000 C 
ATOM      7  C   UNL     1      32.514 -22.902 -14.671  0.00  0.00    +0.188 C 
ATOM      8  C   UNL     1      35.073 -22.073 -15.379  0.00  0.00    +0.014 C 
ATOM      9  C   UNL     1      34.076 -22.308 -16.338  0.00  0.00    +0.133 C 
ATOM     10  C   UNL     1      36.239 -21.400 -15.776  0.00  0.00    +0.035 C 
ATOM     11  C   UNL     1      34.270 -21.938 -17.672  0.00  0.00    +0.044 C 
ATOM     12  C   UNL     1      36.424 -21.016 -17.105  0.00  0.00    +0.133 C 
ATOM     13  C   UNL     1      35.443 -21.292 -18.054  0.00  0.00    +0.038 C 
ENDROOT
BRANCH   7  14
ATOM     14  C   UNL     1      31.237 -23.693 -14.455  0.00  0.00    +0.017 C 
ATOM     15  C   UNL     1      30.928 -24.183 -13.186  0.00  0.00    +0.002 C 
ATOM     16  C   UNL     1      30.375 -23.930 -15.525  0.00  0.00    +0.002 C 
ATOM     17  C   UNL     1      29.755 -24.912 -12.988  0.00  0.00    +0.036 C 
ATOM     18  C   UNL     1      29.202 -24.659 -15.326  0.00  0.00    +0.036 C 
ATOM     19  C   UNL     1      28.892 -25.149 -14.057  0.00  0.00    +0.134 C 
BRANCH  19  20
ATOM     20  O   UNL     1      27.747 -25.859 -13.862  0.00  0.00    -0.506 OA
ATOM     21  H   UNL     1      26.964 -25.616 -14.316  0.00  0.00    +0.292 HD
ENDBRANCH  19  20
ENDBRANCH   7  14
BRANCH  12  22
ATOM     22  O   UNL     1      37.566 -20.373 -17.473  0.00  0.00    -0.506 OA
ATOM     23  H   UNL     1      37.618 -19.439 -17.410  0.00  0.00    +0.292 HD
ENDBRANCH  12  22
BRANCH  11  24
ATOM     24  C   UNL     1      33.228 -22.212 -18.708  0.00  0.00    +0.172 C 
BRANCH  24  25
ATOM     25  O   UNL     1      32.290 -21.144 -18.723  0.00  0.00    -0.346 OA
ATOM     26  C   UNL     1      32.426 -20.348 -19.891  0.00  0.00    +0.175 C 
ENDBRANCH  24  25
ENDBRANCH  11  24
TORSDOF 5
ENDMDL
MODEL 9
REMARK VINA RESULT:      -7.7      1.760      6.179
REMARK  Name = 9927355
REMARK  5 active torsions:
REMARK  status: ('A' for Active; 'I' for Inactive)
REMARK    1  A    between atoms: C_7  and  C_14
REMARK    2  A    between atoms: C_11  and  C_24
REMARK    3  A    between atoms: C_12  and  O_22
REMARK    4  A    between atoms: C_19  and  O_20
REMARK    5  A    between atoms: C_24  and  O_25
REMARK                            x       y       z     vdW  Elec       q    Type
REMARK                         _______ _______ _______ _____ _____    ______ ____
ROOT
ATOM      1  O   UNL     1      32.681 -22.857 -16.480  0.00  0.00    -0.475 OA
ATOM      2  C   UNL     1      33.691 -23.295 -14.283  0.00  0.00    +0.049 C 
ATOM      3  C   UNL     1      34.897 -22.396 -14.593  0.00  0.00    +0.029 C 
ATOM      4  C   UNL     1      34.170 -24.722 -14.615  0.00  0.00    +0.004 C 
ATOM      5  C   UNL     1      36.070 -23.274 -14.148  0.00  0.00    +0.005 C 
ATOM      6  C   UNL     1      35.696 -24.679 -14.603  0.00  0.00    +0.000 C 
ATOM      7  C   UNL     1      32.460 -22.819 -15.062  0.00  0.00    +0.188 C 
ATOM      8  C   UNL     1      34.924 -21.985 -16.047  0.00  0.00    +0.014 C 
ATOM      9  C   UNL     1      33.831 -22.234 -16.892  0.00  0.00    +0.133 C 
ATOM     10  C   UNL     1      36.037 -21.312 -16.574  0.00  0.00    +0.035 C 
ATOM     11  C   UNL     1      33.880 -21.877 -18.242  0.00  0.00    +0.044 C 
ATOM     12  C   UNL     1      36.077 -20.940 -17.918  0.00  0.00    +0.133 C 
ATOM     13  C   UNL     1      35.002 -21.230 -18.754  0.00  0.00    +0.038 C 
ENDROOT
BRANCH   7  14
ATOM     14  C   UNL     1      31.218 -23.613 -14.702  0.00  0.00    +0.017 C 
ATOM     15  C   UNL     1      30.269 -23.902 -15.682  0.00  0.00    +0.002 C 
ATOM     16  C   UNL     1      31.027 -24.052 -13.393  0.00  0.00    +0.002 C 
ATOM     17  C   UNL     1      29.126 -24.631 -15.351  0.00  0.00    +0.036 C 
ATOM     18  C   UNL     1      29.884 -24.781 -13.062  0.00  0.00    +0.036 C 
ATOM     19  C   UNL     1      28.934 -25.070 -14.042  0.00  0.00    +0.134 C 
BRANCH  19  20
ATOM     20  O   UNL     1      27.820 -25.783 -13.721  0.00  0.00    -0.506 OA
ATOM     21  H   UNL     1      27.079 -25.349 -13.344  0.00  0.00    +0.292 HD
ENDBRANCH  19  20
ENDBRANCH   7  14
BRANCH  12  22
ATOM     22  O   UNL     1      37.169 -20.296 -18.413  0.00  0.00    -0.506 OA
ATOM     23  H   UNL     1      37.065 -19.492 -18.884  0.00  0.00    +0.292 HD
ENDBRANCH  12  22
BRANCH  11  24
ATOM     24  C   UNL     1      32.734 -22.166 -19.158  0.00  0.00    +0.172 C 
BRANCH  24  25
ATOM     25  O   UNL     1      31.870 -21.038 -19.199  0.00  0.00    -0.346 OA
ATOM     26  C   UNL     1      32.255 -20.124 -20.216  0.00  0.00    +0.175 C 
ENDBRANCH  24  25
ENDBRANCH  11  24
TORSDOF 5
ENDMDL
