MODEL 1
REMARK VINA RESULT:     -13.1      0.000      0.000
REMARK  Name = 42628063
REMARK  6 active torsions:
REMARK  status: ('A' for Active; 'I' for Inactive)
REMARK    1  A    between atoms: C_1  and  N_3
REMARK    2  A    between atoms: C_1  and  C_21
REMARK    3  A    between atoms: C_4  and  N_10
REMARK    4  A    between atoms: C_11  and  C_15
REMARK    5  A    between atoms: N_20  and  C_24
REMARK    6  A    between atoms: C_27  and  N_31
REMARK                            x       y       z     vdW  Elec       q    Type
REMARK                         _______ _______ _______ _____ _____    ______ ____
ROOT
ATOM      1  C   UNL     1      35.019 -21.094 -19.981  0.00  0.00    +0.010 C 
ENDROOT
BRANCH   1   3
ATOM      2  F   UNL     1      33.043 -22.206 -16.120  0.00  0.00    -0.238 F 
ATOM      3  N   UNL     1      34.739 -21.289 -18.566  0.00  0.00    +0.396 N 
ATOM      4  C   UNL     1      35.359 -22.042 -16.464  0.00  0.00    +0.082 C 
ATOM      5  C   UNL     1      34.059 -22.741 -16.850  0.00  0.00    +0.156 C 
ATOM      6  C   UNL     1      35.946 -21.580 -17.792  0.00  0.00    -0.054 C 
ATOM      7  C   UNL     1      33.841 -22.423 -18.323  0.00  0.00    -0.039 C 
ATOM      8  H   UNL     1      34.313 -20.409 -18.275  0.00  0.00    -0.079 HD
BRANCH   4  10
ATOM      9  O   UNL     1      35.236 -22.695 -13.671  0.00  0.00    -0.270 OA
ATOM     10  N   UNL     1      36.261 -22.896 -15.742  0.00  0.00    -0.302 N 
ATOM     11  C   UNL     1      36.123 -23.156 -14.383  0.00  0.00    +0.252 C 
ATOM     12  H   UNL     1      37.007 -23.314 -16.229  0.00  0.00    +0.150 HD
BRANCH  11  15
ATOM     13 CL   UNL     1      40.663 -26.219 -13.605  0.00  0.00    -0.075 Cl
ATOM     14  S   UNL     1      38.532 -24.466 -14.700  0.00  0.00    -0.071 S 
ATOM     15  C   UNL     1      37.153 -24.041 -13.778  0.00  0.00    +0.084 C 
ATOM     16  C   UNL     1      37.178 -24.603 -12.521  0.00  0.00    +0.012 C 
ATOM     17  C   UNL     1      38.344 -25.395 -12.312  0.00  0.00    +0.019 C 
ATOM     18  C   UNL     1      39.166 -25.406 -13.417  0.00  0.00    +0.087 C 
ENDBRANCH  11  15
ENDBRANCH   4  10
ENDBRANCH   1   3
BRANCH   1  21
ATOM     19  O   UNL     1      32.999 -19.820 -20.321  0.00  0.00    -0.277 OA
ATOM     20  N   UNL     1      35.037 -19.020 -21.168  0.00  0.00    -0.284 N 
ATOM     21  C   UNL     1      34.208 -19.918 -20.499  0.00  0.00    +0.205 C 
ATOM     22  H   UNL     1      35.990 -19.258 -21.212  0.00  0.00    +0.155 HD
BRANCH  20  24
ATOM     23  F   UNL     1      34.262 -18.932 -23.845  0.00  0.00    -0.203 F 
ATOM     24  C   UNL     1      34.666 -17.805 -21.792  0.00  0.00    +0.078 C 
ATOM     25  C   UNL     1      34.283 -17.794 -23.134  0.00  0.00    +0.155 C 
ATOM     26  C   UNL     1      34.684 -16.616 -21.063  0.00  0.00    +0.018 C 
ATOM     27  C   UNL     1      33.936 -15.407 -23.017  0.00  0.00    +0.061 C 
ATOM     28  C   UNL     1      33.919 -16.596 -23.746  0.00  0.00    +0.046 C 
ATOM     29  C   UNL     1      34.319 -15.417 -21.675  0.00  0.00    +0.017 C 
BRANCH  27  31
ATOM     30  O   UNL     1      33.030 -15.133 -25.749  0.00  0.00    -0.269 OA
ATOM     31  N   UNL     1      33.557 -14.161 -23.653  0.00  0.00    -0.233 N 
ATOM     32  C   UNL     1      33.166 -14.153 -25.017  0.00  0.00    +0.257 C 
ATOM     33  C   UNL     1      33.552 -12.967 -22.928  0.00  0.00    +0.072 C 
ATOM     34  C   UNL     1      32.836 -12.820 -25.609  0.00  0.00    +0.059 C 
ATOM     35  C   UNL     1      33.220 -11.791 -23.471  0.00  0.00    +0.017 C 
ATOM     36  C   UNL     1      32.858 -11.718 -24.854  0.00  0.00    +0.006 C 
ENDBRANCH  27  31
ENDBRANCH  20  24
ENDBRANCH   1  21
TORSDOF 6
ENDMDL
MODEL 2
REMARK VINA RESULT:     -13.0      1.610      1.924
REMARK  Name = 42628063
REMARK  6 active torsions:
REMARK  status: ('A' for Active; 'I' for Inactive)
REMARK    1  A    between atoms: C_1  and  N_3
REMARK    2  A    between atoms: C_1  and  C_21
REMARK    3  A    between atoms: C_4  and  N_10
REMARK    4  A    between atoms: C_11  and  C_15
REMARK    5  A    between atoms: N_20  and  C_24
REMARK    6  A    between atoms: C_27  and  N_31
REMARK                            x       y       z     vdW  Elec       q    Type
REMARK                         _______ _______ _______ _____ _____    ______ ____
ROOT
ATOM      1  C   UNL     1      35.498 -20.155 -20.444  0.00  0.00    +0.010 C 
ENDROOT
BRANCH   1   3
ATOM      2  F   UNL     1      32.952 -21.978 -17.244  0.00  0.00    -0.238 F 
ATOM      3  N   UNL     1      34.986 -20.594 -19.155  0.00  0.00    +0.396 N 
ATOM      4  C   UNL     1      35.274 -21.661 -17.118  0.00  0.00    +0.082 C 
ATOM      5  C   UNL     1      34.117 -22.340 -17.845  0.00  0.00    +0.156 C 
ATOM      6  C   UNL     1      36.054 -20.960 -18.224  0.00  0.00    -0.054 C 
ATOM      7  C   UNL     1      34.143 -21.790 -19.265  0.00  0.00    -0.039 C 
ATOM      8  H   UNL     1      34.453 -19.794 -18.816  0.00  0.00    -0.079 HD
BRANCH   4  10
ATOM      9  O   UNL     1      34.973 -22.397 -14.360  0.00  0.00    -0.270 OA
ATOM     10  N   UNL     1      36.093 -22.584 -16.382  0.00  0.00    -0.302 N 
ATOM     11  C   UNL     1      35.871 -22.881 -15.042  0.00  0.00    +0.252 C 
ATOM     12  H   UNL     1      36.840 -23.025 -16.846  0.00  0.00    +0.150 HD
BRANCH  11  15
ATOM     13 CL   UNL     1      40.408 -25.822 -13.875  0.00  0.00    -0.075 Cl
ATOM     14  S   UNL     1      38.413 -23.956 -15.037  0.00  0.00    -0.071 S 
ATOM     15  C   UNL     1      36.822 -23.838 -14.418  0.00  0.00    +0.084 C 
ATOM     16  C   UNL     1      36.614 -24.693 -13.358  0.00  0.00    +0.012 C 
ATOM     17  C   UNL     1      37.778 -25.456 -13.050  0.00  0.00    +0.019 C 
ATOM     18  C   UNL     1      38.830 -25.154 -13.887  0.00  0.00    +0.087 C 
ENDBRANCH  11  15
ENDBRANCH   4  10
ENDBRANCH   1   3
BRANCH   1  21
ATOM     19  O   UNL     1      33.524 -19.316 -21.548  0.00  0.00    -0.277 OA
ATOM     20  N   UNL     1      35.163 -17.815 -20.793  0.00  0.00    -0.284 N 
ATOM     21  C   UNL     1      34.595 -19.069 -21.004  0.00  0.00    +0.205 C 
ATOM     22  H   UNL     1      36.032 -17.802 -20.332  0.00  0.00    +0.155 HD
BRANCH  20  24
ATOM     23  F   UNL     1      35.021 -17.024 -23.463  0.00  0.00    -0.203 F 
ATOM     24  C   UNL     1      34.635 -16.555 -21.165  0.00  0.00    +0.078 C 
ATOM     25  C   UNL     1      34.578 -16.189 -22.511  0.00  0.00    +0.155 C 
ATOM     26  C   UNL     1      34.172 -15.678 -20.185  0.00  0.00    +0.018 C 
ATOM     27  C   UNL     1      33.593 -14.072 -21.894  0.00  0.00    +0.061 C 
ATOM     28  C   UNL     1      34.058 -14.949 -22.875  0.00  0.00    +0.046 C 
ATOM     29  C   UNL     1      33.650 -14.437 -20.549  0.00  0.00    +0.017 C 
BRANCH  27  31
ATOM     30  O   UNL     1      31.520 -12.645 -20.469  0.00  0.00    -0.269 OA
ATOM     31  N   UNL     1      33.052 -12.781 -22.273  0.00  0.00    -0.233 N 
ATOM     32  C   UNL     1      32.005 -12.202 -21.510  0.00  0.00    +0.257 C 
ATOM     33  C   UNL     1      33.568 -12.090 -23.371  0.00  0.00    +0.072 C 
ATOM     34  C   UNL     1      31.473 -10.891 -21.996  0.00  0.00    +0.059 C 
ATOM     35  C   UNL     1      33.098 -10.903 -23.767  0.00  0.00    +0.017 C 
ATOM     36  C   UNL     1      32.013 -10.292 -23.060  0.00  0.00    +0.006 C 
ENDBRANCH  27  31
ENDBRANCH  20  24
ENDBRANCH   1  21
TORSDOF 6
ENDMDL
MODEL 3
REMARK VINA RESULT:     -12.9      4.757     12.038
REMARK  Name = 42628063
REMARK  6 active torsions:
REMARK  status: ('A' for Active; 'I' for Inactive)
REMARK    1  A    between atoms: C_1  and  N_3
REMARK    2  A    between atoms: C_1  and  C_21
REMARK    3  A    between atoms: C_4  and  N_10
REMARK    4  A    between atoms: C_11  and  C_15
REMARK    5  A    between atoms: N_20  and  C_24
REMARK    6  A    between atoms: C_27  and  N_31
REMARK                            x       y       z     vdW  Elec       q    Type
REMARK                         _______ _______ _______ _____ _____    ______ ____
ROOT
ATOM      1  C   UNL     1      33.552 -20.586 -20.438  0.00  0.00    +0.010 C 
ENDROOT
BRANCH   1   3
ATOM      2  F   UNL     1      37.175 -18.084 -21.251  0.00  0.00    -0.238 F 
ATOM      3  N   UNL     1      34.474 -19.465 -20.544  0.00  0.00    +0.396 N 
ATOM      4  C   UNL     1      34.963 -17.301 -21.214  0.00  0.00    +0.082 C 
ATOM      5  C   UNL     1      35.974 -18.237 -21.870  0.00  0.00    +0.156 C 
ATOM      6  C   UNL     1      33.793 -18.207 -20.851  0.00  0.00    -0.054 C 
ATOM      7  C   UNL     1      35.454 -19.646 -21.620  0.00  0.00    -0.039 C 
ATOM      8  H   UNL     1      34.927 -19.431 -19.631  0.00  0.00    -0.079 HD
BRANCH   4  10
ATOM      9  O   UNL     1      34.040 -14.712 -20.386  0.00  0.00    -0.270 OA
ATOM     10  N   UNL     1      34.562 -16.219 -22.070  0.00  0.00    -0.302 N 
ATOM     11  C   UNL     1      34.127 -14.993 -21.578  0.00  0.00    +0.252 C 
ATOM     12  H   UNL     1      34.598 -16.350 -23.044  0.00  0.00    +0.150 HD
BRANCH  11  15
ATOM     13 CL   UNL     1      32.490 -12.598 -26.287  0.00  0.00    -0.075 Cl
ATOM     14  S   UNL     1      33.316 -14.510 -24.171  0.00  0.00    -0.071 S 
ATOM     15  C   UNL     1      33.725 -13.986 -22.593  0.00  0.00    +0.084 C 
ATOM     16  C   UNL     1      33.621 -12.619 -22.458  0.00  0.00    +0.012 C 
ATOM     17  C   UNL     1      33.200 -11.993 -23.667  0.00  0.00    +0.019 C 
ATOM     18  C   UNL     1      32.998 -12.906 -24.680  0.00  0.00    +0.087 C 
ENDBRANCH  11  15
ENDBRANCH   4  10
ENDBRANCH   1   3
BRANCH   1  21
ATOM     19  O   UNL     1      34.251 -22.819 -19.850  0.00  0.00    -0.277 OA
ATOM     20  N   UNL     1      34.529 -21.068 -18.311  0.00  0.00    -0.284 N 
ATOM     21  C   UNL     1      34.144 -21.643 -19.520  0.00  0.00    +0.205 C 
ATOM     22  H   UNL     1      34.373 -20.101 -18.218  0.00  0.00    +0.155 HD
BRANCH  20  24
ATOM     23  F   UNL     1      33.035 -22.688 -16.603  0.00  0.00    -0.203 F 
ATOM     24  C   UNL     1      35.119 -21.715 -17.199  0.00  0.00    +0.078 C 
ATOM     25  C   UNL     1      34.344 -22.519 -16.362  0.00  0.00    +0.155 C 
ATOM     26  C   UNL     1      36.479 -21.546 -16.937  0.00  0.00    +0.018 C 
ATOM     27  C   UNL     1      36.287 -22.987 -15.008  0.00  0.00    +0.061 C 
ATOM     28  C   UNL     1      34.928 -23.155 -15.268  0.00  0.00    +0.046 C 
ATOM     29  C   UNL     1      37.063 -22.183 -15.842  0.00  0.00    +0.017 C 
BRANCH  27  31
ATOM     30  O   UNL     1      37.458 -25.631 -15.038  0.00  0.00    -0.269 OA
ATOM     31  N   UNL     1      36.895 -23.648 -13.869  0.00  0.00    -0.233 N 
ATOM     32  C   UNL     1      37.400 -24.967 -14.003  0.00  0.00    +0.257 C 
ATOM     33  C   UNL     1      37.008 -22.988 -12.643  0.00  0.00    +0.072 C 
ATOM     34  C   UNL     1      37.968 -25.592 -12.769  0.00  0.00    +0.059 C 
ATOM     35  C   UNL     1      37.550 -23.557 -11.561  0.00  0.00    +0.017 C 
ATOM     36  C   UNL     1      38.038 -24.901 -11.628  0.00  0.00    +0.006 C 
ENDBRANCH  27  31
ENDBRANCH  20  24
ENDBRANCH   1  21
TORSDOF 6
ENDMDL
MODEL 4
REMARK VINA RESULT:     -12.7      4.884     11.845
REMARK  Name = 42628063
REMARK  6 active torsions:
REMARK  status: ('A' for Active; 'I' for Inactive)
REMARK    1  A    between atoms: C_1  and  N_3
REMARK    2  A    between atoms: C_1  and  C_21
REMARK    3  A    between atoms: C_4  and  N_10
REMARK    4  A    between atoms: C_11  and  C_15
REMARK    5  A    between atoms: N_20  and  C_24
REMARK    6  A    between atoms: C_27  and  N_31
REMARK                            x       y       z     vdW  Elec       q    Type
REMARK                         _______ _______ _______ _____ _____    ______ ____
ROOT
ATOM      1  C   UNL     1      33.491 -20.383 -20.806  0.00  0.00    +0.010 C 
ENDROOT
BRANCH   1   3
ATOM      2  F   UNL     1      37.062 -17.941 -21.960  0.00  0.00    -0.238 F 
ATOM      3  N   UNL     1      34.457 -19.301 -20.928  0.00  0.00    +0.396 N 
ATOM      4  C   UNL     1      34.967 -17.079 -21.346  0.00  0.00    +0.082 C 
ATOM      5  C   UNL     1      35.754 -17.937 -22.333  0.00  0.00    +0.156 C 
ATOM      6  C   UNL     1      33.826 -17.981 -20.891  0.00  0.00    -0.054 C 
ATOM      7  C   UNL     1      35.188 -19.344 -22.199  0.00  0.00    -0.039 C 
ATOM      8  H   UNL     1      35.082 -19.438 -20.135  0.00  0.00    -0.079 HD
BRANCH   4  10
ATOM      9  O   UNL     1      33.882 -14.827 -19.936  0.00  0.00    -0.270 OA
ATOM     10  N   UNL     1      34.490 -15.854 -21.925  0.00  0.00    -0.302 N 
ATOM     11  C   UNL     1      33.978 -14.811 -21.160  0.00  0.00    +0.252 C 
ATOM     12  H   UNL     1      34.527 -15.748 -22.902  0.00  0.00    +0.150 HD
BRANCH  11  15
ATOM     13 CL   UNL     1      31.354 -10.149 -22.564  0.00  0.00    -0.075 Cl
ATOM     14  S   UNL     1      32.375 -12.565 -21.172  0.00  0.00    -0.071 S 
ATOM     15  C   UNL     1      33.502 -13.621 -21.911  0.00  0.00    +0.084 C 
ATOM     16  C   UNL     1      33.845 -13.207 -23.179  0.00  0.00    +0.012 C 
ATOM     17  C   UNL     1      33.173 -12.007 -23.550  0.00  0.00    +0.019 C 
ATOM     18  C   UNL     1      32.343 -11.549 -22.550  0.00  0.00    +0.087 C 
ENDBRANCH  11  15
ENDBRANCH   4  10
ENDBRANCH   1   3
BRANCH   1  21
ATOM     19  O   UNL     1      32.425 -21.012 -18.735  0.00  0.00    -0.277 OA
ATOM     20  N   UNL     1      34.761 -21.145 -18.931  0.00  0.00    -0.284 N 
ATOM     21  C   UNL     1      33.466 -20.878 -19.370  0.00  0.00    +0.205 C 
ATOM     22  H   UNL     1      35.483 -20.984 -19.580  0.00  0.00    +0.155 HD
BRANCH  20  24
ATOM     23  F   UNL     1      37.037 -20.165 -17.654  0.00  0.00    -0.203 F 
ATOM     24  C   UNL     1      35.159 -21.621 -17.659  0.00  0.00    +0.078 C 
ATOM     25  C   UNL     1      36.304 -21.110 -17.046  0.00  0.00    +0.155 C 
ATOM     26  C   UNL     1      34.405 -22.604 -17.017  0.00  0.00    +0.018 C 
ATOM     27  C   UNL     1      35.940 -22.563 -15.151  0.00  0.00    +0.061 C 
ATOM     28  C   UNL     1      36.694 -21.581 -15.793  0.00  0.00    +0.046 C 
ATOM     29  C   UNL     1      34.795 -23.074 -15.763  0.00  0.00    +0.017 C 
BRANCH  27  31
ATOM     30  O   UNL     1      38.448 -23.879 -14.566  0.00  0.00    -0.269 OA
ATOM     31  N   UNL     1      36.346 -23.052 -13.848  0.00  0.00    -0.233 N 
ATOM     32  C   UNL     1      37.590 -23.719 -13.699  0.00  0.00    +0.257 C 
ATOM     33  C   UNL     1      35.531 -22.854 -12.731  0.00  0.00    +0.072 C 
ATOM     34  C   UNL     1      37.910 -24.233 -12.331  0.00  0.00    +0.059 C 
ATOM     35  C   UNL     1      35.855 -23.295 -11.511  0.00  0.00    +0.017 C 
ATOM     36  C   UNL     1      37.078 -24.011 -11.310  0.00  0.00    +0.006 C 
ENDBRANCH  27  31
ENDBRANCH  20  24
ENDBRANCH   1  21
TORSDOF 6
ENDMDL
MODEL 5
REMARK VINA RESULT:     -12.4      4.971     12.125
REMARK  Name = 42628063
REMARK  6 active torsions:
REMARK  status: ('A' for Active; 'I' for Inactive)
REMARK    1  A    between atoms: C_1  and  N_3
REMARK    2  A    between atoms: C_1  and  C_21
REMARK    3  A    between atoms: C_4  and  N_10
REMARK    4  A    between atoms: C_11  and  C_15
REMARK    5  A    between atoms: N_20  and  C_24
REMARK    6  A    between atoms: C_27  and  N_31
REMARK                            x       y       z     vdW  Elec       q    Type
REMARK                         _______ _______ _______ _____ _____    ______ ____
ROOT
ATOM      1  C   UNL     1      34.299 -20.018 -21.029  0.00  0.00    +0.010 C 
ENDROOT
BRANCH   1   3
ATOM      2  F   UNL     1      35.201 -16.897 -24.110  0.00  0.00    -0.238 F 
ATOM      3  N   UNL     1      34.690 -18.776 -21.679  0.00  0.00    +0.396 N 
ATOM      4  C   UNL     1      34.551 -16.473 -21.895  0.00  0.00    +0.082 C 
ATOM      5  C   UNL     1      34.177 -17.095 -23.237  0.00  0.00    +0.156 C 
ATOM      6  C   UNL     1      34.339 -17.596 -20.887  0.00  0.00    -0.054 C 
ATOM      7  C   UNL     1      34.023 -18.587 -22.971  0.00  0.00    -0.039 C 
ATOM      8  H   UNL     1      35.699 -18.863 -21.791  0.00  0.00    -0.079 HD
BRANCH   4  10
ATOM      9  O   UNL     1      34.377 -14.056 -23.434  0.00  0.00    -0.270 OA
ATOM     10  N   UNL     1      33.770 -15.310 -21.579  0.00  0.00    -0.302 N 
ATOM     11  C   UNL     1      33.746 -14.178 -22.387  0.00  0.00    +0.252 C 
ATOM     12  H   UNL     1      33.228 -15.313 -20.757  0.00  0.00    +0.150 HD
BRANCH  11  15
ATOM     13 CL   UNL     1      30.971  -9.401 -22.112  0.00  0.00    -0.075 Cl
ATOM     14  S   UNL     1      32.635 -11.714 -22.946  0.00  0.00    -0.071 S 
ATOM     15  C   UNL     1      32.907 -13.049 -21.909  0.00  0.00    +0.084 C 
ATOM     16  C   UNL     1      32.275 -12.898 -20.695  0.00  0.00    +0.012 C 
ATOM     17  C   UNL     1      31.558 -11.669 -20.613  0.00  0.00    +0.019 C 
ATOM     18  C   UNL     1      31.669 -10.929 -21.771  0.00  0.00    +0.087 C 
ENDBRANCH  11  15
ENDBRANCH   4  10
ENDBRANCH   1   3
BRANCH   1  21
ATOM     19  O   UNL     1      36.248 -19.670 -19.650  0.00  0.00    -0.277 OA
ATOM     20  N   UNL     1      34.591 -21.183 -18.963  0.00  0.00    -0.284 N 
ATOM     21  C   UNL     1      35.181 -20.251 -19.813  0.00  0.00    +0.205 C 
ATOM     22  H   UNL     1      33.723 -21.547 -19.251  0.00  0.00    +0.155 HD
BRANCH  20  24
ATOM     23  F   UNL     1      32.985 -22.623 -17.196  0.00  0.00    -0.203 F 
ATOM     24  C   UNL     1      35.094 -21.667 -17.732  0.00  0.00    +0.078 C 
ATOM     25  C   UNL     1      34.264 -22.385 -16.869  0.00  0.00    +0.155 C 
ATOM     26  C   UNL     1      36.422 -21.426 -17.380  0.00  0.00    +0.018 C 
ATOM     27  C   UNL     1      36.090 -22.620 -15.306  0.00  0.00    +0.061 C 
ATOM     28  C   UNL     1      34.762 -22.861 -15.657  0.00  0.00    +0.046 C 
ATOM     29  C   UNL     1      36.920 -21.903 -16.167  0.00  0.00    +0.017 C 
BRANCH  27  31
ATOM     30  O   UNL     1      37.379 -25.179 -14.918  0.00  0.00    -0.269 OA
ATOM     31  N   UNL     1      36.608 -23.115 -14.045  0.00  0.00    -0.233 N 
ATOM     32  C   UNL     1      37.185 -24.409 -13.977  0.00  0.00    +0.257 C 
ATOM     33  C   UNL     1      36.564 -22.318 -12.899  0.00  0.00    +0.072 C 
ATOM     34  C   UNL     1      37.652 -24.860 -12.630  0.00  0.00    +0.059 C 
ATOM     35  C   UNL     1      37.018 -22.732 -11.711  0.00  0.00    +0.017 C 
ATOM     36  C   UNL     1      37.572 -24.045 -11.575  0.00  0.00    +0.006 C 
ENDBRANCH  27  31
ENDBRANCH  20  24
ENDBRANCH   1  21
TORSDOF 6
ENDMDL
MODEL 6
REMARK VINA RESULT:     -12.2      3.606      5.901
REMARK  Name = 42628063
REMARK  6 active torsions:
REMARK  status: ('A' for Active; 'I' for Inactive)
REMARK    1  A    between atoms: C_1  and  N_3
REMARK    2  A    between atoms: C_1  and  C_21
REMARK    3  A    between atoms: C_4  and  N_10
REMARK    4  A    between atoms: C_11  and  C_15
REMARK    5  A    between atoms: N_20  and  C_24
REMARK    6  A    between atoms: C_27  and  N_31
REMARK                            x       y       z     vdW  Elec       q    Type
REMARK                         _______ _______ _______ _____ _____    ______ ____
ROOT
ATOM      1  C   UNL     1      33.526 -17.505 -24.252  0.00  0.00    +0.010 C 
ENDROOT
BRANCH   1   3
ATOM      2  F   UNL     1      36.596 -17.870 -21.014  0.00  0.00    -0.238 F 
ATOM      3  N   UNL     1      34.431 -18.041 -23.246  0.00  0.00    +0.396 N 
ATOM      4  C   UNL     1      34.843 -19.382 -21.402  0.00  0.00    +0.082 C 
ATOM      5  C   UNL     1      35.239 -17.953 -21.042  0.00  0.00    +0.156 C 
ATOM      6  C   UNL     1      33.887 -19.223 -22.577  0.00  0.00    -0.054 C 
ATOM      7  C   UNL     1      34.706 -17.081 -22.171  0.00  0.00    -0.039 C 
ATOM      8  H   UNL     1      35.277 -18.264 -23.769  0.00  0.00    -0.079 HD
BRANCH   4  10
ATOM      9  O   UNL     1      36.164 -21.157 -19.572  0.00  0.00    -0.270 OA
ATOM     10  N   UNL     1      34.240 -20.089 -20.306  0.00  0.00    -0.302 N 
ATOM     11  C   UNL     1      34.961 -20.932 -19.468  0.00  0.00    +0.252 C 
ATOM     12  H   UNL     1      33.277 -19.971 -20.142  0.00  0.00    +0.150 HD
BRANCH  11  15
ATOM     13 CL   UNL     1      33.541 -23.395 -14.724  0.00  0.00    -0.075 Cl
ATOM     14  S   UNL     1      34.979 -22.046 -16.943  0.00  0.00    -0.071 S 
ATOM     15  C   UNL     1      34.186 -21.609 -18.396  0.00  0.00    +0.084 C 
ATOM     16  C   UNL     1      32.854 -21.959 -18.384  0.00  0.00    +0.012 C 
ATOM     17  C   UNL     1      32.478 -22.595 -17.166  0.00  0.00    +0.019 C 
ATOM     18  C   UNL     1      33.539 -22.706 -16.292  0.00  0.00    +0.087 C 
ENDBRANCH  11  15
ENDBRANCH   4  10
ENDBRANCH   1   3
BRANCH   1  21
ATOM     19  O   UNL     1      34.642 -15.628 -25.279  0.00  0.00    -0.277 OA
ATOM     20  N   UNL     1      33.031 -15.256 -23.613  0.00  0.00    -0.284 N 
ATOM     21  C   UNL     1      33.820 -16.029 -24.461  0.00  0.00    +0.205 C 
ATOM     22  H   UNL     1      32.418 -15.748 -23.020  0.00  0.00    +0.155 HD
BRANCH  20  24
ATOM     23  F   UNL     1      33.646 -13.968 -21.218  0.00  0.00    -0.203 F 
ATOM     24  C   UNL     1      33.007 -13.845 -23.504  0.00  0.00    +0.078 C 
ATOM     25  C   UNL     1      33.320 -13.231 -22.290  0.00  0.00    +0.155 C 
ATOM     26  C   UNL     1      32.670 -13.067 -24.611  0.00  0.00    +0.018 C 
ATOM     27  C   UNL     1      32.960 -11.064 -23.293  0.00  0.00    +0.061 C 
ATOM     28  C   UNL     1      33.296 -11.841 -22.185  0.00  0.00    +0.046 C 
ATOM     29  C   UNL     1      32.646 -11.677 -24.506  0.00  0.00    +0.017 C 
BRANCH  27  31
ATOM     30  O   UNL     1      30.744  -9.501 -22.289  0.00  0.00    -0.269 OA
ATOM     31  N   UNL     1      32.935  -9.618 -23.184  0.00  0.00    -0.233 N 
ATOM     32  C   UNL     1      31.768  -8.964 -22.711  0.00  0.00    +0.257 C 
ATOM     33  C   UNL     1      34.060  -8.862 -23.521  0.00  0.00    +0.072 C 
ATOM     34  C   UNL     1      31.810  -7.469 -22.674  0.00  0.00    +0.059 C 
ATOM     35  C   UNL     1      34.084  -7.527 -23.448  0.00  0.00    +0.017 C 
ATOM     36  C   UNL     1      32.920  -6.812 -23.017  0.00  0.00    +0.006 C 
ENDBRANCH  27  31
ENDBRANCH  20  24
ENDBRANCH   1  21
TORSDOF 6
ENDMDL
MODEL 7
REMARK VINA RESULT:     -12.2      3.719      6.103
REMARK  Name = 42628063
REMARK  6 active torsions:
REMARK  status: ('A' for Active; 'I' for Inactive)
REMARK    1  A    between atoms: C_1  and  N_3
REMARK    2  A    between atoms: C_1  and  C_21
REMARK    3  A    between atoms: C_4  and  N_10
REMARK    4  A    between atoms: C_11  and  C_15
REMARK    5  A    between atoms: N_20  and  C_24
REMARK    6  A    between atoms: C_27  and  N_31
REMARK                            x       y       z     vdW  Elec       q    Type
REMARK                         _______ _______ _______ _____ _____    ______ ____
ROOT
ATOM      1  C   UNL     1      33.579 -17.148 -24.335  0.00  0.00    +0.010 C 
ENDROOT
BRANCH   1   3
ATOM      2  F   UNL     1      36.669 -17.840 -21.170  0.00  0.00    -0.238 F 
ATOM      3  N   UNL     1      34.466 -17.782 -23.371  0.00  0.00    +0.396 N 
ATOM      4  C   UNL     1      34.828 -19.231 -21.600  0.00  0.00    +0.082 C 
ATOM      5  C   UNL     1      35.309 -17.845 -21.180  0.00  0.00    +0.156 C 
ATOM      6  C   UNL     1      33.865 -18.963 -22.750  0.00  0.00    -0.054 C 
ATOM      7  C   UNL     1      34.809 -16.891 -22.257  0.00  0.00    -0.039 C 
ATOM      8  H   UNL     1      35.290 -18.027 -23.919  0.00  0.00    -0.079 HD
BRANCH   4  10
ATOM      9  O   UNL     1      36.134 -20.908 -19.670  0.00  0.00    -0.270 OA
ATOM     10  N   UNL     1      34.201 -19.955 -20.529  0.00  0.00    -0.302 N 
ATOM     11  C   UNL     1      34.917 -20.747 -19.637  0.00  0.00    +0.252 C 
ATOM     12  H   UNL     1      33.225 -19.888 -20.421  0.00  0.00    +0.150 HD
BRANCH  11  15
ATOM     13 CL   UNL     1      33.424 -23.458 -15.053  0.00  0.00    -0.075 Cl
ATOM     14  S   UNL     1      34.907 -22.043 -17.200  0.00  0.00    -0.071 S 
ATOM     15  C   UNL     1      34.119 -21.451 -18.600  0.00  0.00    +0.084 C 
ATOM     16  C   UNL     1      32.767 -21.716 -18.584  0.00  0.00    +0.012 C 
ATOM     17  C   UNL     1      32.373 -22.416 -17.407  0.00  0.00    +0.019 C 
ATOM     18  C   UNL     1      33.439 -22.657 -16.568  0.00  0.00    +0.087 C 
ENDBRANCH  11  15
ENDBRANCH   4  10
ENDBRANCH   1   3
BRANCH   1  21
ATOM     19  O   UNL     1      34.862 -15.212 -24.986  0.00  0.00    -0.277 OA
ATOM     20  N   UNL     1      32.903 -14.939 -23.722  0.00  0.00    -0.284 N 
ATOM     21  C   UNL     1      33.883 -15.661 -24.400  0.00  0.00    +0.205 C 
ATOM     22  H   UNL     1      32.180 -15.466 -23.312  0.00  0.00    +0.155 HD
BRANCH  20  24
ATOM     23  F   UNL     1      32.637 -13.223 -25.903  0.00  0.00    -0.203 F 
ATOM     24  C   UNL     1      32.826 -13.536 -23.555  0.00  0.00    +0.078 C 
ATOM     25  C   UNL     1      32.693 -12.704 -24.667  0.00  0.00    +0.155 C 
ATOM     26  C   UNL     1      32.884 -12.984 -22.275  0.00  0.00    +0.018 C 
ATOM     27  C   UNL     1      32.674 -10.770 -23.221  0.00  0.00    +0.061 C 
ATOM     28  C   UNL     1      32.617 -11.322 -24.500  0.00  0.00    +0.046 C 
ATOM     29  C   UNL     1      32.808 -11.601 -22.108  0.00  0.00    +0.017 C 
BRANCH  27  31
ATOM     30  O   UNL     1      34.832  -8.907 -23.708  0.00  0.00    -0.269 OA
ATOM     31  N   UNL     1      32.596  -9.333 -23.046  0.00  0.00    -0.233 N 
ATOM     32  C   UNL     1      33.741  -8.528 -23.282  0.00  0.00    +0.257 C 
ATOM     33  C   UNL     1      31.394  -8.729 -22.670  0.00  0.00    +0.072 C 
ATOM     34  C   UNL     1      33.586  -7.061 -23.034  0.00  0.00    +0.059 C 
ATOM     35  C   UNL     1      31.272  -7.410 -22.487  0.00  0.00    +0.017 C 
ATOM     36  C   UNL     1      32.406  -6.555 -22.668  0.00  0.00    +0.006 C 
ENDBRANCH  27  31
ENDBRANCH  20  24
ENDBRANCH   1  21
TORSDOF 6
ENDMDL
MODEL 8
REMARK VINA RESULT:     -11.9      2.887      4.392
REMARK  Name = 42628063
REMARK  6 active torsions:
REMARK  status: ('A' for Active; 'I' for Inactive)
REMARK    1  A    between atoms: C_1  and  N_3
REMARK    2  A    between atoms: C_1  and  C_21
REMARK    3  A    between atoms: C_4  and  N_10
REMARK    4  A    between atoms: C_11  and  C_15
REMARK    5  A    between atoms: N_20  and  C_24
REMARK    6  A    between atoms: C_27  and  N_31
REMARK                            x       y       z     vdW  Elec       q    Type
REMARK                         _______ _______ _______ _____ _____    ______ ____
ROOT
ATOM      1  C   UNL     1      31.797 -23.588 -16.086  0.00  0.00    +0.010 C 
ENDROOT
BRANCH   1   3
ATOM      2  F   UNL     1      33.402 -22.975 -11.952  0.00  0.00    -0.238 F 
ATOM      3  N   UNL     1      32.608 -23.155 -14.958  0.00  0.00    +0.396 N 
ATOM      4  C   UNL     1      34.666 -22.890 -13.927  0.00  0.00    +0.082 C 
ATOM      5  C   UNL     1      33.787 -23.736 -13.011  0.00  0.00    +0.156 C 
ATOM      6  C   UNL     1      34.025 -23.033 -15.301  0.00  0.00    -0.054 C 
ATOM      7  C   UNL     1      32.562 -24.103 -13.839  0.00  0.00    -0.039 C 
ATOM      8  H   UNL     1      32.208 -22.254 -14.698  0.00  0.00    -0.079 HD
BRANCH   4  10
ATOM      9  O   UNL     1      35.753 -25.212 -15.218  0.00  0.00    -0.270 OA
ATOM     10  N   UNL     1      36.041 -23.307 -13.926  0.00  0.00    -0.302 N 
ATOM     11  C   UNL     1      36.479 -24.452 -14.582  0.00  0.00    +0.252 C 
ATOM     12  H   UNL     1      36.700 -22.760 -13.442  0.00  0.00    +0.150 HD
BRANCH  11  15
ATOM     13 CL   UNL     1      41.273 -26.959 -13.433  0.00  0.00    -0.075 Cl
ATOM     14  S   UNL     1      38.412 -26.224 -13.721  0.00  0.00    -0.071 S 
ATOM     15  C   UNL     1      37.928 -24.760 -14.465  0.00  0.00    +0.084 C 
ATOM     16  C   UNL     1      39.005 -24.013 -14.887  0.00  0.00    +0.012 C 
ATOM     17  C   UNL     1      40.246 -24.650 -14.594  0.00  0.00    +0.019 C 
ATOM     18  C   UNL     1      40.068 -25.862 -13.960  0.00  0.00    +0.087 C 
ENDBRANCH  11  15
ENDBRANCH   4  10
ENDBRANCH   1   3
BRANCH   1  21
ATOM     19  O   UNL     1      30.650 -21.778 -17.193  0.00  0.00    -0.277 OA
ATOM     20  N   UNL     1      32.853 -22.308 -17.806  0.00  0.00    -0.284 N 
ATOM     21  C   UNL     1      31.670 -22.450 -17.084  0.00  0.00    +0.205 C 
ATOM     22  H   UNL     1      33.577 -22.936 -17.582  0.00  0.00    +0.155 HD
BRANCH  20  24
ATOM     23  F   UNL     1      35.467 -21.773 -18.614  0.00  0.00    -0.203 F 
ATOM     24  C   UNL     1      33.135 -21.366 -18.824  0.00  0.00    +0.078 C 
ATOM     25  C   UNL     1      34.455 -21.121 -19.205  0.00  0.00    +0.155 C 
ATOM     26  C   UNL     1      32.091 -20.682 -19.446  0.00  0.00    +0.018 C 
ATOM     27  C   UNL     1      33.686 -19.509 -20.831  0.00  0.00    +0.061 C 
ATOM     28  C   UNL     1      34.730 -20.193 -20.208  0.00  0.00    +0.046 C 
ATOM     29  C   UNL     1      32.367 -19.754 -20.450  0.00  0.00    +0.017 C 
BRANCH  27  31
ATOM     30  O   UNL     1      35.093 -17.010 -20.457  0.00  0.00    -0.269 OA
ATOM     31  N   UNL     1      33.972 -18.544 -21.875  0.00  0.00    -0.233 N 
ATOM     32  C   UNL     1      34.638 -17.332 -21.554  0.00  0.00    +0.257 C 
ATOM     33  C   UNL     1      33.618 -18.806 -23.200  0.00  0.00    +0.072 C 
ATOM     34  C   UNL     1      34.852 -16.371 -22.680  0.00  0.00    +0.059 C 
ATOM     35  C   UNL     1      33.850 -17.945 -24.196  0.00  0.00    +0.017 C 
ATOM     36  C   UNL     1      34.480 -16.688 -23.923  0.00  0.00    +0.006 C 
ENDBRANCH  27  31
ENDBRANCH  20  24
ENDBRANCH   1  21
TORSDOF 6
ENDMDL
MODEL 9
REMARK VINA RESULT:     -11.8      5.398     11.599
REMARK  Name = 42628063
REMARK  6 active torsions:
REMARK  status: ('A' for Active; 'I' for Inactive)
REMARK    1  A    between atoms: C_1  and  N_3
REMARK    2  A    between atoms: C_1  and  C_21
REMARK    3  A    between atoms: C_4  and  N_10
REMARK    4  A    between atoms: C_11  and  C_15
REMARK    5  A    between atoms: N_20  and  C_24
REMARK    6  A    between atoms: C_27  and  N_31
REMARK                            x       y       z     vdW  Elec       q    Type
REMARK                         _______ _______ _______ _____ _____    ______ ____
ROOT
ATOM      1  C   UNL     1      35.985 -19.505 -21.492  0.00  0.00    +0.010 C 
ENDROOT
BRANCH   1   3
ATOM      2  F   UNL     1      34.059 -17.190 -24.804  0.00  0.00    -0.238 F 
ATOM      3  N   UNL     1      35.572 -18.429 -22.380  0.00  0.00    +0.396 N 
ATOM      4  C   UNL     1      34.702 -16.309 -22.726  0.00  0.00    +0.082 C 
ATOM      5  C   UNL     1      33.820 -17.307 -23.470  0.00  0.00    +0.156 C 
ATOM      6  C   UNL     1      35.424 -17.152 -21.682  0.00  0.00    -0.054 C 
ATOM      7  C   UNL     1      34.266 -18.685 -22.998  0.00  0.00    -0.039 C 
ATOM      8  H   UNL     1      36.312 -18.388 -23.080  0.00  0.00    -0.079 HD
BRANCH   4  10
ATOM      9  O   UNL     1      33.561 -14.055 -24.088  0.00  0.00    -0.270 OA
ATOM     10  N   UNL     1      33.955 -15.236 -22.131  0.00  0.00    -0.302 N 
ATOM     11  C   UNL     1      33.437 -14.179 -22.873  0.00  0.00    +0.252 C 
ATOM     12  H   UNL     1      33.803 -15.249 -21.159  0.00  0.00    +0.150 HD
BRANCH  11  15
ATOM     13 CL   UNL     1      30.862  -9.495 -21.453  0.00  0.00    -0.075 Cl
ATOM     14  S   UNL     1      32.319 -11.656 -22.874  0.00  0.00    -0.071 S 
ATOM     15  C   UNL     1      32.710 -13.135 -22.106  0.00  0.00    +0.084 C 
ATOM     16  C   UNL     1      32.273 -13.172 -20.800  0.00  0.00    +0.012 C 
ATOM     17  C   UNL     1      31.608 -11.968 -20.424  0.00  0.00    +0.019 C 
ATOM     18  C   UNL     1      31.562 -11.059 -21.459  0.00  0.00    +0.087 C 
ENDBRANCH  11  15
ENDBRANCH   4  10
ENDBRANCH   1   3
BRANCH   1  21
ATOM     19  O   UNL     1      33.913 -19.033 -20.350  0.00  0.00    -0.277 OA
ATOM     20  N   UNL     1      35.190 -20.900 -19.722  0.00  0.00    -0.284 N 
ATOM     21  C   UNL     1      34.896 -19.758 -20.464  0.00  0.00    +0.205 C 
ATOM     22  H   UNL     1      36.025 -21.366 -19.954  0.00  0.00    +0.155 HD
BRANCH  20  24
ATOM     23  F   UNL     1      36.368 -21.682 -17.319  0.00  0.00    -0.203 F 
ATOM     24  C   UNL     1      34.427 -21.468 -18.674  0.00  0.00    +0.078 C 
ATOM     25  C   UNL     1      35.047 -21.850 -17.483  0.00  0.00    +0.155 C 
ATOM     26  C   UNL     1      33.053 -21.648 -18.832  0.00  0.00    +0.018 C 
ATOM     27  C   UNL     1      32.920 -22.588 -16.611  0.00  0.00    +0.061 C 
ATOM     28  C   UNL     1      34.294 -22.409 -16.452  0.00  0.00    +0.046 C 
ATOM     29  C   UNL     1      32.300 -22.208 -17.801  0.00  0.00    +0.017 C 
BRANCH  27  31
ATOM     30  O   UNL     1      30.035 -22.514 -16.419  0.00  0.00    -0.269 OA
ATOM     31  N   UNL     1      32.136 -23.170 -15.538  0.00  0.00    -0.233 N 
ATOM     32  C   UNL     1      30.724 -23.031 -15.539  0.00  0.00    +0.257 C 
ATOM     33  C   UNL     1      32.758 -23.887 -14.514  0.00  0.00    +0.072 C 
ATOM     34  C   UNL     1      29.996 -23.620 -14.373  0.00  0.00    +0.059 C 
ATOM     35  C   UNL     1      32.082 -24.434 -13.498  0.00  0.00    +0.017 C 
ATOM     36  C   UNL     1      30.659 -24.288 -13.425  0.00  0.00    +0.006 C 
ENDBRANCH  27  31
ENDBRANCH  20  24
ENDBRANCH   1  21
TORSDOF 6
ENDMDL
