MODEL 1
REMARK VINA RESULT:     -12.5      0.000      0.000
REMARK  Name = 5288250
REMARK  9 active torsions:
REMARK  status: ('A' for Active; 'I' for Inactive)
REMARK    1  A    between atoms: C_1  and  N_3
REMARK    2  A    between atoms: C_1  and  C_20
REMARK    3  A    between atoms: C_1  and  C_23
REMARK    4  A    between atoms: C_4  and  C_6
REMARK    5  A    between atoms: C_6  and  C_10
REMARK    6  A    between atoms: C_20  and  O_21
REMARK    7  A    between atoms: C_23  and  C_24
REMARK    8  A    between atoms: C_29  and  C_30
REMARK    9  A    between atoms: C_31  and  C_32
REMARK                            x       y       z     vdW  Elec       q    Type
REMARK                         _______ _______ _______ _____ _____    ______ ____
ROOT
ATOM      1  C   UNL     1      35.089 -21.567 -18.092  0.00  0.00    +0.176 C 
ENDROOT
BRANCH   1   3
ATOM      2  O   UNL     1      37.125 -19.995 -16.765  0.00  0.00    -0.275 OA
ATOM      3  N   UNL     1      36.091 -22.038 -17.165  0.00  0.00    -0.297 N 
ATOM      4  C   UNL     1      37.031 -21.205 -16.576  0.00  0.00    +0.223 C 
ATOM      5  H   UNL     1      36.108 -22.997 -16.940  0.00  0.00    +0.150 HD
BRANCH   4   6
ATOM      6  C   UNL     1      37.946 -21.979 -15.650  0.00  0.00    +0.087 C 
BRANCH   6  10
ATOM      7  N   UNL     1      35.897 -23.830 -13.032  0.00  0.00    -0.282 N 
ATOM      8  N   UNL     1      33.782 -23.177 -13.585  0.00  0.00    -0.331 N 
ATOM      9  N   UNL     1      34.125 -24.441 -11.636  0.00  0.00    -0.273 NA
ATOM     10  C   UNL     1      37.232 -23.147 -14.974  0.00  0.00    +0.029 C 
ATOM     11  C   UNL     1      38.220 -24.280 -14.659  0.00  0.00    +0.004 C 
ATOM     12  C   UNL     1      36.516 -22.685 -13.697  0.00  0.00    +0.094 C 
ATOM     13  C   UNL     1      37.523 -25.422 -13.921  0.00  0.00    +0.022 C 
ATOM     14  C   UNL     1      36.802 -24.919 -12.674  0.00  0.00    +0.093 C 
ATOM     15  C   UNL     1      34.585 -23.846 -12.699  0.00  0.00    +0.174 C 
ATOM     16  H   UNL     1      34.175 -22.742 -14.375  0.00  0.00    +0.145 HD
ATOM     17  H   UNL     1      32.810 -23.132 -13.431  0.00  0.00    +0.145 HD
ATOM     18  H   UNL     1      34.742 -24.909 -11.028  0.00  0.00    +0.189 HD
ENDBRANCH   6  10
ENDBRANCH   4   6
ENDBRANCH   1   3
BRANCH   1  20
ATOM     19  O   UNL     1      33.321 -22.882 -19.083  0.00  0.00    -0.248 OA
ATOM     20  C   UNL     1      33.827 -22.419 -18.066  0.00  0.00    +0.335 C 
BRANCH  20  21
ATOM     21  O   UNL     1      33.340 -22.578 -16.803  0.00  0.00    -0.443 OA
ATOM     22  C   UNL     1      31.927 -22.779 -16.704  0.00  0.00    +0.256 C 
ENDBRANCH  20  21
ENDBRANCH   1  20
BRANCH   1  23
ATOM     23  C   UNL     1      35.660 -21.428 -19.511  0.00  0.00    +0.057 C 
BRANCH  23  24
ATOM     24  C   UNL     1      35.296 -20.141 -20.216  0.00  0.00    -0.020 C 
ATOM     25  C   UNL     1      36.260 -19.151 -20.405  0.00  0.00    -0.004 C 
ATOM     26  C   UNL     1      33.994 -19.944 -20.678  0.00  0.00    -0.004 C 
ATOM     27  C   UNL     1      35.923 -17.964 -21.055  0.00  0.00    +0.008 C 
ATOM     28  C   UNL     1      33.657 -18.757 -21.329  0.00  0.00    +0.008 C 
ATOM     29  C   UNL     1      34.621 -17.767 -21.517  0.00  0.00    +0.042 C 
BRANCH  29  30
ATOM     30  C   UNL     1      34.276 -16.550 -22.183  0.00  0.00    -0.060 C 
ATOM     31  C   UNL     1      33.988 -15.527 -22.741  0.00  0.00    -0.060 C 
BRANCH  31  32
ATOM     32  C   UNL     1      33.643 -14.309 -23.408  0.00  0.00    +0.042 C 
ATOM     33  C   UNL     1      33.785 -13.089 -22.747  0.00  0.00    +0.008 C 
ATOM     34  C   UNL     1      33.164 -14.342 -24.717  0.00  0.00    +0.008 C 
ATOM     35  C   UNL     1      33.450 -11.900 -23.396  0.00  0.00    +0.001 C 
ATOM     36  C   UNL     1      32.828 -13.153 -25.366  0.00  0.00    +0.001 C 
ATOM     37  C   UNL     1      32.971 -11.933 -24.705  0.00  0.00    +0.000 C 
ENDBRANCH  31  32
ENDBRANCH  29  30
ENDBRANCH  23  24
ENDBRANCH   1  23
TORSDOF 9
ENDMDL
MODEL 2
REMARK VINA RESULT:     -11.8      2.920      5.610
REMARK  Name = 5288250
REMARK  9 active torsions:
REMARK  status: ('A' for Active; 'I' for Inactive)
REMARK    1  A    between atoms: C_1  and  N_3
REMARK    2  A    between atoms: C_1  and  C_20
REMARK    3  A    between atoms: C_1  and  C_23
REMARK    4  A    between atoms: C_4  and  C_6
REMARK    5  A    between atoms: C_6  and  C_10
REMARK    6  A    between atoms: C_20  and  O_21
REMARK    7  A    between atoms: C_23  and  C_24
REMARK    8  A    between atoms: C_29  and  C_30
REMARK    9  A    between atoms: C_31  and  C_32
REMARK                            x       y       z     vdW  Elec       q    Type
REMARK                         _______ _______ _______ _____ _____    ______ ____
ROOT
ATOM      1  C   UNL     1      35.201 -24.510 -15.259  0.00  0.00    +0.176 C 
ENDROOT
BRANCH   1   3
ATOM      2  O   UNL     1      34.826 -22.970 -12.837  0.00  0.00    -0.275 OA
ATOM      3  N   UNL     1      33.999 -24.410 -14.464  0.00  0.00    -0.297 N 
ATOM      4  C   UNL     1      33.914 -23.641 -13.312  0.00  0.00    +0.223 C 
ATOM      5  H   UNL     1      33.202 -24.909 -14.755  0.00  0.00    +0.150 HD
BRANCH   4   6
ATOM      6  C   UNL     1      32.533 -23.728 -12.697  0.00  0.00    +0.087 C 
BRANCH   6  10
ATOM      7  N   UNL     1      29.706 -22.970 -15.128  0.00  0.00    -0.282 N 
ATOM      8  N   UNL     1      30.866 -22.133 -16.905  0.00  0.00    -0.331 N 
ATOM      9  N   UNL     1      28.519 -22.068 -16.928  0.00  0.00    -0.273 NA
ATOM     10  C   UNL     1      31.450 -23.995 -13.739  0.00  0.00    +0.029 C 
ATOM     11  C   UNL     1      30.401 -24.977 -13.196  0.00  0.00    +0.004 C 
ATOM     12  C   UNL     1      30.783 -22.685 -14.181  0.00  0.00    +0.094 C 
ATOM     13  C   UNL     1      29.280 -25.194 -14.211  0.00  0.00    +0.022 C 
ATOM     14  C   UNL     1      28.661 -23.869 -14.644  0.00  0.00    +0.093 C 
ATOM     15  C   UNL     1      29.641 -22.378 -16.343  0.00  0.00    +0.174 C 
ATOM     16  H   UNL     1      31.687 -22.384 -16.425  0.00  0.00    +0.145 HD
ATOM     17  H   UNL     1      30.924 -21.704 -17.790  0.00  0.00    +0.145 HD
ATOM     18  H   UNL     1      27.662 -22.265 -16.483  0.00  0.00    +0.189 HD
ENDBRANCH   6  10
ENDBRANCH   4   6
ENDBRANCH   1   3
BRANCH   1  20
ATOM     19  O   UNL     1      35.973 -26.799 -15.218  0.00  0.00    -0.248 OA
ATOM     20  C   UNL     1      36.103 -25.650 -14.807  0.00  0.00    +0.335 C 
BRANCH  20  21
ATOM     21  O   UNL     1      37.033 -25.242 -13.900  0.00  0.00    -0.443 OA
ATOM     22  C   UNL     1      36.924 -25.819 -12.595  0.00  0.00    +0.256 C 
ENDBRANCH  20  21
ENDBRANCH   1  20
BRANCH   1  23
ATOM     23  C   UNL     1      35.950 -23.170 -15.311  0.00  0.00    +0.057 C 
BRANCH  23  24
ATOM     24  C   UNL     1      35.668 -22.336 -16.541  0.00  0.00    -0.020 C 
ATOM     25  C   UNL     1      36.625 -21.436 -17.008  0.00  0.00    -0.004 C 
ATOM     26  C   UNL     1      34.451 -22.469 -17.209  0.00  0.00    -0.004 C 
ATOM     27  C   UNL     1      36.365 -20.666 -18.142  0.00  0.00    +0.008 C 
ATOM     28  C   UNL     1      34.190 -21.700 -18.343  0.00  0.00    +0.008 C 
ATOM     29  C   UNL     1      35.147 -20.799 -18.810  0.00  0.00    +0.042 C 
BRANCH  29  30
ATOM     30  C   UNL     1      34.880 -20.011 -19.972  0.00  0.00    -0.060 C 
ATOM     31  C   UNL     1      34.654 -19.349 -20.948  0.00  0.00    -0.060 C 
BRANCH  31  32
ATOM     32  C   UNL     1      34.386 -18.559 -22.111  0.00  0.00    +0.042 C 
ATOM     33  C   UNL     1      33.782 -19.141 -23.224  0.00  0.00    +0.008 C 
ATOM     34  C   UNL     1      34.731 -17.207 -22.130  0.00  0.00    +0.008 C 
ATOM     35  C   UNL     1      33.520 -18.372 -24.358  0.00  0.00    +0.001 C 
ATOM     36  C   UNL     1      34.469 -16.438 -23.264  0.00  0.00    +0.001 C 
ATOM     37  C   UNL     1      33.864 -17.021 -24.378  0.00  0.00    +0.000 C 
ENDBRANCH  31  32
ENDBRANCH  29  30
ENDBRANCH  23  24
ENDBRANCH   1  23
TORSDOF 9
ENDMDL
MODEL 3
REMARK VINA RESULT:     -11.3      0.986      2.011
REMARK  Name = 5288250
REMARK  9 active torsions:
REMARK  status: ('A' for Active; 'I' for Inactive)
REMARK    1  A    between atoms: C_1  and  N_3
REMARK    2  A    between atoms: C_1  and  C_20
REMARK    3  A    between atoms: C_1  and  C_23
REMARK    4  A    between atoms: C_4  and  C_6
REMARK    5  A    between atoms: C_6  and  C_10
REMARK    6  A    between atoms: C_20  and  O_21
REMARK    7  A    between atoms: C_23  and  C_24
REMARK    8  A    between atoms: C_29  and  C_30
REMARK    9  A    between atoms: C_31  and  C_32
REMARK                            x       y       z     vdW  Elec       q    Type
REMARK                         _______ _______ _______ _____ _____    ______ ____
ROOT
ATOM      1  C   UNL     1      35.034 -21.617 -18.346  0.00  0.00    +0.176 C 
ENDROOT
BRANCH   1   3
ATOM      2  O   UNL     1      36.885 -19.902 -16.929  0.00  0.00    -0.275 OA
ATOM      3  N   UNL     1      36.046 -22.018 -17.397  0.00  0.00    -0.297 N 
ATOM      4  C   UNL     1      36.892 -21.118 -16.765  0.00  0.00    +0.223 C 
ATOM      5  H   UNL     1      36.140 -22.976 -17.189  0.00  0.00    +0.150 HD
BRANCH   4   6
ATOM      6  C   UNL     1      37.843 -21.828 -15.825  0.00  0.00    +0.087 C 
BRANCH   6  10
ATOM      7  N   UNL     1      36.535 -24.866 -13.942  0.00  0.00    -0.282 N 
ATOM      8  N   UNL     1      38.402 -25.516 -12.804  0.00  0.00    -0.331 N 
ATOM      9  N   UNL     1      36.483 -26.868 -12.737  0.00  0.00    -0.273 NA
ATOM     10  C   UNL     1      37.108 -22.619 -14.744  0.00  0.00    +0.029 C 
ATOM     11  C   UNL     1      35.614 -22.262 -14.729  0.00  0.00    +0.004 C 
ATOM     12  C   UNL     1      37.300 -24.128 -14.946  0.00  0.00    +0.094 C 
ATOM     13  C   UNL     1      34.864 -23.100 -13.695  0.00  0.00    +0.022 C 
ATOM     14  C   UNL     1      35.100 -24.592 -13.913  0.00  0.00    +0.093 C 
ATOM     15  C   UNL     1      37.106 -25.799 -13.145  0.00  0.00    +0.174 C 
ATOM     16  H   UNL     1      38.831 -24.695 -13.136  0.00  0.00    +0.145 HD
ATOM     17  H   UNL     1      38.904 -26.135 -12.225  0.00  0.00    +0.145 HD
ATOM     18  H   UNL     1      35.550 -27.028 -13.010  0.00  0.00    +0.189 HD
ENDBRANCH   6  10
ENDBRANCH   4   6
ENDBRANCH   1   3
BRANCH   1  20
ATOM     19  O   UNL     1      33.444 -23.103 -19.397  0.00  0.00    -0.248 OA
ATOM     20  C   UNL     1      33.847 -22.570 -18.367  0.00  0.00    +0.335 C 
BRANCH  20  21
ATOM     21  O   UNL     1      33.297 -22.735 -17.132  0.00  0.00    -0.443 OA
ATOM     22  C   UNL     1      31.912 -22.393 -17.018  0.00  0.00    +0.256 C 
ENDBRANCH  20  21
ENDBRANCH   1  20
BRANCH   1  23
ATOM     23  C   UNL     1      35.631 -21.410 -19.746  0.00  0.00    +0.057 C 
BRANCH  23  24
ATOM     24  C   UNL     1      35.268 -20.095 -20.400  0.00  0.00    -0.020 C 
ATOM     25  C   UNL     1      33.962 -19.868 -20.834  0.00  0.00    -0.004 C 
ATOM     26  C   UNL     1      36.240 -19.108 -20.567  0.00  0.00    -0.004 C 
ATOM     27  C   UNL     1      33.628 -18.656 -21.437  0.00  0.00    +0.008 C 
ATOM     28  C   UNL     1      35.906 -17.895 -21.169  0.00  0.00    +0.008 C 
ATOM     29  C   UNL     1      34.600 -17.669 -21.604  0.00  0.00    +0.042 C 
BRANCH  29  30
ATOM     30  C   UNL     1      34.257 -16.427 -22.223  0.00  0.00    -0.060 C 
ATOM     31  C   UNL     1      33.968 -15.383 -22.741  0.00  0.00    -0.060 C 
BRANCH  31  32
ATOM     32  C   UNL     1      33.625 -14.139 -23.359  0.00  0.00    +0.042 C 
ATOM     33  C   UNL     1      33.119 -14.123 -24.659  0.00  0.00    +0.008 C 
ATOM     34  C   UNL     1      33.797 -12.943 -22.662  0.00  0.00    +0.008 C 
ATOM     35  C   UNL     1      32.785 -12.910 -25.262  0.00  0.00    +0.001 C 
ATOM     36  C   UNL     1      33.462 -11.731 -23.265  0.00  0.00    +0.001 C 
ATOM     37  C   UNL     1      32.956 -11.715 -24.565  0.00  0.00    +0.000 C 
ENDBRANCH  31  32
ENDBRANCH  29  30
ENDBRANCH  23  24
ENDBRANCH   1  23
TORSDOF 9
ENDMDL
MODEL 4
REMARK VINA RESULT:     -11.2      1.446      3.843
REMARK  Name = 5288250
REMARK  9 active torsions:
REMARK  status: ('A' for Active; 'I' for Inactive)
REMARK    1  A    between atoms: C_1  and  N_3
REMARK    2  A    between atoms: C_1  and  C_20
REMARK    3  A    between atoms: C_1  and  C_23
REMARK    4  A    between atoms: C_4  and  C_6
REMARK    5  A    between atoms: C_6  and  C_10
REMARK    6  A    between atoms: C_20  and  O_21
REMARK    7  A    between atoms: C_23  and  C_24
REMARK    8  A    between atoms: C_29  and  C_30
REMARK    9  A    between atoms: C_31  and  C_32
REMARK                            x       y       z     vdW  Elec       q    Type
REMARK                         _______ _______ _______ _____ _____    ______ ____
ROOT
ATOM      1  C   UNL     1      35.607 -21.657 -18.063  0.00  0.00    +0.176 C 
ENDROOT
BRANCH   1   3
ATOM      2  O   UNL     1      33.456 -23.437 -18.824  0.00  0.00    -0.275 OA
ATOM      3  N   UNL     1      34.189 -21.436 -17.896  0.00  0.00    -0.297 N 
ATOM      4  C   UNL     1      33.227 -22.354 -18.294  0.00  0.00    +0.223 C 
ATOM      5  H   UNL     1      33.891 -20.595 -17.479  0.00  0.00    +0.150 HD
BRANCH   4   6
ATOM      6  C   UNL     1      31.832 -21.852 -17.989  0.00  0.00    +0.087 C 
BRANCH   6  10
ATOM      7  N   UNL     1      31.717 -23.667 -14.647  0.00  0.00    -0.282 N 
ATOM      8  N   UNL     1      33.624 -22.897 -13.661  0.00  0.00    -0.331 N 
ATOM      9  N   UNL     1      32.387 -24.592 -12.608  0.00  0.00    -0.273 NA
ATOM     10  C   UNL     1      31.407 -22.154 -16.554  0.00  0.00    +0.029 C 
ATOM     11  C   UNL     1      29.894 -22.408 -16.475  0.00  0.00    +0.004 C 
ATOM     12  C   UNL     1      32.185 -23.354 -15.996  0.00  0.00    +0.094 C 
ATOM     13  C   UNL     1      29.477 -22.778 -15.052  0.00  0.00    +0.022 C 
ATOM     14  C   UNL     1      30.290 -23.956 -14.525  0.00  0.00    +0.093 C 
ATOM     15  C   UNL     1      32.563 -23.760 -13.595  0.00  0.00    +0.174 C 
ATOM     16  H   UNL     1      33.715 -22.286 -14.427  0.00  0.00    +0.145 HD
ATOM     17  H   UNL     1      34.296 -22.887 -12.942  0.00  0.00    +0.145 HD
ATOM     18  H   UNL     1      31.608 -25.194 -12.605  0.00  0.00    +0.189 HD
ENDBRANCH   6  10
ENDBRANCH   4   6
ENDBRANCH   1   3
BRANCH   1  20
ATOM     19  O   UNL     1      37.020 -19.776 -17.508  0.00  0.00    -0.248 OA
ATOM     20  C   UNL     1      36.442 -20.791 -17.129  0.00  0.00    +0.335 C 
BRANCH  20  21
ATOM     21  O   UNL     1      36.478 -21.288 -15.861  0.00  0.00    -0.443 OA
ATOM     22  C   UNL     1      37.337 -22.414 -15.659  0.00  0.00    +0.256 C 
ENDBRANCH  20  21
ENDBRANCH   1  20
BRANCH   1  23
ATOM     23  C   UNL     1      36.029 -21.494 -19.530  0.00  0.00    +0.057 C 
BRANCH  23  24
ATOM     24  C   UNL     1      35.607 -20.189 -20.168  0.00  0.00    -0.020 C 
ATOM     25  C   UNL     1      36.565 -19.231 -20.497  0.00  0.00    -0.004 C 
ATOM     26  C   UNL     1      34.258 -19.944 -20.428  0.00  0.00    -0.004 C 
ATOM     27  C   UNL     1      36.176 -18.027 -21.084  0.00  0.00    +0.008 C 
ATOM     28  C   UNL     1      33.868 -18.741 -21.016  0.00  0.00    +0.008 C 
ATOM     29  C   UNL     1      34.827 -17.782 -21.344  0.00  0.00    +0.042 C 
BRANCH  29  30
ATOM     30  C   UNL     1      34.428 -16.549 -21.946  0.00  0.00    -0.060 C 
ATOM     31  C   UNL     1      34.091 -15.513 -22.451  0.00  0.00    -0.060 C 
BRANCH  31  32
ATOM     32  C   UNL     1      33.691 -14.277 -23.052  0.00  0.00    +0.042 C 
ATOM     33  C   UNL     1      33.198 -14.265 -24.356  0.00  0.00    +0.008 C 
ATOM     34  C   UNL     1      33.795 -13.086 -22.334  0.00  0.00    +0.008 C 
ATOM     35  C   UNL     1      32.808 -13.061 -24.944  0.00  0.00    +0.001 C 
ATOM     36  C   UNL     1      33.405 -11.883 -22.921  0.00  0.00    +0.001 C 
ATOM     37  C   UNL     1      32.912 -11.870 -24.226  0.00  0.00    +0.000 C 
ENDBRANCH  31  32
ENDBRANCH  29  30
ENDBRANCH  23  24
ENDBRANCH   1  23
TORSDOF 9
ENDMDL
MODEL 5
REMARK VINA RESULT:     -11.0      1.539      2.350
REMARK  Name = 5288250
REMARK  9 active torsions:
REMARK  status: ('A' for Active; 'I' for Inactive)
REMARK    1  A    between atoms: C_1  and  N_3
REMARK    2  A    between atoms: C_1  and  C_20
REMARK    3  A    between atoms: C_1  and  C_23
REMARK    4  A    between atoms: C_4  and  C_6
REMARK    5  A    between atoms: C_6  and  C_10
REMARK    6  A    between atoms: C_20  and  O_21
REMARK    7  A    between atoms: C_23  and  C_24
REMARK    8  A    between atoms: C_29  and  C_30
REMARK    9  A    between atoms: C_31  and  C_32
REMARK                            x       y       z     vdW  Elec       q    Type
REMARK                         _______ _______ _______ _____ _____    ______ ____
ROOT
ATOM      1  C   UNL     1      33.849 -22.793 -16.257  0.00  0.00    +0.176 C 
ENDROOT
BRANCH   1   3
ATOM      2  O   UNL     1      36.218 -21.139 -16.086  0.00  0.00    -0.275 OA
ATOM      3  N   UNL     1      35.160 -23.188 -15.795  0.00  0.00    -0.297 N 
ATOM      4  C   UNL     1      36.241 -22.319 -15.749  0.00  0.00    +0.223 C 
ATOM      5  H   UNL     1      35.292 -24.117 -15.499  0.00  0.00    +0.150 HD
BRANCH   4   6
ATOM      6  C   UNL     1      37.478 -23.012 -15.220  0.00  0.00    +0.087 C 
BRANCH   6  10
ATOM      7  N   UNL     1      36.466 -23.832 -11.644  0.00  0.00    -0.282 N 
ATOM      8  N   UNL     1      34.194 -23.680 -11.784  0.00  0.00    -0.331 N 
ATOM      9  N   UNL     1      35.201 -23.997  -9.686  0.00  0.00    -0.273 NA
ATOM     10  C   UNL     1      37.182 -23.869 -13.991  0.00  0.00    +0.029 C 
ATOM     11  C   UNL     1      38.425 -24.668 -13.571  0.00  0.00    +0.004 C 
ATOM     12  C   UNL     1      36.680 -23.002 -12.828  0.00  0.00    +0.094 C 
ATOM     13  C   UNL     1      38.151 -25.474 -12.302  0.00  0.00    +0.022 C 
ATOM     14  C   UNL     1      37.631 -24.582 -11.180  0.00  0.00    +0.093 C 
ATOM     15  C   UNL     1      35.289 -23.844 -10.977  0.00  0.00    +0.174 C 
ATOM     16  H   UNL     1      34.310 -23.568 -12.754  0.00  0.00    +0.145 HD
ATOM     17  H   UNL     1      33.291 -23.675 -11.392  0.00  0.00    +0.145 HD
ATOM     18  H   UNL     1      36.018 -24.110  -9.147  0.00  0.00    +0.189 HD
ENDBRANCH   6  10
ENDBRANCH   4   6
ENDBRANCH   1   3
BRANCH   1  20
ATOM     19  O   UNL     1      32.935 -23.858 -14.290  0.00  0.00    -0.248 OA
ATOM     20  C   UNL     1      32.733 -23.371 -15.398  0.00  0.00    +0.335 C 
BRANCH  20  21
ATOM     21  O   UNL     1      31.519 -23.296 -16.013  0.00  0.00    -0.443 OA
ATOM     22  C   UNL     1      30.446 -22.797 -15.208  0.00  0.00    +0.256 C 
ENDBRANCH  20  21
ENDBRANCH   1  20
BRANCH   1  23
ATOM     23  C   UNL     1      33.658 -23.120 -17.745  0.00  0.00    +0.057 C 
BRANCH  23  24
ATOM     24  C   UNL     1      33.728 -21.924 -18.669  0.00  0.00    -0.020 C 
ATOM     25  C   UNL     1      34.962 -21.474 -19.136  0.00  0.00    -0.004 C 
ATOM     26  C   UNL     1      32.556 -21.273 -19.055  0.00  0.00    -0.004 C 
ATOM     27  C   UNL     1      35.026 -20.371 -19.987  0.00  0.00    +0.008 C 
ATOM     28  C   UNL     1      32.620 -20.170 -19.906  0.00  0.00    +0.008 C 
ATOM     29  C   UNL     1      33.855 -19.719 -20.373  0.00  0.00    +0.042 C 
BRANCH  29  30
ATOM     30  C   UNL     1      33.920 -18.589 -21.244  0.00  0.00    -0.060 C 
ATOM     31  C   UNL     1      33.977 -17.639 -21.976  0.00  0.00    -0.060 C 
BRANCH  31  32
ATOM     32  C   UNL     1      34.044 -16.507 -22.850  0.00  0.00    +0.042 C 
ATOM     33  C   UNL     1      34.172 -15.224 -22.319  0.00  0.00    +0.008 C 
ATOM     34  C   UNL     1      33.980 -16.687 -24.231  0.00  0.00    +0.008 C 
ATOM     35  C   UNL     1      34.237 -14.120 -23.169  0.00  0.00    +0.001 C 
ATOM     36  C   UNL     1      34.046 -15.583 -25.082  0.00  0.00    +0.001 C 
ATOM     37  C   UNL     1      34.173 -14.300 -24.550  0.00  0.00    +0.000 C 
ENDBRANCH  31  32
ENDBRANCH  29  30
ENDBRANCH  23  24
ENDBRANCH   1  23
TORSDOF 9
ENDMDL
MODEL 6
REMARK VINA RESULT:     -11.0      3.245      6.742
REMARK  Name = 5288250
REMARK  9 active torsions:
REMARK  status: ('A' for Active; 'I' for Inactive)
REMARK    1  A    between atoms: C_1  and  N_3
REMARK    2  A    between atoms: C_1  and  C_20
REMARK    3  A    between atoms: C_1  and  C_23
REMARK    4  A    between atoms: C_4  and  C_6
REMARK    5  A    between atoms: C_6  and  C_10
REMARK    6  A    between atoms: C_20  and  O_21
REMARK    7  A    between atoms: C_23  and  C_24
REMARK    8  A    between atoms: C_29  and  C_30
REMARK    9  A    between atoms: C_31  and  C_32
REMARK                            x       y       z     vdW  Elec       q    Type
REMARK                         _______ _______ _______ _____ _____    ______ ____
ROOT
ATOM      1  C   UNL     1      35.738 -23.583 -12.501  0.00  0.00    +0.176 C 
ENDROOT
BRANCH   1   3
ATOM      2  O   UNL     1      33.063 -24.676 -12.333  0.00  0.00    -0.275 OA
ATOM      3  N   UNL     1      34.503 -22.935 -12.878  0.00  0.00    -0.297 N 
ATOM      4  C   UNL     1      33.261 -23.542 -12.760  0.00  0.00    +0.223 C 
ATOM      5  H   UNL     1      34.545 -22.018 -13.234  0.00  0.00    +0.150 HD
BRANCH   4   6
ATOM      6  C   UNL     1      32.154 -22.621 -13.228  0.00  0.00    +0.087 C 
BRANCH   6  10
ATOM      7  N   UNL     1      28.892 -23.203 -15.099  0.00  0.00    -0.282 N 
ATOM      8  N   UNL     1      29.226 -21.940 -16.969  0.00  0.00    -0.331 N 
ATOM      9  N   UNL     1      27.126 -22.926 -16.604  0.00  0.00    -0.273 NA
ATOM     10  C   UNL     1      31.128 -23.344 -14.098  0.00  0.00    +0.029 C 
ATOM     11  C   UNL     1      30.733 -24.689 -13.471  0.00  0.00    +0.004 C 
ATOM     12  C   UNL     1      29.888 -22.467 -14.321  0.00  0.00    +0.094 C 
ATOM     13  C   UNL     1      29.656 -25.383 -14.304  0.00  0.00    +0.022 C 
ATOM     14  C   UNL     1      28.453 -24.472 -14.524  0.00  0.00    +0.093 C 
ATOM     15  C   UNL     1      28.356 -22.703 -16.236  0.00  0.00    +0.174 C 
ATOM     16  H   UNL     1      30.146 -21.799 -16.651  0.00  0.00    +0.145 HD
ATOM     17  H   UNL     1      28.930 -21.532 -17.815  0.00  0.00    +0.145 HD
ATOM     18  H   UNL     1      26.538 -23.482 -16.043  0.00  0.00    +0.189 HD
ENDBRANCH   6  10
ENDBRANCH   4   6
ENDBRANCH   1   3
BRANCH   1  20
ATOM     19  O   UNL     1      37.549 -22.062 -12.007  0.00  0.00    -0.248 OA
ATOM     20  C   UNL     1      36.596 -22.713 -11.592  0.00  0.00    +0.335 C 
BRANCH  20  21
ATOM     21  O   UNL     1      36.188 -22.767 -10.293  0.00  0.00    -0.443 OA
ATOM     22  C   UNL     1      35.557 -23.987  -9.890  0.00  0.00    +0.256 C 
ENDBRANCH  20  21
ENDBRANCH   1  20
BRANCH   1  23
ATOM     23  C   UNL     1      36.514 -24.067 -13.734  0.00  0.00    +0.057 C 
BRANCH  23  24
ATOM     24  C   UNL     1      36.295 -23.242 -14.983  0.00  0.00    -0.020 C 
ATOM     25  C   UNL     1      37.321 -22.438 -15.477  0.00  0.00    -0.004 C 
ATOM     26  C   UNL     1      35.066 -23.286 -15.640  0.00  0.00    -0.004 C 
ATOM     27  C   UNL     1      37.119 -21.676 -16.628  0.00  0.00    +0.008 C 
ATOM     28  C   UNL     1      34.863 -22.526 -16.792  0.00  0.00    +0.008 C 
ATOM     29  C   UNL     1      35.889 -21.721 -17.286  0.00  0.00    +0.042 C 
BRANCH  29  30
ATOM     30  C   UNL     1      35.682 -20.940 -18.465  0.00  0.00    -0.060 C 
ATOM     31  C   UNL     1      35.508 -20.283 -19.454  0.00  0.00    -0.060 C 
BRANCH  31  32
ATOM     32  C   UNL     1      35.300 -19.501 -20.635  0.00  0.00    +0.042 C 
ATOM     33  C   UNL     1      34.114 -19.628 -21.356  0.00  0.00    +0.008 C 
ATOM     34  C   UNL     1      36.286 -18.612 -21.064  0.00  0.00    +0.008 C 
ATOM     35  C   UNL     1      33.911 -18.866 -22.507  0.00  0.00    +0.001 C 
ATOM     36  C   UNL     1      36.084 -17.850 -22.215  0.00  0.00    +0.001 C 
ATOM     37  C   UNL     1      34.896 -17.978 -22.936  0.00  0.00    +0.000 C 
ENDBRANCH  31  32
ENDBRANCH  29  30
ENDBRANCH  23  24
ENDBRANCH   1  23
TORSDOF 9
ENDMDL
MODEL 7
REMARK VINA RESULT:     -11.0      3.915      7.023
REMARK  Name = 5288250
REMARK  9 active torsions:
REMARK  status: ('A' for Active; 'I' for Inactive)
REMARK    1  A    between atoms: C_1  and  N_3
REMARK    2  A    between atoms: C_1  and  C_20
REMARK    3  A    between atoms: C_1  and  C_23
REMARK    4  A    between atoms: C_4  and  C_6
REMARK    5  A    between atoms: C_6  and  C_10
REMARK    6  A    between atoms: C_20  and  O_21
REMARK    7  A    between atoms: C_23  and  C_24
REMARK    8  A    between atoms: C_29  and  C_30
REMARK    9  A    between atoms: C_31  and  C_32
REMARK                            x       y       z     vdW  Elec       q    Type
REMARK                         _______ _______ _______ _____ _____    ______ ____
ROOT
ATOM      1  C   UNL     1      33.747 -16.702 -23.247  0.00  0.00    +0.176 C 
ENDROOT
BRANCH   1   3
ATOM      2  O   UNL     1      34.884 -16.898 -20.593  0.00  0.00    -0.275 OA
ATOM      3  N   UNL     1      34.392 -17.851 -22.655  0.00  0.00    -0.297 N 
ATOM      4  C   UNL     1      34.909 -17.850 -21.368  0.00  0.00    +0.223 C 
ATOM      5  H   UNL     1      34.467 -18.674 -23.190  0.00  0.00    +0.150 HD
BRANCH   4   6
ATOM      6  C   UNL     1      35.520 -19.192 -21.022  0.00  0.00    +0.087 C 
BRANCH   6  10
ATOM      7  N   UNL     1      34.967 -21.675 -18.192  0.00  0.00    -0.282 N 
ATOM      8  N   UNL     1      36.405 -20.873 -16.614  0.00  0.00    -0.331 N 
ATOM      9  N   UNL     1      35.300 -22.910 -16.236  0.00  0.00    -0.273 NA
ATOM     10  C   UNL     1      34.834 -19.850 -19.826  0.00  0.00    +0.029 C 
ATOM     11  C   UNL     1      33.422 -20.324 -20.201  0.00  0.00    +0.004 C 
ATOM     12  C   UNL     1      35.672 -21.020 -19.292  0.00  0.00    +0.094 C 
ATOM     13  C   UNL     1      32.759 -21.043 -19.027  0.00  0.00    +0.022 C 
ATOM     14  C   UNL     1      33.633 -22.181 -18.509  0.00  0.00    +0.093 C 
ATOM     15  C   UNL     1      35.542 -21.871 -16.984  0.00  0.00    +0.174 C 
ATOM     16  H   UNL     1      36.557 -20.107 -17.213  0.00  0.00    +0.145 HD
ATOM     17  H   UNL     1      36.874 -20.923 -15.750  0.00  0.00    +0.145 HD
ATOM     18  H   UNL     1      34.671 -23.602 -16.545  0.00  0.00    +0.189 HD
ENDBRANCH   6  10
ENDBRANCH   4   6
ENDBRANCH   1   3
BRANCH   1  20
ATOM     19  O   UNL     1      32.794 -16.189 -25.407  0.00  0.00    -0.248 OA
ATOM     20  C   UNL     1      33.052 -17.038 -24.559  0.00  0.00    +0.335 C 
BRANCH  20  21
ATOM     21  O   UNL     1      32.749 -18.363 -24.657  0.00  0.00    -0.443 OA
ATOM     22  C   UNL     1      31.524 -18.671 -25.329  0.00  0.00    +0.256 C 
ENDBRANCH  20  21
ENDBRANCH   1  20
BRANCH   1  23
ATOM     23  C   UNL     1      34.725 -15.527 -23.398  0.00  0.00    +0.057 C 
BRANCH  23  24
ATOM     24  C   UNL     1      34.105 -14.160 -23.212  0.00  0.00    -0.020 C 
ATOM     25  C   UNL     1      33.869 -13.669 -21.929  0.00  0.00    -0.004 C 
ATOM     26  C   UNL     1      33.769 -13.391 -24.326  0.00  0.00    -0.004 C 
ATOM     27  C   UNL     1      33.296 -12.409 -21.758  0.00  0.00    +0.008 C 
ATOM     28  C   UNL     1      33.197 -12.130 -24.156  0.00  0.00    +0.008 C 
ATOM     29  C   UNL     1      32.961 -11.639 -22.872  0.00  0.00    +0.042 C 
BRANCH  29  30
ATOM     30  C   UNL     1      32.374 -10.348 -22.697  0.00  0.00    -0.060 C 
ATOM     31  C   UNL     1      31.880  -9.264 -22.548  0.00  0.00    -0.060 C 
BRANCH  31  32
ATOM     32  C   UNL     1      31.292  -7.971 -22.372  0.00  0.00    +0.042 C 
ATOM     33  C   UNL     1      31.471  -7.282 -21.173  0.00  0.00    +0.008 C 
ATOM     34  C   UNL     1      30.540  -7.401 -23.400  0.00  0.00    +0.008 C 
ATOM     35  C   UNL     1      30.898  -6.021 -21.000  0.00  0.00    +0.001 C 
ATOM     36  C   UNL     1      29.968  -6.140 -23.227  0.00  0.00    +0.001 C 
ATOM     37  C   UNL     1      30.147  -5.451 -22.027  0.00  0.00    +0.000 C 
ENDBRANCH  31  32
ENDBRANCH  29  30
ENDBRANCH  23  24
ENDBRANCH   1  23
TORSDOF 9
ENDMDL
MODEL 8
REMARK VINA RESULT:     -10.9      4.413     11.689
REMARK  Name = 5288250
REMARK  9 active torsions:
REMARK  status: ('A' for Active; 'I' for Inactive)
REMARK    1  A    between atoms: C_1  and  N_3
REMARK    2  A    between atoms: C_1  and  C_20
REMARK    3  A    between atoms: C_1  and  C_23
REMARK    4  A    between atoms: C_4  and  C_6
REMARK    5  A    between atoms: C_6  and  C_10
REMARK    6  A    between atoms: C_20  and  O_21
REMARK    7  A    between atoms: C_23  and  C_24
REMARK    8  A    between atoms: C_29  and  C_30
REMARK    9  A    between atoms: C_31  and  C_32
REMARK                            x       y       z     vdW  Elec       q    Type
REMARK                         _______ _______ _______ _____ _____    ______ ____
ROOT
ATOM      1  C   UNL     1      34.269 -19.080 -21.380  0.00  0.00    +0.176 C 
ENDROOT
BRANCH   1   3
ATOM      2  O   UNL     1      35.536 -16.631 -22.258  0.00  0.00    -0.275 OA
ATOM      3  N   UNL     1      34.035 -17.746 -20.878  0.00  0.00    -0.297 N 
ATOM      4  C   UNL     1      34.694 -16.626 -21.365  0.00  0.00    +0.223 C 
ATOM      5  H   UNL     1      33.376 -17.625 -20.156  0.00  0.00    +0.150 HD
BRANCH   4   6
ATOM      6  C   UNL     1      34.242 -15.370 -20.651  0.00  0.00    +0.087 C 
BRANCH   6  10
ATOM      7  N   UNL     1      33.101 -13.166 -23.535  0.00  0.00    -0.282 N 
ATOM      8  N   UNL     1      32.818 -14.713 -25.187  0.00  0.00    -0.331 N 
ATOM      9  N   UNL     1      32.619 -12.430 -25.700  0.00  0.00    -0.273 NA
ATOM     10  C   UNL     1      33.296 -14.527 -21.503  0.00  0.00    +0.029 C 
ATOM     11  C   UNL     1      32.735 -13.350 -20.692  0.00  0.00    +0.004 C 
ATOM     12  C   UNL     1      34.004 -14.023 -22.768  0.00  0.00    +0.094 C 
ATOM     13  C   UNL     1      31.841 -12.466 -21.562  0.00  0.00    +0.022 C 
ATOM     14  C   UNL     1      32.571 -12.007 -22.820  0.00  0.00    +0.093 C 
ATOM     15  C   UNL     1      32.837 -13.387 -24.843  0.00  0.00    +0.174 C 
ATOM     16  H   UNL     1      32.989 -15.401 -24.505  0.00  0.00    +0.145 HD
ATOM     17  H   UNL     1      32.634 -14.977 -26.117  0.00  0.00    +0.145 HD
ATOM     18  H   UNL     1      32.643 -11.491 -25.405  0.00  0.00    +0.189 HD
ENDBRANCH   6  10
ENDBRANCH   4   6
ENDBRANCH   1   3
BRANCH   1  20
ATOM     19  O   UNL     1      35.141 -19.593 -23.574  0.00  0.00    -0.248 OA
ATOM     20  C   UNL     1      34.218 -19.145 -22.900  0.00  0.00    +0.335 C 
BRANCH  20  21
ATOM     21  O   UNL     1      33.056 -18.639 -23.399  0.00  0.00    -0.443 OA
ATOM     22  C   UNL     1      33.110 -18.176 -24.752  0.00  0.00    +0.256 C 
ENDBRANCH  20  21
ENDBRANCH   1  20
BRANCH   1  23
ATOM     23  C   UNL     1      33.319 -20.096 -20.729  0.00  0.00    +0.057 C 
BRANCH  23  24
ATOM     24  C   UNL     1      33.881 -20.798 -19.512  0.00  0.00    -0.020 C 
ATOM     25  C   UNL     1      33.032 -21.492 -18.652  0.00  0.00    -0.004 C 
ATOM     26  C   UNL     1      35.251 -20.751 -19.253  0.00  0.00    -0.004 C 
ATOM     27  C   UNL     1      33.551 -22.138 -17.530  0.00  0.00    +0.008 C 
ATOM     28  C   UNL     1      35.771 -21.398 -18.132  0.00  0.00    +0.008 C 
ATOM     29  C   UNL     1      34.921 -22.092 -17.270  0.00  0.00    +0.042 C 
BRANCH  29  30
ATOM     30  C   UNL     1      35.453 -22.753 -16.121  0.00  0.00    -0.060 C 
ATOM     31  C   UNL     1      35.901 -23.309 -15.155  0.00  0.00    -0.060 C 
BRANCH  31  32
ATOM     32  C   UNL     1      36.435 -23.971 -14.004  0.00  0.00    +0.042 C 
ATOM     33  C   UNL     1      36.463 -25.364 -13.952  0.00  0.00    +0.008 C 
ATOM     34  C   UNL     1      36.925 -23.222 -12.934  0.00  0.00    +0.008 C 
ATOM     35  C   UNL     1      36.983 -26.010 -12.830  0.00  0.00    +0.001 C 
ATOM     36  C   UNL     1      37.444 -23.868 -11.812  0.00  0.00    +0.001 C 
ATOM     37  C   UNL     1      37.473 -25.262 -11.760  0.00  0.00    +0.000 C 
ENDBRANCH  31  32
ENDBRANCH  29  30
ENDBRANCH  23  24
ENDBRANCH   1  23
TORSDOF 9
ENDMDL
MODEL 9
REMARK VINA RESULT:     -10.7      4.957     11.120
REMARK  Name = 5288250
REMARK  9 active torsions:
REMARK  status: ('A' for Active; 'I' for Inactive)
REMARK    1  A    between atoms: C_1  and  N_3
REMARK    2  A    between atoms: C_1  and  C_20
REMARK    3  A    between atoms: C_1  and  C_23
REMARK    4  A    between atoms: C_4  and  C_6
REMARK    5  A    between atoms: C_6  and  C_10
REMARK    6  A    between atoms: C_20  and  O_21
REMARK    7  A    between atoms: C_23  and  C_24
REMARK    8  A    between atoms: C_29  and  C_30
REMARK    9  A    between atoms: C_31  and  C_32
REMARK                            x       y       z     vdW  Elec       q    Type
REMARK                         _______ _______ _______ _____ _____    ______ ____
ROOT
ATOM      1  C   UNL     1      35.221 -18.140 -22.349  0.00  0.00    +0.176 C 
ENDROOT
BRANCH   1   3
ATOM      2  O   UNL     1      34.987 -15.318 -22.950  0.00  0.00    -0.275 OA
ATOM      3  N   UNL     1      34.612 -17.119 -21.529  0.00  0.00    -0.297 N 
ATOM      4  C   UNL     1      34.546 -15.784 -21.903  0.00  0.00    +0.223 C 
ATOM      5  H   UNL     1      34.223 -17.383 -20.663  0.00  0.00    +0.150 HD
BRANCH   4   6
ATOM      6  C   UNL     1      33.849 -14.953 -20.847  0.00  0.00    +0.087 C 
BRANCH   6  10
ATOM      7  N   UNL     1      31.747 -11.859 -21.544  0.00  0.00    -0.282 N 
ATOM      8  N   UNL     1      31.711 -10.877 -19.486  0.00  0.00    -0.331 N 
ATOM      9  N   UNL     1      30.393  -9.983 -21.211  0.00  0.00    -0.273 NA
ATOM     10  C   UNL     1      33.515 -13.548 -21.342  0.00  0.00    +0.029 C 
ATOM     11  C   UNL     1      33.764 -13.429 -22.853  0.00  0.00    +0.004 C 
ATOM     12  C   UNL     1      32.064 -13.180 -21.004  0.00  0.00    +0.094 C 
ATOM     13  C   UNL     1      33.368 -12.044 -23.364  0.00  0.00    +0.022 C 
ATOM     14  C   UNL     1      31.929 -11.705 -22.986  0.00  0.00    +0.093 C 
ATOM     15  C   UNL     1      31.243 -10.868 -20.773  0.00  0.00    +0.174 C 
ATOM     16  H   UNL     1      32.354 -11.566 -19.200  0.00  0.00    +0.145 HD
ATOM     17  H   UNL     1      31.404 -10.195 -18.846  0.00  0.00    +0.145 HD
ATOM     18  H   UNL     1      30.085 -10.018 -22.146  0.00  0.00    +0.189 HD
ENDBRANCH   6  10
ENDBRANCH   4   6
ENDBRANCH   1   3
BRANCH   1  20
ATOM     19  O   UNL     1      34.476 -19.777 -23.962  0.00  0.00    -0.248 OA
ATOM     20  C   UNL     1      34.247 -18.735 -23.356  0.00  0.00    +0.335 C 
BRANCH  20  21
ATOM     21  O   UNL     1      33.128 -17.971 -23.502  0.00  0.00    -0.443 OA
ATOM     22  C   UNL     1      32.907 -17.437 -24.811  0.00  0.00    +0.256 C 
ENDBRANCH  20  21
ENDBRANCH   1  20
BRANCH   1  23
ATOM     23  C   UNL     1      35.892 -19.221 -21.489  0.00  0.00    +0.057 C 
BRANCH  23  24
ATOM     24  C   UNL     1      34.967 -19.917 -20.515  0.00  0.00    -0.020 C 
ATOM     25  C   UNL     1      33.589 -19.723 -20.601  0.00  0.00    -0.004 C 
ATOM     26  C   UNL     1      35.494 -20.755 -19.531  0.00  0.00    -0.004 C 
ATOM     27  C   UNL     1      32.736 -20.365 -19.703  0.00  0.00    +0.008 C 
ATOM     28  C   UNL     1      34.641 -21.397 -18.633  0.00  0.00    +0.008 C 
ATOM     29  C   UNL     1      33.263 -21.202 -18.719  0.00  0.00    +0.042 C 
BRANCH  29  30
ATOM     30  C   UNL     1      32.389 -21.859 -17.799  0.00  0.00    -0.060 C 
ATOM     31  C   UNL     1      31.657 -22.411 -17.024  0.00  0.00    -0.060 C 
BRANCH  31  32
ATOM     32  C   UNL     1      30.782 -23.069 -16.101  0.00  0.00    +0.042 C 
ATOM     33  C   UNL     1      29.401 -22.986 -16.271  0.00  0.00    +0.008 C 
ATOM     34  C   UNL     1      31.313 -23.791 -15.032  0.00  0.00    +0.008 C 
ATOM     35  C   UNL     1      28.548 -23.626 -15.372  0.00  0.00    +0.001 C 
ATOM     36  C   UNL     1      30.459 -24.431 -14.133  0.00  0.00    +0.001 C 
ATOM     37  C   UNL     1      29.077 -24.348 -14.303  0.00  0.00    +0.000 C 
ENDBRANCH  31  32
ENDBRANCH  29  30
ENDBRANCH  23  24
ENDBRANCH   1  23
TORSDOF 9
ENDMDL
