MODEL 1
REMARK VINA RESULT:     -11.5      0.000      0.000
REMARK  Name = 25017411
REMARK  7 active torsions:
REMARK  status: ('A' for Active; 'I' for Inactive)
REMARK    1  A    between atoms: C_2  and  O_13
REMARK    2  A    between atoms: C_3  and  O_11
REMARK    3  A    between atoms: C_8  and  O_22
REMARK    4  A    between atoms: O_13  and  C_14
REMARK    5  A    between atoms: C_14  and  C_15
REMARK    6  A    between atoms: C_15  and  N_18
REMARK    7  A    between atoms: O_22  and  C_27
REMARK                            x       y       z     vdW  Elec       q    Type
REMARK                         _______ _______ _______ _____ _____    ______ ____
ROOT
ATOM      1  N   UNL     1      32.039 -21.392 -19.127  0.00  0.00    -0.248 NA
ATOM      2  C   UNL     1      34.814 -22.397 -16.965  0.00  0.00    +0.152 C 
ATOM      3  C   UNL     1      35.877 -21.704 -17.530  0.00  0.00    +0.151 C 
ATOM      4  C   UNL     1      33.534 -22.281 -17.512  0.00  0.00    +0.112 C 
ATOM      5  C   UNL     1      33.285 -21.482 -18.624  0.00  0.00    +0.066 C 
ATOM      6  C   UNL     1      35.657 -20.897 -18.642  0.00  0.00    +0.097 C 
ATOM      7  C   UNL     1      34.370 -20.781 -19.193  0.00  0.00    +0.034 C 
ATOM      8  C   UNL     1      34.119 -19.975 -20.313  0.00  0.00    +0.144 C 
ATOM      9  C   UNL     1      32.837 -19.882 -20.832  0.00  0.00    +0.058 C 
ATOM     10  C   UNL     1      31.841 -20.604 -20.208  0.00  0.00    +0.102 C 
ENDROOT
BRANCH   3  11
ATOM     11  O   UNL     1      37.130 -21.806 -17.009  0.00  0.00    -0.473 OA
ATOM     12  C   UNL     1      37.574 -20.738 -16.173  0.00  0.00    +0.252 C 
ENDBRANCH   3  11
BRANCH   2  13
ATOM     13  O   UNL     1      35.006 -23.193 -15.875  0.00  0.00    -0.479 OA
BRANCH  13  14
ATOM     14  C   UNL     1      34.767 -22.609 -14.596  0.00  0.00    +0.185 C 
BRANCH  14  15
ATOM     15  C   UNL     1      35.479 -23.393 -13.550  0.00  0.00    -0.008 C 
ATOM     16  C   UNL     1      36.539 -22.679 -12.762  0.00  0.00    -0.018 C 
ATOM     17  C   UNL     1      36.928 -23.698 -13.793  0.00  0.00    -0.018 C 
BRANCH  15  18
ATOM     18  N   UNL     1      34.647 -24.395 -12.873  0.00  0.00    +0.385 N 
ATOM     19  H   UNL     1      34.368 -25.115 -13.541  0.00  0.00    -0.089 HD
ATOM     20  H   UNL     1      33.815 -23.945 -12.491  0.00  0.00    -0.089 HD
ATOM     21  H   UNL     1      35.178 -24.824 -12.115  0.00  0.00    -0.089 HD
ENDBRANCH  15  18
ENDBRANCH  14  15
ENDBRANCH  13  14
ENDBRANCH   2  13
BRANCH   8  22
ATOM     22  O   UNL     1      35.115 -19.267 -20.919  0.00  0.00    -0.451 OA
BRANCH  22  27
ATOM     23  F   UNL     1      34.457 -19.094 -23.590  0.00  0.00    -0.201 F 
ATOM     24  N   UNL     1      33.762 -14.534 -23.379  0.00  0.00    -0.316 N 
ATOM     25  C   UNL     1      34.116 -16.737 -23.407  0.00  0.00    +0.045 C 
ATOM     26  C   UNL     1      34.122 -15.604 -22.590  0.00  0.00    +0.050 C 
ATOM     27  C   UNL     1      34.782 -18.049 -21.483  0.00  0.00    +0.173 C 
ATOM     28  C   UNL     1      34.452 -17.983 -22.841  0.00  0.00    +0.176 C 
ATOM     29  C   UNL     1      33.528 -14.951 -24.662  0.00  0.00    +0.026 C 
ATOM     30  C   UNL     1      33.738 -16.310 -24.711  0.00  0.00    +0.014 C 
ATOM     31  C   UNL     1      34.451 -15.655 -21.232  0.00  0.00    +0.018 C 
ATOM     32  C   UNL     1      34.781 -16.901 -20.692  0.00  0.00    +0.041 C 
ATOM     33  C   UNL     1      33.124 -14.000 -25.714  0.00  0.00    +0.047 C 
ATOM     34  H   UNL     1      33.683 -13.604 -23.066  0.00  0.00    +0.152 HD
ENDBRANCH  22  27
ENDBRANCH   8  22
TORSDOF 7
ENDMDL
MODEL 2
REMARK VINA RESULT:     -11.5      1.074      1.508
REMARK  Name = 25017411
REMARK  7 active torsions:
REMARK  status: ('A' for Active; 'I' for Inactive)
REMARK    1  A    between atoms: C_2  and  O_13
REMARK    2  A    between atoms: C_3  and  O_11
REMARK    3  A    between atoms: C_8  and  O_22
REMARK    4  A    between atoms: O_13  and  C_14
REMARK    5  A    between atoms: C_14  and  C_15
REMARK    6  A    between atoms: C_15  and  N_18
REMARK    7  A    between atoms: O_22  and  C_27
REMARK                            x       y       z     vdW  Elec       q    Type
REMARK                         _______ _______ _______ _____ _____    ______ ____
ROOT
ATOM      1  N   UNL     1      32.038 -21.305 -19.269  0.00  0.00    -0.248 NA
ATOM      2  C   UNL     1      34.807 -22.341 -17.113  0.00  0.00    +0.152 C 
ATOM      3  C   UNL     1      35.870 -21.636 -17.662  0.00  0.00    +0.151 C 
ATOM      4  C   UNL     1      33.529 -22.219 -17.664  0.00  0.00    +0.112 C 
ATOM      5  C   UNL     1      33.281 -21.400 -18.762  0.00  0.00    +0.066 C 
ATOM      6  C   UNL     1      35.652 -20.810 -18.760  0.00  0.00    +0.097 C 
ATOM      7  C   UNL     1      34.367 -20.687 -19.315  0.00  0.00    +0.034 C 
ATOM      8  C   UNL     1      34.119 -19.862 -20.420  0.00  0.00    +0.144 C 
ATOM      9  C   UNL     1      32.839 -19.762 -20.944  0.00  0.00    +0.058 C 
ATOM     10  C   UNL     1      31.842 -20.498 -20.336  0.00  0.00    +0.102 C 
ENDROOT
BRANCH   3  11
ATOM     11  O   UNL     1      37.121 -21.743 -17.137  0.00  0.00    -0.473 OA
ATOM     12  C   UNL     1      37.458 -20.854 -16.074  0.00  0.00    +0.252 C 
ENDBRANCH   3  11
BRANCH   2  13
ATOM     13  O   UNL     1      34.995 -23.156 -16.037  0.00  0.00    -0.479 OA
BRANCH  13  14
ATOM     14  C   UNL     1      34.496 -22.697 -14.782  0.00  0.00    +0.185 C 
BRANCH  14  15
ATOM     15  C   UNL     1      35.155 -23.452 -13.679  0.00  0.00    -0.008 C 
ATOM     16  C   UNL     1      36.287 -22.770 -12.966  0.00  0.00    -0.018 C 
ATOM     17  C   UNL     1      36.567 -23.903 -13.910  0.00  0.00    -0.018 C 
BRANCH  15  18
ATOM     18  N   UNL     1      34.249 -24.315 -12.912  0.00  0.00    +0.385 N 
ATOM     19  H   UNL     1      34.355 -24.120 -11.916  0.00  0.00    -0.089 HD
ATOM     20  H   UNL     1      34.476 -25.292 -13.093  0.00  0.00    -0.089 HD
ATOM     21  H   UNL     1      33.286 -24.133 -13.193  0.00  0.00    -0.089 HD
ENDBRANCH  15  18
ENDBRANCH  14  15
ENDBRANCH  13  14
ENDBRANCH   2  13
BRANCH   8  22
ATOM     22  O   UNL     1      35.116 -19.140 -21.010  0.00  0.00    -0.451 OA
BRANCH  22  27
ATOM     23  F   UNL     1      34.883 -16.561 -20.065  0.00  0.00    -0.201 F 
ATOM     24  N   UNL     1      33.657 -14.894 -24.192  0.00  0.00    -0.316 N 
ATOM     25  C   UNL     1      34.254 -15.769 -22.229  0.00  0.00    +0.045 C 
ATOM     26  C   UNL     1      34.004 -16.072 -23.569  0.00  0.00    +0.050 C 
ATOM     27  C   UNL     1      34.747 -18.112 -21.858  0.00  0.00    +0.173 C 
ATOM     28  C   UNL     1      34.633 -16.810 -21.358  0.00  0.00    +0.176 C 
ATOM     29  C   UNL     1      33.681 -13.861 -23.295  0.00  0.00    +0.026 C 
ATOM     30  C   UNL     1      34.048 -14.370 -22.071  0.00  0.00    +0.014 C 
ATOM     31  C   UNL     1      34.112 -17.369 -24.083  0.00  0.00    +0.018 C 
ATOM     32  C   UNL     1      34.490 -18.385 -23.200  0.00  0.00    +0.041 C 
ATOM     33  C   UNL     1      33.350 -12.483 -23.705  0.00  0.00    +0.047 C 
ATOM     34  H   UNL     1      33.427 -14.808 -25.146  0.00  0.00    +0.152 HD
ENDBRANCH  22  27
ENDBRANCH   8  22
TORSDOF 7
ENDMDL
MODEL 3
REMARK VINA RESULT:     -10.9      3.144      9.329
REMARK  Name = 25017411
REMARK  7 active torsions:
REMARK  status: ('A' for Active; 'I' for Inactive)
REMARK    1  A    between atoms: C_2  and  O_13
REMARK    2  A    between atoms: C_3  and  O_11
REMARK    3  A    between atoms: C_8  and  O_22
REMARK    4  A    between atoms: O_13  and  C_14
REMARK    5  A    between atoms: C_14  and  C_15
REMARK    6  A    between atoms: C_15  and  N_18
REMARK    7  A    between atoms: O_22  and  C_27
REMARK                            x       y       z     vdW  Elec       q    Type
REMARK                         _______ _______ _______ _____ _____    ______ ____
ROOT
ATOM      1  N   UNL     1      31.171 -22.636 -17.234  0.00  0.00    -0.248 NA
ATOM      2  C   UNL     1      34.268 -21.457 -18.785  0.00  0.00    +0.152 C 
ATOM      3  C   UNL     1      35.172 -21.580 -17.738  0.00  0.00    +0.151 C 
ATOM      4  C   UNL     1      32.931 -21.815 -18.599  0.00  0.00    +0.112 C 
ATOM      5  C   UNL     1      32.467 -22.300 -17.380  0.00  0.00    +0.066 C 
ATOM      6  C   UNL     1      34.736 -22.061 -16.507  0.00  0.00    +0.097 C 
ATOM      7  C   UNL     1      33.391 -22.421 -16.320  0.00  0.00    +0.034 C 
ATOM      8  C   UNL     1      32.925 -22.909 -15.092  0.00  0.00    +0.144 C 
ATOM      9  C   UNL     1      31.591 -23.257 -14.940  0.00  0.00    +0.058 C 
ATOM     10  C   UNL     1      30.762 -23.103 -16.032  0.00  0.00    +0.102 C 
ENDROOT
BRANCH   3  11
ATOM     11  O   UNL     1      36.478 -21.236 -17.902  0.00  0.00    -0.473 OA
ATOM     12  C   UNL     1      37.126 -20.600 -16.801  0.00  0.00    +0.252 C 
ENDBRANCH   3  11
BRANCH   2  13
ATOM     13  O   UNL     1      34.672 -20.989 -20.000  0.00  0.00    -0.479 OA
BRANCH  13  14
ATOM     14  C   UNL     1      34.115 -19.751 -20.435  0.00  0.00    +0.185 C 
BRANCH  14  15
ATOM     15  C   UNL     1      35.205 -18.856 -20.915  0.00  0.00    -0.008 C 
ATOM     16  C   UNL     1      34.818 -17.464 -21.322  0.00  0.00    -0.018 C 
ATOM     17  C   UNL     1      35.187 -18.476 -22.366  0.00  0.00    -0.018 C 
BRANCH  15  18
ATOM     18  N   UNL     1      36.498 -19.068 -20.253  0.00  0.00    +0.385 N 
ATOM     19  H   UNL     1      37.196 -19.337 -20.947  0.00  0.00    -0.089 HD
ATOM     20  H   UNL     1      36.407 -19.809 -19.558  0.00  0.00    -0.089 HD
ATOM     21  H   UNL     1      36.790 -18.206 -19.793  0.00  0.00    -0.089 HD
ENDBRANCH  15  18
ENDBRANCH  14  15
ENDBRANCH  13  14
ENDBRANCH   2  13
BRANCH   8  22
ATOM     22  O   UNL     1      33.757 -23.056 -14.020  0.00  0.00    -0.451 OA
BRANCH  22  27
ATOM     23  F   UNL     1      36.233 -22.339 -13.043  0.00  0.00    -0.201 F 
ATOM     24  N   UNL     1      38.208 -26.259 -14.473  0.00  0.00    -0.316 N 
ATOM     25  C   UNL     1      37.188 -24.389 -13.811  0.00  0.00    +0.045 C 
ATOM     26  C   UNL     1      36.993 -25.611 -14.459  0.00  0.00    +0.050 C 
ATOM     27  C   UNL     1      34.840 -23.903 -14.162  0.00  0.00    +0.173 C 
ATOM     28  C   UNL     1      36.089 -23.519 -13.660  0.00  0.00    +0.176 C 
ATOM     29  C   UNL     1      39.160 -25.491 -13.857  0.00  0.00    +0.026 C 
ATOM     30  C   UNL     1      38.559 -24.328 -13.436  0.00  0.00    +0.014 C 
ATOM     31  C   UNL     1      35.752 -26.007 -14.967  0.00  0.00    +0.018 C 
ATOM     32  C   UNL     1      34.676 -25.129 -14.805  0.00  0.00    +0.041 C 
ATOM     33  C   UNL     1      40.554 -25.955 -13.733  0.00  0.00    +0.047 C 
ATOM     34  H   UNL     1      38.369 -27.146 -14.868  0.00  0.00    +0.152 HD
ENDBRANCH  22  27
ENDBRANCH   8  22
TORSDOF 7
ENDMDL
MODEL 4
REMARK VINA RESULT:     -10.7      2.752      4.397
REMARK  Name = 25017411
REMARK  7 active torsions:
REMARK  status: ('A' for Active; 'I' for Inactive)
REMARK    1  A    between atoms: C_2  and  O_13
REMARK    2  A    between atoms: C_3  and  O_11
REMARK    3  A    between atoms: C_8  and  O_22
REMARK    4  A    between atoms: O_13  and  C_14
REMARK    5  A    between atoms: C_14  and  C_15
REMARK    6  A    between atoms: C_15  and  N_18
REMARK    7  A    between atoms: O_22  and  C_27
REMARK                            x       y       z     vdW  Elec       q    Type
REMARK                         _______ _______ _______ _____ _____    ______ ____
ROOT
ATOM      1  N   UNL     1      31.261 -22.501 -14.787  0.00  0.00    -0.248 NA
ATOM      2  C   UNL     1      34.350 -24.064 -13.605  0.00  0.00    +0.152 C 
ATOM      3  C   UNL     1      35.038 -24.262 -14.795  0.00  0.00    +0.151 C 
ATOM      4  C   UNL     1      33.084 -23.473 -13.621  0.00  0.00    +0.112 C 
ATOM      5  C   UNL     1      32.481 -23.068 -14.808  0.00  0.00    +0.066 C 
ATOM      6  C   UNL     1      34.460 -23.868 -15.997  0.00  0.00    +0.097 C 
ATOM      7  C   UNL     1      33.187 -23.273 -16.013  0.00  0.00    +0.034 C 
ATOM      8  C   UNL     1      32.581 -22.865 -17.209  0.00  0.00    +0.144 C 
ATOM      9  C   UNL     1      31.323 -22.281 -17.191  0.00  0.00    +0.058 C 
ATOM     10  C   UNL     1      30.711 -22.122 -15.964  0.00  0.00    +0.102 C 
ENDROOT
BRANCH   3  11
ATOM     11  O   UNL     1      36.272 -24.837 -14.798  0.00  0.00    -0.473 OA
ATOM     12  C   UNL     1      36.329 -26.252 -14.976  0.00  0.00    +0.252 C 
ENDBRANCH   3  11
BRANCH   2  13
ATOM     13  O   UNL     1      34.897 -24.442 -12.415  0.00  0.00    -0.479 OA
BRANCH  13  14
ATOM     14  C   UNL     1      34.830 -23.503 -11.344  0.00  0.00    +0.185 C 
BRANCH  14  15
ATOM     15  C   UNL     1      36.206 -23.203 -10.858  0.00  0.00    -0.008 C 
ATOM     16  C   UNL     1      37.112 -22.454 -11.792  0.00  0.00    -0.018 C 
ATOM     17  C   UNL     1      37.339 -23.916 -11.536  0.00  0.00    -0.018 C 
BRANCH  15  18
ATOM     18  N   UNL     1      36.294 -22.937  -9.417  0.00  0.00    +0.385 N 
ATOM     19  H   UNL     1      35.405 -22.562  -9.085  0.00  0.00    -0.089 HD
ATOM     20  H   UNL     1      37.036 -22.262  -9.241  0.00  0.00    -0.089 HD
ATOM     21  H   UNL     1      36.501 -23.805  -8.923  0.00  0.00    -0.089 HD
ENDBRANCH  15  18
ENDBRANCH  14  15
ENDBRANCH  13  14
ENDBRANCH   2  13
BRANCH   8  22
ATOM     22  O   UNL     1      33.200 -23.029 -18.415  0.00  0.00    -0.451 OA
BRANCH  22  27
ATOM     23  F   UNL     1      32.011 -21.266 -20.169  0.00  0.00    -0.201 F 
ATOM     24  N   UNL     1      35.824 -18.693 -20.558  0.00  0.00    -0.316 N 
ATOM     25  C   UNL     1      34.019 -19.983 -20.323  0.00  0.00    +0.045 C 
ATOM     26  C   UNL     1      35.346 -19.817 -19.922  0.00  0.00    +0.050 C 
ATOM     27  C   UNL     1      33.909 -21.956 -18.921  0.00  0.00    +0.173 C 
ATOM     28  C   UNL     1      33.287 -21.073 -19.811  0.00  0.00    +0.176 C 
ATOM     29  C   UNL     1      34.846 -18.144 -21.343  0.00  0.00    +0.026 C 
ATOM     30  C   UNL     1      33.717 -18.919 -21.218  0.00  0.00    +0.014 C 
ATOM     31  C   UNL     1      35.982 -20.692 -19.034  0.00  0.00    +0.018 C 
ATOM     32  C   UNL     1      35.236 -21.766 -18.539  0.00  0.00    +0.041 C 
ATOM     33  C   UNL     1      35.096 -16.926 -22.136  0.00  0.00    +0.047 C 
ATOM     34  H   UNL     1      36.737 -18.336 -20.461  0.00  0.00    +0.152 HD
ENDBRANCH  22  27
ENDBRANCH   8  22
TORSDOF 7
ENDMDL
MODEL 5
REMARK VINA RESULT:     -10.3      2.521      4.142
REMARK  Name = 25017411
REMARK  7 active torsions:
REMARK  status: ('A' for Active; 'I' for Inactive)
REMARK    1  A    between atoms: C_2  and  O_13
REMARK    2  A    between atoms: C_3  and  O_11
REMARK    3  A    between atoms: C_8  and  O_22
REMARK    4  A    between atoms: O_13  and  C_14
REMARK    5  A    between atoms: C_14  and  C_15
REMARK    6  A    between atoms: C_15  and  N_18
REMARK    7  A    between atoms: O_22  and  C_27
REMARK                            x       y       z     vdW  Elec       q    Type
REMARK                         _______ _______ _______ _____ _____    ______ ____
ROOT
ATOM      1  N   UNL     1      31.885 -22.921 -14.787  0.00  0.00    -0.248 NA
ATOM      2  C   UNL     1      35.260 -22.699 -13.393  0.00  0.00    +0.152 C 
ATOM      3  C   UNL     1      36.037 -22.648 -14.544  0.00  0.00    +0.151 C 
ATOM      4  C   UNL     1      33.870 -22.791 -13.493  0.00  0.00    +0.112 C 
ATOM      5  C   UNL     1      33.226 -22.832 -14.727  0.00  0.00    +0.066 C 
ATOM      6  C   UNL     1      35.421 -22.688 -15.791  0.00  0.00    +0.097 C 
ATOM      7  C   UNL     1      34.023 -22.780 -15.891  0.00  0.00    +0.034 C 
ATOM      8  C   UNL     1      33.376 -22.822 -17.134  0.00  0.00    +0.144 C 
ATOM      9  C   UNL     1      31.994 -22.913 -17.199  0.00  0.00    +0.058 C 
ATOM     10  C   UNL     1      31.300 -22.959 -16.007  0.00  0.00    +0.102 C 
ENDROOT
BRANCH   3  11
ATOM     11  O   UNL     1      37.393 -22.558 -14.465  0.00  0.00    -0.473 OA
ATOM     12  C   UNL     1      38.147 -23.224 -15.476  0.00  0.00    +0.252 C 
ENDBRANCH   3  11
BRANCH   2  13
ATOM     13  O   UNL     1      35.841 -22.660 -12.161  0.00  0.00    -0.479 OA
BRANCH  13  14
ATOM     14  C   UNL     1      35.900 -23.885 -11.434  0.00  0.00    +0.185 C 
BRANCH  14  15
ATOM     15  C   UNL     1      37.091 -24.666 -11.870  0.00  0.00    -0.008 C 
ATOM     16  C   UNL     1      36.861 -25.764 -12.867  0.00  0.00    -0.018 C 
ATOM     17  C   UNL     1      37.163 -26.100 -11.436  0.00  0.00    -0.018 C 
BRANCH  15  18
ATOM     18  N   UNL     1      38.331 -23.884 -11.948  0.00  0.00    +0.385 N 
ATOM     19  H   UNL     1      39.051 -24.328 -11.377  0.00  0.00    -0.089 HD
ATOM     20  H   UNL     1      38.160 -22.939 -11.605  0.00  0.00    -0.089 HD
ATOM     21  H   UNL     1      38.646 -23.841 -12.917  0.00  0.00    -0.089 HD
ENDBRANCH  15  18
ENDBRANCH  14  15
ENDBRANCH  13  14
ENDBRANCH   2  13
BRANCH   8  22
ATOM     22  O   UNL     1      34.076 -22.776 -18.305  0.00  0.00    -0.451 OA
BRANCH  22  27
ATOM     23  F   UNL     1      36.261 -21.371 -19.228  0.00  0.00    -0.201 F 
ATOM     24  N   UNL     1      33.648 -18.320 -21.506  0.00  0.00    -0.316 N 
ATOM     25  C   UNL     1      34.847 -19.829 -20.382  0.00  0.00    +0.045 C 
ATOM     26  C   UNL     1      33.547 -19.440 -20.710  0.00  0.00    +0.050 C 
ATOM     27  C   UNL     1      33.907 -21.663 -19.108  0.00  0.00    +0.173 C 
ATOM     28  C   UNL     1      35.030 -20.963 -19.565  0.00  0.00    +0.176 C 
ATOM     29  C   UNL     1      34.965 -17.991 -21.691  0.00  0.00    +0.026 C 
ATOM     30  C   UNL     1      35.731 -18.907 -21.009  0.00  0.00    +0.014 C 
ATOM     31  C   UNL     1      32.416 -20.128 -20.259  0.00  0.00    +0.018 C 
ATOM     32  C   UNL     1      32.621 -21.251 -19.451  0.00  0.00    +0.041 C 
ATOM     33  C   UNL     1      35.354 -16.828 -22.509  0.00  0.00    +0.047 C 
ATOM     34  H   UNL     1      32.885 -17.828 -21.886  0.00  0.00    +0.152 HD
ENDBRANCH  22  27
ENDBRANCH   8  22
TORSDOF 7
ENDMDL
MODEL 6
REMARK VINA RESULT:     -10.2      4.974      8.736
REMARK  Name = 25017411
REMARK  7 active torsions:
REMARK  status: ('A' for Active; 'I' for Inactive)
REMARK    1  A    between atoms: C_2  and  O_13
REMARK    2  A    between atoms: C_3  and  O_11
REMARK    3  A    between atoms: C_8  and  O_22
REMARK    4  A    between atoms: O_13  and  C_14
REMARK    5  A    between atoms: C_14  and  C_15
REMARK    6  A    between atoms: C_15  and  N_18
REMARK    7  A    between atoms: O_22  and  C_27
REMARK                            x       y       z     vdW  Elec       q    Type
REMARK                         _______ _______ _______ _____ _____    ______ ____
ROOT
ATOM      1  N   UNL     1      33.242 -14.383 -25.942  0.00  0.00    -0.248 NA
ATOM      2  C   UNL     1      34.498 -16.281 -23.077  0.00  0.00    +0.152 C 
ATOM      3  C   UNL     1      34.187 -15.435 -22.021  0.00  0.00    +0.151 C 
ATOM      4  C   UNL     1      34.174 -15.913 -24.385  0.00  0.00    +0.112 C 
ATOM      5  C   UNL     1      33.540 -14.707 -24.670  0.00  0.00    +0.066 C 
ATOM      6  C   UNL     1      33.553 -14.222 -22.275  0.00  0.00    +0.097 C 
ATOM      7  C   UNL     1      33.228 -13.852 -23.591  0.00  0.00    +0.034 C 
ATOM      8  C   UNL     1      32.589 -12.638 -23.876  0.00  0.00    +0.144 C 
ATOM      9  C   UNL     1      32.281 -12.302 -25.186  0.00  0.00    +0.058 C 
ATOM     10  C   UNL     1      32.625 -13.201 -26.174  0.00  0.00    +0.102 C 
ENDROOT
BRANCH   3  11
ATOM     11  O   UNL     1      34.495 -15.778 -20.740  0.00  0.00    -0.473 OA
ATOM     12  C   UNL     1      33.764 -15.129 -19.700  0.00  0.00    +0.252 C 
ENDBRANCH   3  11
BRANCH   2  13
ATOM     13  O   UNL     1      35.118 -17.474 -22.852  0.00  0.00    -0.479 OA
BRANCH  13  14
ATOM     14  C   UNL     1      34.286 -18.583 -22.518  0.00  0.00    +0.185 C 
BRANCH  14  15
ATOM     15  C   UNL     1      34.650 -19.088 -21.165  0.00  0.00    -0.008 C 
ATOM     16  C   UNL     1      34.526 -20.565 -20.930  0.00  0.00    -0.018 C 
ATOM     17  C   UNL     1      33.536 -19.620 -20.313  0.00  0.00    -0.018 C 
BRANCH  15  18
ATOM     18  N   UNL     1      35.749 -18.356 -20.522  0.00  0.00    +0.385 N 
ATOM     19  H   UNL     1      36.561 -18.350 -21.139  0.00  0.00    -0.089 HD
ATOM     20  H   UNL     1      35.992 -18.812 -19.643  0.00  0.00    -0.089 HD
ATOM     21  H   UNL     1      35.456 -17.397 -20.336  0.00  0.00    -0.089 HD
ENDBRANCH  15  18
ENDBRANCH  14  15
ENDBRANCH  13  14
ENDBRANCH   2  13
BRANCH   8  22
ATOM     22  O   UNL     1      32.254 -11.758 -22.888  0.00  0.00    -0.451 OA
BRANCH  22  27
ATOM     23  F   UNL     1      30.422  -9.752 -22.421  0.00  0.00    -0.201 F 
ATOM     24  N   UNL     1      33.415  -6.418 -23.533  0.00  0.00    -0.316 N 
ATOM     25  C   UNL     1      32.022  -8.081 -23.010  0.00  0.00    +0.045 C 
ATOM     26  C   UNL     1      33.322  -7.788 -23.430  0.00  0.00    +0.050 C 
ATOM     27  C   UNL     1      32.603 -10.432 -23.066  0.00  0.00    +0.173 C 
ATOM     28  C   UNL     1      31.658  -9.429 -22.824  0.00  0.00    +0.176 C 
ATOM     29  C   UNL     1      32.223  -5.837 -23.192  0.00  0.00    +0.026 C 
ATOM     30  C   UNL     1      31.341  -6.840 -22.863  0.00  0.00    +0.014 C 
ATOM     31  C   UNL     1      34.277  -8.779 -23.677  0.00  0.00    +0.018 C 
ATOM     32  C   UNL     1      33.893 -10.110 -23.485  0.00  0.00    +0.041 C 
ATOM     33  C   UNL     1      32.052  -4.372 -23.215  0.00  0.00    +0.047 C 
ATOM     34  H   UNL     1      34.222  -5.927 -23.811  0.00  0.00    +0.152 HD
ENDBRANCH  22  27
ENDBRANCH   8  22
TORSDOF 7
ENDMDL
MODEL 7
REMARK VINA RESULT:      -9.8      3.524      8.557
REMARK  Name = 25017411
REMARK  7 active torsions:
REMARK  status: ('A' for Active; 'I' for Inactive)
REMARK    1  A    between atoms: C_2  and  O_13
REMARK    2  A    between atoms: C_3  and  O_11
REMARK    3  A    between atoms: C_8  and  O_22
REMARK    4  A    between atoms: O_13  and  C_14
REMARK    5  A    between atoms: C_14  and  C_15
REMARK    6  A    between atoms: C_15  and  N_18
REMARK    7  A    between atoms: O_22  and  C_27
REMARK                            x       y       z     vdW  Elec       q    Type
REMARK                         _______ _______ _______ _____ _____    ______ ____
ROOT
ATOM      1  N   UNL     1      36.955 -21.582 -15.769  0.00  0.00    -0.248 NA
ATOM      2  C   UNL     1      35.170 -21.023 -18.914  0.00  0.00    +0.152 C 
ATOM      3  C   UNL     1      34.056 -21.838 -18.754  0.00  0.00    +0.151 C 
ATOM      4  C   UNL     1      36.132 -20.949 -17.903  0.00  0.00    +0.112 C 
ATOM      5  C   UNL     1      36.009 -21.676 -16.723  0.00  0.00    +0.066 C 
ATOM      6  C   UNL     1      33.908 -22.576 -17.584  0.00  0.00    +0.097 C 
ATOM      7  C   UNL     1      34.875 -22.502 -16.568  0.00  0.00    +0.034 C 
ATOM      8  C   UNL     1      34.751 -23.234 -15.379  0.00  0.00    +0.144 C 
ATOM      9  C   UNL     1      35.723 -23.139 -14.395  0.00  0.00    +0.058 C 
ATOM     10  C   UNL     1      36.796 -22.305 -14.637  0.00  0.00    +0.102 C 
ENDROOT
BRANCH   3  11
ATOM     11  O   UNL     1      33.109 -21.922 -19.728  0.00  0.00    -0.473 OA
ATOM     12  C   UNL     1      32.236 -20.804 -19.882  0.00  0.00    +0.252 C 
ENDBRANCH   3  11
BRANCH   2  13
ATOM     13  O   UNL     1      35.336 -20.290 -20.050  0.00  0.00    -0.479 OA
BRANCH  13  14
ATOM     14  C   UNL     1      36.221 -19.174 -19.978  0.00  0.00    +0.185 C 
BRANCH  14  15
ATOM     15  C   UNL     1      36.090 -18.354 -21.214  0.00  0.00    -0.008 C 
ATOM     16  C   UNL     1      35.048 -17.273 -21.210  0.00  0.00    -0.018 C 
ATOM     17  C   UNL     1      34.831 -18.522 -22.014  0.00  0.00    -0.018 C 
BRANCH  15  18
ATOM     18  N   UNL     1      37.355 -18.118 -21.921  0.00  0.00    +0.385 N 
ATOM     19  H   UNL     1      37.418 -18.745 -22.724  0.00  0.00    -0.089 HD
ATOM     20  H   UNL     1      38.135 -18.295 -21.290  0.00  0.00    -0.089 HD
ATOM     21  H   UNL     1      37.390 -17.151 -22.242  0.00  0.00    -0.089 HD
ENDBRANCH  15  18
ENDBRANCH  14  15
ENDBRANCH  13  14
ENDBRANCH   2  13
BRANCH   8  22
ATOM     22  O   UNL     1      33.683 -24.054 -15.154  0.00  0.00    -0.451 OA
BRANCH  22  27
ATOM     23  F   UNL     1      31.635 -24.239 -16.990  0.00  0.00    -0.201 F 
ATOM     24  N   UNL     1      28.739 -21.766 -14.379  0.00  0.00    -0.316 N 
ATOM     25  C   UNL     1      30.192 -22.953 -15.588  0.00  0.00    +0.045 C 
ATOM     26  C   UNL     1      30.024 -22.260 -14.386  0.00  0.00    +0.050 C 
ATOM     27  C   UNL     1      32.460 -23.459 -14.905  0.00  0.00    +0.173 C 
ATOM     28  C   UNL     1      31.434 -23.564 -15.850  0.00  0.00    +0.176 C 
ATOM     29  C   UNL     1      28.090 -22.123 -15.531  0.00  0.00    +0.026 C 
ATOM     30  C   UNL     1      28.963 -22.858 -16.299  0.00  0.00    +0.014 C 
ATOM     31  C   UNL     1      31.041 -22.146 -13.433  0.00  0.00    +0.018 C 
ATOM     32  C   UNL     1      32.265 -22.761 -13.714  0.00  0.00    +0.041 C 
ATOM     33  C   UNL     1      26.693 -21.721 -15.778  0.00  0.00    +0.047 C 
ATOM     34  H   UNL     1      28.343 -21.234 -13.651  0.00  0.00    +0.152 HD
ENDBRANCH  22  27
ENDBRANCH   8  22
TORSDOF 7
ENDMDL
MODEL 8
REMARK VINA RESULT:      -9.4      4.952      8.807
REMARK  Name = 25017411
REMARK  7 active torsions:
REMARK  status: ('A' for Active; 'I' for Inactive)
REMARK    1  A    between atoms: C_2  and  O_13
REMARK    2  A    between atoms: C_3  and  O_11
REMARK    3  A    between atoms: C_8  and  O_22
REMARK    4  A    between atoms: O_13  and  C_14
REMARK    5  A    between atoms: C_14  and  C_15
REMARK    6  A    between atoms: C_15  and  N_18
REMARK    7  A    between atoms: O_22  and  C_27
REMARK                            x       y       z     vdW  Elec       q    Type
REMARK                         _______ _______ _______ _____ _____    ______ ____
ROOT
ATOM      1  N   UNL     1      33.081 -14.038 -25.834  0.00  0.00    -0.248 NA
ATOM      2  C   UNL     1      34.397 -16.151 -23.153  0.00  0.00    +0.152 C 
ATOM      3  C   UNL     1      34.195 -15.349 -22.037  0.00  0.00    +0.151 C 
ATOM      4  C   UNL     1      34.018 -15.696 -24.418  0.00  0.00    +0.112 C 
ATOM      5  C   UNL     1      33.434 -14.446 -24.601  0.00  0.00    +0.066 C 
ATOM      6  C   UNL     1      33.613 -14.094 -22.190  0.00  0.00    +0.097 C 
ATOM      7  C   UNL     1      33.232 -13.636 -23.462  0.00  0.00    +0.034 C 
ATOM      8  C   UNL     1      32.644 -12.377 -23.645  0.00  0.00    +0.144 C 
ATOM      9  C   UNL     1      32.279 -11.955 -24.915  0.00  0.00    +0.058 C 
ATOM     10  C   UNL     1      32.516 -12.816 -25.967  0.00  0.00    +0.102 C 
ENDROOT
BRANCH   3  11
ATOM     11  O   UNL     1      34.558 -15.776 -20.797  0.00  0.00    -0.473 OA
ATOM     12  C   UNL     1      33.813 -15.268 -19.691  0.00  0.00    +0.252 C 
ENDBRANCH   3  11
BRANCH   2  13
ATOM     13  O   UNL     1      34.964 -17.384 -23.028  0.00  0.00    -0.479 OA
BRANCH  13  14
ATOM     14  C   UNL     1      34.114 -18.448 -22.607  0.00  0.00    +0.185 C 
BRANCH  14  15
ATOM     15  C   UNL     1      34.616 -19.007 -21.320  0.00  0.00    -0.008 C 
ATOM     16  C   UNL     1      34.516 -20.493 -21.135  0.00  0.00    -0.018 C 
ATOM     17  C   UNL     1      33.595 -19.579 -20.381  0.00  0.00    -0.018 C 
BRANCH  15  18
ATOM     18  N   UNL     1      35.775 -18.299 -20.764  0.00  0.00    +0.385 N 
ATOM     19  H   UNL     1      36.183 -17.697 -21.481  0.00  0.00    -0.089 HD
ATOM     20  H   UNL     1      36.470 -18.976 -20.452  0.00  0.00    -0.089 HD
ATOM     21  H   UNL     1      35.478 -17.729 -19.972  0.00  0.00    -0.089 HD
ENDBRANCH  15  18
ENDBRANCH  14  15
ENDBRANCH  13  14
ENDBRANCH   2  13
BRANCH   8  22
ATOM     22  O   UNL     1      32.415 -11.537 -22.594  0.00  0.00    -0.451 OA
BRANCH  22  27
ATOM     23  F   UNL     1      34.547 -10.049 -23.510  0.00  0.00    -0.201 F 
ATOM     24  N   UNL     1      32.051  -6.172 -23.762  0.00  0.00    -0.316 N 
ATOM     25  C   UNL     1      33.196  -8.082 -23.615  0.00  0.00    +0.045 C 
ATOM     26  C   UNL     1      31.940  -7.501 -23.420  0.00  0.00    +0.050 C 
ATOM     27  C   UNL     1      32.264 -10.191 -22.872  0.00  0.00    +0.173 C 
ATOM     28  C   UNL     1      33.359  -9.453 -23.336  0.00  0.00    +0.176 C 
ATOM     29  C   UNL     1      33.330  -5.894 -24.166  0.00  0.00    +0.026 C 
ATOM     30  C   UNL     1      34.062  -7.056 -24.086  0.00  0.00    +0.014 C 
ATOM     31  C   UNL     1      30.837  -8.226 -22.957  0.00  0.00    +0.018 C 
ATOM     32  C   UNL     1      31.023  -9.585 -22.687  0.00  0.00    +0.041 C 
ATOM     33  C   UNL     1      33.720  -4.537 -24.590  0.00  0.00    +0.047 C 
ATOM     34  H   UNL     1      31.318  -5.516 -23.723  0.00  0.00    +0.152 HD
ENDBRANCH  22  27
ENDBRANCH   8  22
TORSDOF 7
ENDMDL
MODEL 9
REMARK VINA RESULT:      -9.4      5.156      9.433
REMARK  Name = 25017411
REMARK  7 active torsions:
REMARK  status: ('A' for Active; 'I' for Inactive)
REMARK    1  A    between atoms: C_2  and  O_13
REMARK    2  A    between atoms: C_3  and  O_11
REMARK    3  A    between atoms: C_8  and  O_22
REMARK    4  A    between atoms: O_13  and  C_14
REMARK    5  A    between atoms: C_14  and  C_15
REMARK    6  A    between atoms: C_15  and  N_18
REMARK    7  A    between atoms: O_22  and  C_27
REMARK                            x       y       z     vdW  Elec       q    Type
REMARK                         _______ _______ _______ _____ _____    ______ ____
ROOT
ATOM      1  N   UNL     1      34.127 -22.049 -18.549  0.00  0.00    -0.248 NA
ATOM      2  C   UNL     1      31.504 -22.905 -16.146  0.00  0.00    +0.152 C 
ATOM      3  C   UNL     1      32.171 -22.759 -14.937  0.00  0.00    +0.151 C 
ATOM      4  C   UNL     1      32.175 -22.664 -17.348  0.00  0.00    +0.112 C 
ATOM      5  C   UNL     1      33.511 -22.274 -17.373  0.00  0.00    +0.066 C 
ATOM      6  C   UNL     1      33.507 -22.370 -14.932  0.00  0.00    +0.097 C 
ATOM      7  C   UNL     1      34.182 -22.127 -16.140  0.00  0.00    +0.034 C 
ATOM      8  C   UNL     1      35.527 -21.735 -16.165  0.00  0.00    +0.144 C 
ATOM      9  C   UNL     1      36.165 -21.502 -17.375  0.00  0.00    +0.058 C 
ATOM     10  C   UNL     1      35.427 -21.671 -18.528  0.00  0.00    +0.102 C 
ENDROOT
BRANCH   3  11
ATOM     11  O   UNL     1      31.533 -22.990 -13.758  0.00  0.00    -0.473 OA
ATOM     12  C   UNL     1      31.508 -24.336 -13.285  0.00  0.00    +0.252 C 
ENDBRANCH   3  11
BRANCH   2  13
ATOM     13  O   UNL     1      30.195 -23.284 -16.176  0.00  0.00    -0.479 OA
BRANCH  13  14
ATOM     14  C   UNL     1      29.221 -22.244 -16.204  0.00  0.00    +0.185 C 
BRANCH  14  15
ATOM     15  C   UNL     1      27.856 -22.841 -16.243  0.00  0.00    -0.008 C 
ATOM     16  C   UNL     1      26.816 -22.118 -17.048  0.00  0.00    -0.018 C 
ATOM     17  C   UNL     1      26.761 -22.086 -15.549  0.00  0.00    -0.018 C 
BRANCH  15  18
ATOM     18  N   UNL     1      27.838 -24.309 -16.213  0.00  0.00    +0.385 N 
ATOM     19  H   UNL     1      27.109 -24.653 -16.839  0.00  0.00    -0.089 HD
ATOM     20  H   UNL     1      27.649 -24.627 -15.263  0.00  0.00    -0.089 HD
ATOM     21  H   UNL     1      28.743 -24.667 -16.516  0.00  0.00    -0.089 HD
ENDBRANCH  15  18
ENDBRANCH  14  15
ENDBRANCH  13  14
ENDBRANCH   2  13
BRANCH   8  22
ATOM     22  O   UNL     1      36.244 -21.571 -15.015  0.00  0.00    -0.451 OA
BRANCH  22  27
ATOM     23  F   UNL     1      38.641 -22.441 -16.062  0.00  0.00    -0.201 F 
ATOM     24  N   UNL     1      38.939 -25.970 -13.100  0.00  0.00    -0.316 N 
ATOM     25  C   UNL     1      38.729 -24.245 -14.500  0.00  0.00    +0.045 C 
ATOM     26  C   UNL     1      38.124 -24.911 -13.432  0.00  0.00    +0.050 C 
ATOM     27  C   UNL     1      36.877 -22.683 -14.492  0.00  0.00    +0.173 C 
ATOM     28  C   UNL     1      38.093 -23.109 -15.038  0.00  0.00    +0.176 C 
ATOM     29  C   UNL     1      40.037 -25.994 -13.919  0.00  0.00    +0.026 C 
ATOM     30  C   UNL     1      39.936 -24.939 -14.795  0.00  0.00    +0.014 C 
ATOM     31  C   UNL     1      36.908 -24.498 -12.876  0.00  0.00    +0.018 C 
ATOM     32  C   UNL     1      36.296 -23.368 -13.426  0.00  0.00    +0.041 C 
ATOM     33  C   UNL     1      41.075 -27.031 -13.775  0.00  0.00    +0.047 C 
ATOM     34  H   UNL     1      38.760 -26.615 -12.379  0.00  0.00    +0.152 HD
ENDBRANCH  22  27
ENDBRANCH   8  22
TORSDOF 7
ENDMDL
