MODEL 1
REMARK VINA RESULT:     -12.5      0.000      0.000
REMARK  Name = 15443
REMARK  5 active torsions:
REMARK  status: ('A' for Active; 'I' for Inactive)
REMARK    1  A    between atoms: N_1  and  C_14
REMARK    2  A    between atoms: C_14  and  C_15
REMARK    3  A    between atoms: C_15  and  C_16
REMARK    4  A    between atoms: C_16  and  C_18
REMARK    5  A    between atoms: C_18  and  C_20
REMARK                            x       y       z     vdW  Elec       q    Type
REMARK                         _______ _______ _______ _____ _____    ______ ____
ROOT
ATOM      1  N   UNL     1      34.303 -15.098 -23.579  0.00  0.00    +0.389 N 
ATOM      2  N   UNL     1      32.816 -12.810 -22.735  0.00  0.00    -0.298 N 
ATOM      3  C   UNL     1      34.007 -14.886 -22.157  0.00  0.00    -0.055 C 
ATOM      4  C   UNL     1      33.198 -14.586 -24.400  0.00  0.00    -0.055 C 
ATOM      5  C   UNL     1      33.824 -13.399 -21.847  0.00  0.00    +0.069 C 
ATOM      6  C   UNL     1      32.988 -13.089 -24.166  0.00  0.00    +0.069 C 
ATOM      7  H   UNL     1      35.154 -14.589 -23.817  0.00  0.00    -0.080 HD
ATOM      8  N   UNL     1      32.289 -10.511 -23.168  0.00  0.00    -0.229 NA
ATOM      9  C   UNL     1      32.181 -11.617 -22.369  0.00  0.00    +0.132 C 
ATOM     10  C   UNL     1      31.444 -11.591 -21.177  0.00  0.00    +0.034 C 
ATOM     11  C   UNL     1      30.808 -10.413 -20.800  0.00  0.00    +0.004 C 
ATOM     12  C   UNL     1      31.657  -9.385 -22.770  0.00  0.00    +0.100 C 
ATOM     13  C   UNL     1      30.911  -9.285 -21.606  0.00  0.00    +0.021 C 
ENDROOT
BRANCH   1  14
ATOM     14  C   UNL     1      34.528 -16.517 -23.851  0.00  0.00    -0.077 C 
BRANCH  14  15
ATOM     15  C   UNL     1      34.224 -17.350 -22.603  0.00  0.00    -0.015 C 
BRANCH  15  16
ATOM     16  C   UNL     1      35.154 -18.559 -22.472  0.00  0.00    +0.067 C 
BRANCH  16  18
ATOM     17  O   UNL     1      36.516 -18.231 -20.506  0.00  0.00    -0.291 OA
ATOM     18  C   UNL     1      35.588 -18.836 -21.040  0.00  0.00    +0.173 C 
BRANCH  18  20
ATOM     19  F   UNL     1      32.796 -22.668 -18.091  0.00  0.00    -0.204 F 
ATOM     20  C   UNL     1      34.843 -19.860 -20.253  0.00  0.00    +0.035 C 
ATOM     21  C   UNL     1      35.555 -20.734 -19.464  0.00  0.00    +0.005 C 
ATOM     22  C   UNL     1      33.469 -19.892 -20.344  0.00  0.00    +0.005 C 
ATOM     23  C   UNL     1      34.858 -21.691 -18.727  0.00  0.00    +0.030 C 
ATOM     24  C   UNL     1      32.771 -20.850 -19.607  0.00  0.00    +0.030 C 
ATOM     25  C   UNL     1      33.466 -21.749 -18.799  0.00  0.00    +0.140 C 
ENDBRANCH  18  20
ENDBRANCH  16  18
ENDBRANCH  15  16
ENDBRANCH  14  15
ENDBRANCH   1  14
TORSDOF 5
ENDMDL
MODEL 2
REMARK VINA RESULT:     -12.0      0.912      1.579
REMARK  Name = 15443
REMARK  5 active torsions:
REMARK  status: ('A' for Active; 'I' for Inactive)
REMARK    1  A    between atoms: N_1  and  C_14
REMARK    2  A    between atoms: C_14  and  C_15
REMARK    3  A    between atoms: C_15  and  C_16
REMARK    4  A    between atoms: C_16  and  C_18
REMARK    5  A    between atoms: C_18  and  C_20
REMARK                            x       y       z     vdW  Elec       q    Type
REMARK                         _______ _______ _______ _____ _____    ______ ____
ROOT
ATOM      1  N   UNL     1      33.760 -15.166 -22.100  0.00  0.00    +0.389 N 
ATOM      2  N   UNL     1      32.673 -12.527 -22.230  0.00  0.00    -0.298 N 
ATOM      3  C   UNL     1      33.869 -14.377 -23.333  0.00  0.00    -0.055 C 
ATOM      4  C   UNL     1      33.824 -14.278 -20.932  0.00  0.00    -0.055 C 
ATOM      5  C   UNL     1      32.731 -13.358 -23.437  0.00  0.00    +0.069 C 
ATOM      6  C   UNL     1      32.685 -13.257 -20.956  0.00  0.00    +0.069 C 
ATOM      7  H   UNL     1      32.863 -15.650 -22.097  0.00  0.00    -0.080 HD
ATOM      8  N   UNL     1      30.956 -11.045 -21.454  0.00  0.00    -0.229 NA
ATOM      9  C   UNL     1      32.025 -11.287 -22.272  0.00  0.00    +0.132 C 
ATOM     10  C   UNL     1      32.500 -10.317 -23.165  0.00  0.00    +0.034 C 
ATOM     11  C   UNL     1      31.867  -9.079 -23.219  0.00  0.00    +0.004 C 
ATOM     12  C   UNL     1      30.367  -9.831 -21.533  0.00  0.00    +0.100 C 
ATOM     13  C   UNL     1      30.780  -8.823 -22.390  0.00  0.00    +0.021 C 
ENDROOT
BRANCH   1  14
ATOM     14  C   UNL     1      34.821 -16.170 -22.037  0.00  0.00    -0.077 C 
BRANCH  14  15
ATOM     15  C   UNL     1      34.365 -17.463 -22.719  0.00  0.00    -0.015 C 
BRANCH  15  16
ATOM     16  C   UNL     1      35.360 -18.609 -22.512  0.00  0.00    +0.067 C 
BRANCH  16  18
ATOM     17  O   UNL     1      36.603 -18.288 -20.469  0.00  0.00    -0.291 OA
ATOM     18  C   UNL     1      35.688 -18.868 -21.049  0.00  0.00    +0.173 C 
BRANCH  18  20
ATOM     19  F   UNL     1      32.559 -22.519 -18.209  0.00  0.00    -0.204 F 
ATOM     20  C   UNL     1      34.853 -19.844 -20.292  0.00  0.00    +0.035 C 
ATOM     21  C   UNL     1      35.481 -20.757 -19.474  0.00  0.00    +0.005 C 
ATOM     22  C   UNL     1      33.484 -19.795 -20.437  0.00  0.00    +0.005 C 
ATOM     23  C   UNL     1      34.699 -21.668 -18.764  0.00  0.00    +0.030 C 
ATOM     24  C   UNL     1      32.702 -20.707 -19.726  0.00  0.00    +0.030 C 
ATOM     25  C   UNL     1      33.310 -21.644 -18.891  0.00  0.00    +0.140 C 
ENDBRANCH  18  20
ENDBRANCH  16  18
ENDBRANCH  15  16
ENDBRANCH  14  15
ENDBRANCH   1  14
TORSDOF 5
ENDMDL
MODEL 3
REMARK VINA RESULT:     -12.0      3.897      9.160
REMARK  Name = 15443
REMARK  5 active torsions:
REMARK  status: ('A' for Active; 'I' for Inactive)
REMARK    1  A    between atoms: N_1  and  C_14
REMARK    2  A    between atoms: C_14  and  C_15
REMARK    3  A    between atoms: C_15  and  C_16
REMARK    4  A    between atoms: C_16  and  C_18
REMARK    5  A    between atoms: C_18  and  C_20
REMARK                            x       y       z     vdW  Elec       q    Type
REMARK                         _______ _______ _______ _____ _____    ______ ____
ROOT
ATOM      1  N   UNL     1      34.587 -16.705 -23.531  0.00  0.00    +0.389 N 
ATOM      2  N   UNL     1      34.437 -18.692 -21.485  0.00  0.00    -0.298 N 
ATOM      3  C   UNL     1      33.600 -17.787 -23.617  0.00  0.00    -0.055 C 
ATOM      4  C   UNL     1      34.810 -16.342 -22.126  0.00  0.00    -0.055 C 
ATOM      5  C   UNL     1      34.079 -19.031 -22.866  0.00  0.00    +0.069 C 
ATOM      6  C   UNL     1      35.330 -17.537 -21.326  0.00  0.00    +0.069 C 
ATOM      7  H   UNL     1      35.468 -17.031 -23.930  0.00  0.00    -0.080 HD
ATOM      8  N   UNL     1      35.651 -19.954 -19.847  0.00  0.00    -0.229 NA
ATOM      9  C   UNL     1      34.483 -19.698 -20.513  0.00  0.00    +0.132 C 
ATOM     10  C   UNL     1      33.313 -20.424 -20.248  0.00  0.00    +0.034 C 
ATOM     11  C   UNL     1      33.343 -21.427 -19.285  0.00  0.00    +0.004 C 
ATOM     12  C   UNL     1      35.641 -20.935 -18.917  0.00  0.00    +0.100 C 
ATOM     13  C   UNL     1      34.525 -21.694 -18.602  0.00  0.00    +0.021 C 
ENDROOT
BRANCH   1  14
ATOM     14  C   UNL     1      34.143 -15.541 -24.296  0.00  0.00    -0.077 C 
BRANCH  14  15
ATOM     15  C   UNL     1      34.158 -14.290 -23.413  0.00  0.00    -0.015 C 
BRANCH  15  16
ATOM     16  C   UNL     1      32.832 -13.526 -23.467  0.00  0.00    +0.067 C 
BRANCH  16  18
ATOM     17  O   UNL     1      32.444 -13.619 -21.086  0.00  0.00    -0.291 OA
ATOM     18  C   UNL     1      32.409 -12.956 -22.121  0.00  0.00    +0.173 C 
BRANCH  18  20
ATOM     19  F   UNL     1      30.722  -7.638 -21.880  0.00  0.00    -0.204 F 
ATOM     20  C   UNL     1      31.960 -11.536 -22.056  0.00  0.00    +0.035 C 
ATOM     21  C   UNL     1      32.316 -10.682 -23.076  0.00  0.00    +0.005 C 
ATOM     22  C   UNL     1      31.203 -11.130 -20.979  0.00  0.00    +0.005 C 
ATOM     23  C   UNL     1      31.894  -9.355 -23.017  0.00  0.00    +0.030 C 
ATOM     24  C   UNL     1      30.782  -9.801 -20.919  0.00  0.00    +0.030 C 
ATOM     25  C   UNL     1      31.127  -8.914 -21.938  0.00  0.00    +0.140 C 
ENDBRANCH  18  20
ENDBRANCH  16  18
ENDBRANCH  15  16
ENDBRANCH  14  15
ENDBRANCH   1  14
TORSDOF 5
ENDMDL
MODEL 4
REMARK VINA RESULT:     -11.6      5.141     10.389
REMARK  Name = 15443
REMARK  5 active torsions:
REMARK  status: ('A' for Active; 'I' for Inactive)
REMARK    1  A    between atoms: N_1  and  C_14
REMARK    2  A    between atoms: C_14  and  C_15
REMARK    3  A    between atoms: C_15  and  C_16
REMARK    4  A    between atoms: C_16  and  C_18
REMARK    5  A    between atoms: C_18  and  C_20
REMARK                            x       y       z     vdW  Elec       q    Type
REMARK                         _______ _______ _______ _____ _____    ______ ____
ROOT
ATOM      1  N   UNL     1      34.586 -21.166 -18.664  0.00  0.00    +0.389 N 
ATOM      2  N   UNL     1      35.574 -22.354 -16.260  0.00  0.00    -0.298 N 
ATOM      3  C   UNL     1      36.030 -21.248 -18.413  0.00  0.00    -0.055 C 
ATOM      4  C   UNL     1      33.912 -22.333 -18.080  0.00  0.00    -0.055 C 
ATOM      5  C   UNL     1      36.329 -21.279 -16.912  0.00  0.00    +0.069 C 
ATOM      6  C   UNL     1      34.139 -22.400 -16.569  0.00  0.00    +0.069 C 
ATOM      7  H   UNL     1      34.223 -20.321 -18.222  0.00  0.00    -0.080 HD
ATOM      8  N   UNL     1      35.165 -22.767 -13.934  0.00  0.00    -0.229 NA
ATOM      9  C   UNL     1      35.996 -22.844 -15.019  0.00  0.00    +0.132 C 
ATOM     10  C   UNL     1      37.276 -23.407 -14.924  0.00  0.00    +0.034 C 
ATOM     11  C   UNL     1      37.710 -23.899 -13.697  0.00  0.00    +0.004 C 
ATOM     12  C   UNL     1      35.621 -23.256 -12.759  0.00  0.00    +0.100 C 
ATOM     13  C   UNL     1      36.873 -23.826 -12.590  0.00  0.00    +0.021 C 
ENDROOT
BRANCH   1  14
ATOM     14  C   UNL     1      34.317 -21.084 -20.098  0.00  0.00    -0.077 C 
BRANCH  14  15
ATOM     15  C   UNL     1      33.575 -19.784 -20.423  0.00  0.00    -0.015 C 
BRANCH  15  16
ATOM     16  C   UNL     1      34.200 -19.039 -21.606  0.00  0.00    +0.067 C 
BRANCH  16  18
ATOM     17  O   UNL     1      36.067 -17.965 -20.516  0.00  0.00    -0.291 OA
ATOM     18  C   UNL     1      35.045 -17.845 -21.189  0.00  0.00    +0.173 C 
BRANCH  18  20
ATOM     19  F   UNL     1      33.484 -12.749 -22.854  0.00  0.00    -0.204 F 
ATOM     20  C   UNL     1      34.627 -16.484 -21.633  0.00  0.00    +0.035 C 
ATOM     21  C   UNL     1      34.206 -15.579 -20.685  0.00  0.00    +0.005 C 
ATOM     22  C   UNL     1      34.679 -16.183 -22.976  0.00  0.00    +0.005 C 
ATOM     23  C   UNL     1      33.817 -14.306 -21.101  0.00  0.00    +0.030 C 
ATOM     24  C   UNL     1      34.289 -14.909 -23.392  0.00  0.00    +0.030 C 
ATOM     25  C   UNL     1      33.858 -13.971 -22.454  0.00  0.00    +0.140 C 
ENDBRANCH  18  20
ENDBRANCH  16  18
ENDBRANCH  15  16
ENDBRANCH  14  15
ENDBRANCH   1  14
TORSDOF 5
ENDMDL
MODEL 5
REMARK VINA RESULT:     -11.5      5.555     10.835
REMARK  Name = 15443
REMARK  5 active torsions:
REMARK  status: ('A' for Active; 'I' for Inactive)
REMARK    1  A    between atoms: N_1  and  C_14
REMARK    2  A    between atoms: C_14  and  C_15
REMARK    3  A    between atoms: C_15  and  C_16
REMARK    4  A    between atoms: C_16  and  C_18
REMARK    5  A    between atoms: C_18  and  C_20
REMARK                            x       y       z     vdW  Elec       q    Type
REMARK                         _______ _______ _______ _____ _____    ______ ____
ROOT
ATOM      1  N   UNL     1      34.486 -21.519 -17.706  0.00  0.00    +0.389 N 
ATOM      2  N   UNL     1      35.718 -22.693 -15.412  0.00  0.00    -0.298 N 
ATOM      3  C   UNL     1      35.946 -21.651 -17.632  0.00  0.00    -0.055 C 
ATOM      4  C   UNL     1      33.847 -22.646 -17.015  0.00  0.00    -0.055 C 
ATOM      5  C   UNL     1      36.425 -21.662 -16.178  0.00  0.00    +0.069 C 
ATOM      6  C   UNL     1      34.255 -22.690 -15.541  0.00  0.00    +0.069 C 
ATOM      7  H   UNL     1      34.210 -20.651 -17.245  0.00  0.00    -0.080 HD
ATOM      8  N   UNL     1      35.584 -23.041 -13.043  0.00  0.00    -0.229 NA
ATOM      9  C   UNL     1      36.272 -23.173 -14.219  0.00  0.00    +0.132 C 
ATOM     10  C   UNL     1      37.533 -23.784 -14.267  0.00  0.00    +0.034 C 
ATOM     11  C   UNL     1      38.096 -24.266 -13.090  0.00  0.00    +0.004 C 
ATOM     12  C   UNL     1      36.163 -23.523 -11.921  0.00  0.00    +0.100 C 
ATOM     13  C   UNL     1      37.405 -24.137 -11.891  0.00  0.00    +0.021 C 
ENDROOT
BRANCH   1  14
ATOM     14  C   UNL     1      34.045 -21.456 -19.098  0.00  0.00    -0.077 C 
BRANCH  14  15
ATOM     15  C   UNL     1      34.977 -20.549 -19.907  0.00  0.00    -0.015 C 
BRANCH  15  16
ATOM     16  C   UNL     1      34.209 -19.486 -20.698  0.00  0.00    +0.067 C 
BRANCH  16  18
ATOM     17  O   UNL     1      36.152 -18.059 -20.595  0.00  0.00    -0.291 OA
ATOM     18  C   UNL     1      35.075 -18.312 -21.130  0.00  0.00    +0.173 C 
BRANCH  18  20
ATOM     19  F   UNL     1      33.324 -15.103 -25.351  0.00  0.00    -0.204 F 
ATOM     20  C   UNL     1      34.606 -17.455 -22.256  0.00  0.00    +0.035 C 
ATOM     21  C   UNL     1      34.725 -16.088 -22.141  0.00  0.00    +0.005 C 
ATOM     22  C   UNL     1      34.073 -18.062 -23.371  0.00  0.00    +0.005 C 
ATOM     23  C   UNL     1      34.288 -15.287 -23.196  0.00  0.00    +0.030 C 
ATOM     24  C   UNL     1      33.636 -17.260 -24.427  0.00  0.00    +0.030 C 
ATOM     25  C   UNL     1      33.743 -15.873 -24.338  0.00  0.00    +0.140 C 
ENDBRANCH  18  20
ENDBRANCH  16  18
ENDBRANCH  15  16
ENDBRANCH  14  15
ENDBRANCH   1  14
TORSDOF 5
ENDMDL
MODEL 6
REMARK VINA RESULT:     -11.3      5.167     10.110
REMARK  Name = 15443
REMARK  5 active torsions:
REMARK  status: ('A' for Active; 'I' for Inactive)
REMARK    1  A    between atoms: N_1  and  C_14
REMARK    2  A    between atoms: C_14  and  C_15
REMARK    3  A    between atoms: C_15  and  C_16
REMARK    4  A    between atoms: C_16  and  C_18
REMARK    5  A    between atoms: C_18  and  C_20
REMARK                            x       y       z     vdW  Elec       q    Type
REMARK                         _______ _______ _______ _____ _____    ______ ____
ROOT
ATOM      1  N   UNL     1      35.108 -21.843 -18.424  0.00  0.00    +0.389 N 
ATOM      2  N   UNL     1      33.321 -22.550 -16.311  0.00  0.00    -0.298 N 
ATOM      3  C   UNL     1      33.658 -21.694 -18.595  0.00  0.00    -0.055 C 
ATOM      4  C   UNL     1      35.475 -21.588 -17.025  0.00  0.00    -0.055 C 
ATOM      5  C   UNL     1      32.894 -22.679 -17.708  0.00  0.00    +0.069 C 
ATOM      6  C   UNL     1      34.772 -22.570 -16.086  0.00  0.00    +0.069 C 
ATOM      7  H   UNL     1      35.371 -22.799 -18.664  0.00  0.00    -0.080 HD
ATOM      8  N   UNL     1      32.934 -23.992 -14.435  0.00  0.00    -0.229 NA
ATOM      9  C   UNL     1      32.490 -23.016 -15.285  0.00  0.00    +0.132 C 
ATOM     10  C   UNL     1      31.209 -22.460 -15.160  0.00  0.00    +0.034 C 
ATOM     11  C   UNL     1      30.372 -22.912 -14.145  0.00  0.00    +0.004 C 
ATOM     12  C   UNL     1      32.092 -24.405 -13.461  0.00  0.00    +0.100 C 
ATOM     13  C   UNL     1      30.814 -23.903 -13.275  0.00  0.00    +0.021 C 
ENDROOT
BRANCH   1  14
ATOM     14  C   UNL     1      35.827 -20.934 -19.316  0.00  0.00    -0.077 C 
BRANCH  14  15
ATOM     15  C   UNL     1      34.839 -20.168 -20.199  0.00  0.00    -0.015 C 
BRANCH  15  16
ATOM     16  C   UNL     1      35.477 -18.940 -20.854  0.00  0.00    +0.067 C 
BRANCH  16  18
ATOM     17  O   UNL     1      34.384 -19.293 -22.977  0.00  0.00    -0.291 OA
ATOM     18  C   UNL     1      34.766 -18.495 -22.124  0.00  0.00    +0.173 C 
BRANCH  18  20
ATOM     19  F   UNL     1      33.800 -13.047 -22.877  0.00  0.00    -0.204 F 
ATOM     20  C   UNL     1      34.507 -17.040 -22.324  0.00  0.00    +0.035 C 
ATOM     21  C   UNL     1      34.380 -16.232 -21.217  0.00  0.00    +0.005 C 
ATOM     22  C   UNL     1      34.406 -16.558 -23.611  0.00  0.00    +0.005 C 
ATOM     23  C   UNL     1      34.140 -14.871 -21.405  0.00  0.00    +0.030 C 
ATOM     24  C   UNL     1      34.165 -15.196 -23.798  0.00  0.00    +0.030 C 
ATOM     25  C   UNL     1      34.031 -14.354 -22.695  0.00  0.00    +0.140 C 
ENDBRANCH  18  20
ENDBRANCH  16  18
ENDBRANCH  15  16
ENDBRANCH  14  15
ENDBRANCH   1  14
TORSDOF 5
ENDMDL
MODEL 7
REMARK VINA RESULT:     -11.1      3.567      5.978
REMARK  Name = 15443
REMARK  5 active torsions:
REMARK  status: ('A' for Active; 'I' for Inactive)
REMARK    1  A    between atoms: N_1  and  C_14
REMARK    2  A    between atoms: C_14  and  C_15
REMARK    3  A    between atoms: C_15  and  C_16
REMARK    4  A    between atoms: C_16  and  C_18
REMARK    5  A    between atoms: C_18  and  C_20
REMARK                            x       y       z     vdW  Elec       q    Type
REMARK                         _______ _______ _______ _____ _____    ______ ____
ROOT
ATOM      1  N   UNL     1      35.489 -20.143 -20.406  0.00  0.00    +0.389 N 
ATOM      2  N   UNL     1      34.679 -17.873 -21.939  0.00  0.00    -0.298 N 
ATOM      3  C   UNL     1      36.162 -18.850 -20.233  0.00  0.00    -0.055 C 
ATOM      4  C   UNL     1      34.071 -19.929 -20.723  0.00  0.00    -0.055 C 
ATOM      5  C   UNL     1      36.074 -18.008 -21.509  0.00  0.00    +0.069 C 
ATOM      6  C   UNL     1      33.913 -19.124 -22.015  0.00  0.00    +0.069 C 
ATOM      7  H   UNL     1      35.928 -20.642 -21.180  0.00  0.00    -0.080 HD
ATOM      8  N   UNL     1      33.770 -17.102 -24.020  0.00  0.00    -0.229 NA
ATOM      9  C   UNL     1      34.315 -16.827 -22.795  0.00  0.00    +0.132 C 
ATOM     10  C   UNL     1      34.524 -15.509 -22.365  0.00  0.00    +0.034 C 
ATOM     11  C   UNL     1      34.168 -14.459 -23.204  0.00  0.00    +0.004 C 
ATOM     12  C   UNL     1      33.435 -16.056 -24.807  0.00  0.00    +0.100 C 
ATOM     13  C   UNL     1      33.612 -14.728 -24.450  0.00  0.00    +0.021 C 
ENDROOT
BRANCH   1  14
ATOM     14  C   UNL     1      35.626 -20.959 -19.200  0.00  0.00    -0.077 C 
BRANCH  14  15
ATOM     15  C   UNL     1      34.488 -21.980 -19.121  0.00  0.00    -0.015 C 
BRANCH  15  16
ATOM     16  C   UNL     1      34.008 -22.204 -17.684  0.00  0.00    +0.067 C 
BRANCH  16  18
ATOM     17  O   UNL     1      31.756 -21.824 -18.465  0.00  0.00    -0.291 OA
ATOM     18  C   UNL     1      32.494 -22.152 -17.538  0.00  0.00    +0.173 C 
BRANCH  18  20
ATOM     19  F   UNL     1      30.226 -23.587 -12.642  0.00  0.00    -0.204 F 
ATOM     20  C   UNL     1      31.889 -22.537 -16.231  0.00  0.00    +0.035 C 
ATOM     21  C   UNL     1      32.724 -22.855 -15.184  0.00  0.00    +0.005 C 
ATOM     22  C   UNL     1      30.517 -22.558 -16.119  0.00  0.00    +0.005 C 
ATOM     23  C   UNL     1      32.158 -23.212 -13.961  0.00  0.00    +0.030 C 
ATOM     24  C   UNL     1      29.950 -22.916 -14.895  0.00  0.00    +0.030 C 
ATOM     25  C   UNL     1      30.771 -23.244 -13.817  0.00  0.00    +0.140 C 
ENDBRANCH  18  20
ENDBRANCH  16  18
ENDBRANCH  15  16
ENDBRANCH  14  15
ENDBRANCH   1  14
TORSDOF 5
ENDMDL
MODEL 8
REMARK VINA RESULT:     -11.1      4.631      9.796
REMARK  Name = 15443
REMARK  5 active torsions:
REMARK  status: ('A' for Active; 'I' for Inactive)
REMARK    1  A    between atoms: N_1  and  C_14
REMARK    2  A    between atoms: C_14  and  C_15
REMARK    3  A    between atoms: C_15  and  C_16
REMARK    4  A    between atoms: C_16  and  C_18
REMARK    5  A    between atoms: C_18  and  C_20
REMARK                            x       y       z     vdW  Elec       q    Type
REMARK                         _______ _______ _______ _____ _____    ______ ____
ROOT
ATOM      1  N   UNL     1      34.730 -20.864 -19.930  0.00  0.00    +0.389 N 
ATOM      2  N   UNL     1      34.388 -22.058 -17.357  0.00  0.00    -0.298 N 
ATOM      3  C   UNL     1      33.386 -21.065 -19.377  0.00  0.00    -0.055 C 
ATOM      4  C   UNL     1      35.679 -20.578 -18.847  0.00  0.00    -0.055 C 
ATOM      5  C   UNL     1      33.365 -22.237 -18.392  0.00  0.00    +0.069 C 
ATOM      6  C   UNL     1      35.735 -21.733 -17.846  0.00  0.00    +0.069 C 
ATOM      7  H   UNL     1      35.021 -21.719 -20.405  0.00  0.00    -0.080 HD
ATOM      8  N   UNL     1      35.260 -23.616 -15.758  0.00  0.00    -0.229 NA
ATOM      9  C   UNL     1      34.277 -22.747 -16.144  0.00  0.00    +0.132 C 
ATOM     10  C   UNL     1      33.143 -22.522 -15.351  0.00  0.00    +0.034 C 
ATOM     11  C   UNL     1      33.018 -23.199 -14.142  0.00  0.00    +0.004 C 
ATOM     12  C   UNL     1      35.105 -24.255 -14.577  0.00  0.00    +0.100 C 
ATOM     13  C   UNL     1      34.013 -24.084 -13.741  0.00  0.00    +0.021 C 
ENDROOT
BRANCH   1  14
ATOM     14  C   UNL     1      34.727 -19.778 -20.908  0.00  0.00    -0.077 C 
BRANCH  14  15
ATOM     15  C   UNL     1      35.924 -18.852 -20.675  0.00  0.00    -0.015 C 
BRANCH  15  16
ATOM     16  C   UNL     1      36.238 -17.989 -21.901  0.00  0.00    +0.067 C 
BRANCH  16  18
ATOM     17  O   UNL     1      34.368 -18.137 -23.420  0.00  0.00    -0.291 OA
ATOM     18  C   UNL     1      34.995 -17.464 -22.604  0.00  0.00    +0.173 C 
BRANCH  18  20
ATOM     19  F   UNL     1      33.179 -12.333 -21.357  0.00  0.00    -0.204 F 
ATOM     20  C   UNL     1      34.511 -16.094 -22.271  0.00  0.00    +0.035 C 
ATOM     21  C   UNL     1      34.335 -15.188 -23.293  0.00  0.00    +0.005 C 
ATOM     22  C   UNL     1      34.256 -15.785 -20.953  0.00  0.00    +0.005 C 
ATOM     23  C   UNL     1      33.881 -13.907 -22.982  0.00  0.00    +0.030 C 
ATOM     24  C   UNL     1      33.802 -14.502 -20.642  0.00  0.00    +0.030 C 
ATOM     25  C   UNL     1      33.615 -13.564 -21.657  0.00  0.00    +0.140 C 
ENDBRANCH  18  20
ENDBRANCH  16  18
ENDBRANCH  15  16
ENDBRANCH  14  15
ENDBRANCH   1  14
TORSDOF 5
ENDMDL
MODEL 9
REMARK VINA RESULT:     -10.8      2.655      4.712
REMARK  Name = 15443
REMARK  5 active torsions:
REMARK  status: ('A' for Active; 'I' for Inactive)
REMARK    1  A    between atoms: N_1  and  C_14
REMARK    2  A    between atoms: C_14  and  C_15
REMARK    3  A    between atoms: C_15  and  C_16
REMARK    4  A    between atoms: C_16  and  C_18
REMARK    5  A    between atoms: C_18  and  C_20
REMARK                            x       y       z     vdW  Elec       q    Type
REMARK                         _______ _______ _______ _____ _____    ______ ____
ROOT
ATOM      1  N   UNL     1      31.787 -11.487 -22.307  0.00  0.00    +0.389 N 
ATOM      2  N   UNL     1      31.851  -8.631 -22.265  0.00  0.00    -0.298 N 
ATOM      3  C   UNL     1      32.762 -10.753 -23.123  0.00  0.00    -0.055 C 
ATOM      4  C   UNL     1      31.529 -10.757 -21.060  0.00  0.00    -0.055 C 
ATOM      5  C   UNL     1      32.244  -9.357 -23.477  0.00  0.00    +0.069 C 
ATOM      6  C   UNL     1      30.970  -9.362 -21.345  0.00  0.00    +0.069 C 
ATOM      7  H   UNL     1      30.913 -11.565 -22.829  0.00  0.00    -0.080 HD
ATOM      8  N   UNL     1      30.573  -6.618 -22.012  0.00  0.00    -0.229 NA
ATOM      9  C   UNL     1      31.763  -7.234 -22.290  0.00  0.00    +0.132 C 
ATOM     10  C   UNL     1      32.915  -6.499 -22.604  0.00  0.00    +0.034 C 
ATOM     11  C   UNL     1      32.843  -5.110 -22.632  0.00  0.00    +0.004 C 
ATOM     12  C   UNL     1      30.543  -5.267 -22.048  0.00  0.00    +0.100 C 
ATOM     13  C   UNL     1      31.639  -4.475 -22.350  0.00  0.00    +0.021 C 
ENDROOT
BRANCH   1  14
ATOM     14  C   UNL     1      32.269 -12.837 -22.020  0.00  0.00    -0.077 C 
BRANCH  14  15
ATOM     15  C   UNL     1      32.702 -13.530 -23.315  0.00  0.00    -0.015 C 
BRANCH  15  16
ATOM     16  C   UNL     1      34.079 -14.188 -23.188  0.00  0.00    +0.067 C 
BRANCH  16  18
ATOM     17  O   UNL     1      34.126 -15.630 -25.124  0.00  0.00    -0.291 OA
ATOM     18  C   UNL     1      34.174 -15.530 -23.900  0.00  0.00    +0.173 C 
BRANCH  18  20
ATOM     19  F   UNL     1      34.855 -20.143 -20.828  0.00  0.00    -0.204 F 
ATOM     20  C   UNL     1      34.355 -16.762 -23.079  0.00  0.00    +0.035 C 
ATOM     21  C   UNL     1      33.991 -17.975 -23.619  0.00  0.00    +0.005 C 
ATOM     22  C   UNL     1      34.880 -16.641 -21.812  0.00  0.00    +0.005 C 
ATOM     23  C   UNL     1      34.163 -19.127 -22.853  0.00  0.00    +0.030 C 
ATOM     24  C   UNL     1      35.050 -17.794 -21.045  0.00  0.00    +0.030 C 
ATOM     25  C   UNL     1      34.691 -19.037 -21.565  0.00  0.00    +0.140 C 
ENDBRANCH  18  20
ENDBRANCH  16  18
ENDBRANCH  15  16
ENDBRANCH  14  15
ENDBRANCH   1  14
TORSDOF 5
ENDMDL
