MODEL 1
REMARK VINA RESULT:     -12.3      0.000      0.000
REMARK  Name = 59174488
REMARK  8 active torsions:
REMARK  status: ('A' for Active; 'I' for Inactive)
REMARK    1  A    between atoms: N_2  and  C_12
REMARK    2  A    between atoms: N_3  and  C_24
REMARK    3  A    between atoms: C_14  and  N_19
REMARK    4  A    between atoms: C_20  and  C_22
REMARK    5  A    between atoms: C_25  and  O_30
REMARK    6  A    between atoms: O_30  and  C_31
REMARK    7  A    between atoms: C_31  and  C_32
REMARK    8  A    between atoms: C_32  and  O_33
REMARK                            x       y       z     vdW  Elec       q    Type
REMARK                         _______ _______ _______ _____ _____    ______ ____
ROOT
ATOM      1  F   UNL     1      29.176 -22.197 -16.957  0.00  0.00    -0.198 F 
ATOM      2  N   UNL     1      31.849 -22.320 -17.636  0.00  0.00    -0.285 N 
ATOM      3  N   UNL     1      32.876 -23.182 -13.106  0.00  0.00    -0.247 N 
ATOM      4  N   UNL     1      32.387 -22.755 -15.358  0.00  0.00    -0.320 NA
ATOM      5  N   UNL     1      30.633 -22.878 -13.712  0.00  0.00    -0.167 NA
ATOM      6  C   UNL     1      31.444 -22.512 -16.292  0.00  0.00    +0.226 C 
ATOM      7  C   UNL     1      31.919 -22.925 -14.107  0.00  0.00    +0.150 C 
ATOM      8  C   UNL     1      30.095 -22.438 -16.016  0.00  0.00    +0.205 C 
ATOM      9  C   UNL     1      29.743 -22.631 -14.696  0.00  0.00    +0.145 C 
ATOM     10  H   UNL     1      31.179 -22.606 -18.297  0.00  0.00    +0.155 HD
ATOM     11  H   UNL     1      32.488 -23.300 -12.209  0.00  0.00    +0.165 HD
ENDROOT
BRANCH   2  12
ATOM     12  C   UNL     1      33.022 -21.799 -18.207  0.00  0.00    +0.051 C 
ATOM     13  C   UNL     1      32.944 -20.956 -19.315  0.00  0.00    +0.029 C 
ATOM     14  C   UNL     1      34.110 -20.440 -19.882  0.00  0.00    +0.052 C 
ATOM     15  C   UNL     1      34.265 -22.124 -17.664  0.00  0.00    +0.015 C 
ATOM     16  C   UNL     1      35.353 -20.765 -19.339  0.00  0.00    +0.015 C 
ATOM     17  C   UNL     1      35.431 -21.608 -18.230  0.00  0.00    +0.003 C 
BRANCH  14  19
ATOM     18  O   UNL     1      35.609 -17.916 -20.514  0.00  0.00    -0.270 OA
ATOM     19  N   UNL     1      34.032 -19.596 -20.991  0.00  0.00    -0.280 N 
ATOM     20  C   UNL     1      34.759 -18.424 -21.237  0.00  0.00    +0.250 C 
ATOM     21  H   UNL     1      33.385 -19.856 -21.686  0.00  0.00    +0.155 HD
BRANCH  20  22
ATOM     22  C   UNL     1      34.383 -17.805 -22.541  0.00  0.00    +0.058 C 
ATOM     23  C   UNL     1      33.820 -18.540 -23.505  0.00  0.00    +0.005 C 
ENDBRANCH  20  22
ENDBRANCH  14  19
ENDBRANCH   2  12
BRANCH   3  24
ATOM     24  C   UNL     1      34.281 -23.302 -13.136  0.00  0.00    +0.058 C 
ATOM     25  C   UNL     1      37.060 -23.543 -13.197  0.00  0.00    +0.139 C 
ATOM     26  C   UNL     1      34.943 -23.997 -12.124  0.00  0.00    +0.018 C 
ATOM     27  C   UNL     1      35.008 -22.727 -14.178  0.00  0.00    +0.018 C 
ATOM     28  C   UNL     1      36.332 -24.118 -12.155  0.00  0.00    +0.038 C 
ATOM     29  C   UNL     1      36.398 -22.847 -14.209  0.00  0.00    +0.038 C 
BRANCH  25  30
ATOM     30  O   UNL     1      38.416 -23.661 -13.227  0.00  0.00    -0.473 OA
BRANCH  30  31
ATOM     31  C   UNL     1      38.953 -24.983 -13.231  0.00  0.00    +0.237 C 
BRANCH  31  32
ATOM     32  C   UNL     1      38.662 -25.630 -14.571  0.00  0.00    +0.189 C 
BRANCH  32  33
ATOM     33  O   UNL     1      37.820 -26.759 -14.368  0.00  0.00    -0.347 OA
ATOM     34  C   UNL     1      36.548 -26.574 -14.972  0.00  0.00    +0.174 C 
ENDBRANCH  32  33
ENDBRANCH  31  32
ENDBRANCH  30  31
ENDBRANCH  25  30
ENDBRANCH   3  24
TORSDOF 8
ENDMDL
MODEL 2
REMARK VINA RESULT:     -12.3      3.544      6.053
REMARK  Name = 59174488
REMARK  8 active torsions:
REMARK  status: ('A' for Active; 'I' for Inactive)
REMARK    1  A    between atoms: N_2  and  C_12
REMARK    2  A    between atoms: N_3  and  C_24
REMARK    3  A    between atoms: C_14  and  N_19
REMARK    4  A    between atoms: C_20  and  C_22
REMARK    5  A    between atoms: C_25  and  O_30
REMARK    6  A    between atoms: O_30  and  C_31
REMARK    7  A    between atoms: C_31  and  C_32
REMARK    8  A    between atoms: C_32  and  O_33
REMARK                            x       y       z     vdW  Elec       q    Type
REMARK                         _______ _______ _______ _____ _____    ______ ____
ROOT
ATOM      1  F   UNL     1      38.513 -22.822 -15.788  0.00  0.00    -0.198 F 
ATOM      2  N   UNL     1      36.126 -21.825 -16.754  0.00  0.00    -0.285 N 
ATOM      3  N   UNL     1      33.844 -24.296 -13.437  0.00  0.00    -0.247 N 
ATOM      4  N   UNL     1      34.958 -23.063 -15.090  0.00  0.00    -0.320 NA
ATOM      5  N   UNL     1      36.182 -24.433 -13.531  0.00  0.00    -0.167 NA
ATOM      6  C   UNL     1      36.134 -22.715 -15.652  0.00  0.00    +0.226 C 
ATOM      7  C   UNL     1      35.054 -23.912 -14.050  0.00  0.00    +0.150 C 
ATOM      8  C   UNL     1      37.358 -23.180 -15.216  0.00  0.00    +0.205 C 
ATOM      9  C   UNL     1      37.321 -24.044 -14.142  0.00  0.00    +0.145 C 
ATOM     10  H   UNL     1      36.933 -21.266 -16.818  0.00  0.00    +0.155 HD
ATOM     11  H   UNL     1      33.963 -24.916 -12.682  0.00  0.00    +0.165 HD
ENDROOT
BRANCH   2  12
ATOM     12  C   UNL     1      35.188 -21.585 -17.772  0.00  0.00    +0.051 C 
ATOM     13  C   UNL     1      35.518 -20.752 -18.842  0.00  0.00    +0.029 C 
ATOM     14  C   UNL     1      34.586 -20.514 -19.852  0.00  0.00    +0.052 C 
ATOM     15  C   UNL     1      33.929 -22.181 -17.714  0.00  0.00    +0.015 C 
ATOM     16  C   UNL     1      33.326 -21.111 -19.794  0.00  0.00    +0.015 C 
ATOM     17  C   UNL     1      32.997 -21.944 -18.724  0.00  0.00    +0.003 C 
BRANCH  14  19
ATOM     18  O   UNL     1      36.687 -18.382 -20.083  0.00  0.00    -0.270 OA
ATOM     19  N   UNL     1      34.915 -19.682 -20.923  0.00  0.00    -0.280 N 
ATOM     20  C   UNL     1      35.911 -18.698 -20.977  0.00  0.00    +0.250 C 
ATOM     21  H   UNL     1      34.380 -19.799 -21.740  0.00  0.00    +0.155 HD
BRANCH  20  22
ATOM     22  C   UNL     1      35.946 -18.021 -22.306  0.00  0.00    +0.058 C 
ATOM     23  C   UNL     1      34.819 -17.584 -22.876  0.00  0.00    +0.005 C 
ENDBRANCH  20  22
ENDBRANCH  14  19
ENDBRANCH   2  12
BRANCH   3  24
ATOM     24  C   UNL     1      32.497 -23.966 -13.693  0.00  0.00    +0.058 C 
ATOM     25  C   UNL     1      29.833 -23.315 -14.203  0.00  0.00    +0.139 C 
ATOM     26  C   UNL     1      32.186 -22.806 -14.404  0.00  0.00    +0.018 C 
ATOM     27  C   UNL     1      31.476 -24.799 -13.237  0.00  0.00    +0.018 C 
ATOM     28  C   UNL     1      30.854 -22.481 -14.660  0.00  0.00    +0.038 C 
ATOM     29  C   UNL     1      30.144 -24.474 -13.491  0.00  0.00    +0.038 C 
BRANCH  25  30
ATOM     30  O   UNL     1      28.532 -22.997 -14.451  0.00  0.00    -0.473 OA
BRANCH  30  31
ATOM     31  C   UNL     1      28.247 -22.353 -15.692  0.00  0.00    +0.237 C 
BRANCH  31  32
ATOM     32  C   UNL     1      27.747 -23.386 -16.682  0.00  0.00    +0.189 C 
BRANCH  32  33
ATOM     33  O   UNL     1      26.906 -22.746 -17.635  0.00  0.00    -0.347 OA
ATOM     34  C   UNL     1      26.270 -21.602 -17.083  0.00  0.00    +0.174 C 
ENDBRANCH  32  33
ENDBRANCH  31  32
ENDBRANCH  30  31
ENDBRANCH  25  30
ENDBRANCH   3  24
TORSDOF 8
ENDMDL
MODEL 3
REMARK VINA RESULT:     -11.2      2.148      8.135
REMARK  Name = 59174488
REMARK  8 active torsions:
REMARK  status: ('A' for Active; 'I' for Inactive)
REMARK    1  A    between atoms: N_2  and  C_12
REMARK    2  A    between atoms: N_3  and  C_24
REMARK    3  A    between atoms: C_14  and  N_19
REMARK    4  A    between atoms: C_20  and  C_22
REMARK    5  A    between atoms: C_25  and  O_30
REMARK    6  A    between atoms: O_30  and  C_31
REMARK    7  A    between atoms: C_31  and  C_32
REMARK    8  A    between atoms: C_32  and  O_33
REMARK                            x       y       z     vdW  Elec       q    Type
REMARK                         _______ _______ _______ _____ _____    ______ ____
ROOT
ATOM      1  F   UNL     1      32.012 -24.083 -13.068  0.00  0.00    -0.198 F 
ATOM      2  N   UNL     1      34.236 -22.944 -14.244  0.00  0.00    -0.285 N 
ATOM      3  N   UNL     1      31.603 -21.901 -18.025  0.00  0.00    -0.247 N 
ATOM      4  N   UNL     1      32.926 -22.410 -16.159  0.00  0.00    -0.320 NA
ATOM      5  N   UNL     1      30.593 -23.005 -16.222  0.00  0.00    -0.167 NA
ATOM      6  C   UNL     1      32.995 -22.959 -14.928  0.00  0.00    +0.226 C 
ATOM      7  C   UNL     1      31.713 -22.467 -16.739  0.00  0.00    +0.150 C 
ATOM      8  C   UNL     1      31.922 -23.543 -14.289  0.00  0.00    +0.205 C 
ATOM      9  C   UNL     1      30.734 -23.537 -14.990  0.00  0.00    +0.145 C 
ATOM     10  H   UNL     1      34.147 -22.909 -13.264  0.00  0.00    +0.155 HD
ATOM     11  H   UNL     1      30.699 -21.965 -18.409  0.00  0.00    +0.165 HD
ENDROOT
BRANCH   2  12
ATOM     12  C   UNL     1      35.567 -22.967 -14.693  0.00  0.00    +0.051 C 
ATOM     13  C   UNL     1      36.370 -24.079 -14.436  0.00  0.00    +0.029 C 
ATOM     14  C   UNL     1      37.691 -24.101 -14.882  0.00  0.00    +0.052 C 
ATOM     15  C   UNL     1      36.084 -21.880 -15.397  0.00  0.00    +0.015 C 
ATOM     16  C   UNL     1      38.209 -23.014 -15.585  0.00  0.00    +0.015 C 
ATOM     17  C   UNL     1      37.405 -21.902 -15.843  0.00  0.00    +0.003 C 
BRANCH  14  19
ATOM     18  O   UNL     1      40.555 -24.267 -13.995  0.00  0.00    -0.270 OA
ATOM     19  N   UNL     1      38.495 -25.213 -14.625  0.00  0.00    -0.280 N 
ATOM     20  C   UNL     1      39.834 -25.233 -14.211  0.00  0.00    +0.250 C 
ATOM     21  H   UNL     1      38.070 -26.091 -14.753  0.00  0.00    +0.155 HD
BRANCH  20  22
ATOM     22  C   UNL     1      40.338 -26.628 -14.048  0.00  0.00    +0.058 C 
ATOM     23  C   UNL     1      41.424 -26.876 -13.310  0.00  0.00    +0.005 C 
ENDBRANCH  20  22
ENDBRANCH  14  19
ENDBRANCH   2  12
BRANCH   3  24
ATOM     24  C   UNL     1      32.534 -21.261 -18.869  0.00  0.00    +0.058 C 
ATOM     25  C   UNL     1      34.375 -19.998 -20.542  0.00  0.00    +0.139 C 
ATOM     26  C   UNL     1      33.889 -21.587 -18.789  0.00  0.00    +0.018 C 
ATOM     27  C   UNL     1      32.101 -20.304 -19.786  0.00  0.00    +0.018 C 
ATOM     28  C   UNL     1      34.809 -20.956 -19.625  0.00  0.00    +0.038 C 
ATOM     29  C   UNL     1      33.022 -19.671 -20.623  0.00  0.00    +0.038 C 
BRANCH  25  30
ATOM     30  O   UNL     1      35.274 -19.382 -21.358  0.00  0.00    -0.473 OA
BRANCH  30  31
ATOM     31  C   UNL     1      35.712 -18.078 -20.976  0.00  0.00    +0.237 C 
BRANCH  31  32
ATOM     32  C   UNL     1      34.965 -17.045 -21.795  0.00  0.00    +0.189 C 
BRANCH  32  33
ATOM     33  O   UNL     1      34.525 -16.001 -20.935  0.00  0.00    -0.347 OA
ATOM     34  C   UNL     1      34.129 -14.852 -21.671  0.00  0.00    +0.174 C 
ENDBRANCH  32  33
ENDBRANCH  31  32
ENDBRANCH  30  31
ENDBRANCH  25  30
ENDBRANCH   3  24
TORSDOF 8
ENDMDL
