MODEL 1
REMARK VINA RESULT:     -11.0      0.000      0.000
REMARK  Name = 5326925
REMARK  6 active torsions:
REMARK  status: ('A' for Active; 'I' for Inactive)
REMARK    1  A    between atoms: C_5  and  O_9
REMARK    2  A    between atoms: C_6  and  O_22
REMARK    3  A    between atoms: O_9  and  C_10
REMARK    4  A    between atoms: C_13  and  C_18
REMARK    5  A    between atoms: O_22  and  C_23
REMARK    6  A    between atoms: C_28  and  C_31
REMARK                            x       y       z     vdW  Elec       q    Type
REMARK                         _______ _______ _______ _____ _____    ______ ____
ROOT
ATOM      1  O   UNL     1      32.204 -12.703 -25.182  0.00  0.00    -0.346 OA
ATOM      2  O   UNL     1      33.976 -12.417 -22.705  0.00  0.00    -0.346 OA
ATOM      3  C   UNL     1      32.831 -13.249 -22.958  0.00  0.00    +0.188 C 
ATOM      4  C   UNL     1      31.875 -12.432 -23.806  0.00  0.00    +0.188 C 
ATOM      5  C   UNL     1      33.170 -14.402 -23.871  0.00  0.00    +0.225 C 
ATOM      6  C   UNL     1      32.222 -11.008 -23.451  0.00  0.00    +0.225 C 
ATOM      7  C   UNL     1      33.198 -13.736 -25.228  0.00  0.00    +0.188 C 
ATOM      8  C   UNL     1      33.711 -11.087 -23.183  0.00  0.00    +0.188 C 
ENDROOT
BRANCH   5   9
ATOM      9  O   UNL     1      34.396 -15.025 -23.559  0.00  0.00    -0.474 OA
BRANCH   9  10
ATOM     10  C   UNL     1      34.373 -16.382 -23.335  0.00  0.00    +0.139 C 
ATOM     11  C   UNL     1      35.028 -16.903 -22.228  0.00  0.00    +0.040 C 
ATOM     12  C   UNL     1      33.697 -17.209 -24.221  0.00  0.00    +0.037 C 
ATOM     13  C   UNL     1      35.007 -18.279 -22.002  0.00  0.00    +0.034 C 
ATOM     14  C   UNL     1      33.674 -18.585 -23.994  0.00  0.00    +0.003 C 
ATOM     15  C   UNL     1      34.329 -19.120 -22.885  0.00  0.00    +0.003 C 
BRANCH  13  18
ATOM     16  N   UNL     1      35.130 -19.876 -20.104  0.00  0.00    -0.343 N 
ATOM     17  N   UNL     1      36.864 -18.355 -20.479  0.00  0.00    -0.285 NA
ATOM     18  C   UNL     1      35.690 -18.836 -20.845  0.00  0.00    +0.117 C 
ATOM     19  H   UNL     1      35.609 -20.238 -19.324  0.00  0.00    +0.144 HD
ATOM     20  H   UNL     1      34.254 -20.246 -20.360  0.00  0.00    +0.144 HD
ATOM     21  H   UNL     1      37.328 -18.731 -19.696  0.00  0.00    +0.188 HD
ENDBRANCH  13  18
ENDBRANCH   9  10
ENDBRANCH   5   9
BRANCH   6  22
ATOM     22  O   UNL     1      31.561 -10.637 -22.247  0.00  0.00    -0.474 OA
BRANCH  22  23
ATOM     23  C   UNL     1      31.375  -9.296 -22.035  0.00  0.00    +0.139 C 
ATOM     24  C   UNL     1      31.025  -8.473 -23.098  0.00  0.00    +0.037 C 
ATOM     25  C   UNL     1      31.536  -8.772 -20.757  0.00  0.00    +0.037 C 
ATOM     26  C   UNL     1      30.833  -7.108 -22.883  0.00  0.00    +0.006 C 
ATOM     27  C   UNL     1      31.343  -7.408 -20.540  0.00  0.00    +0.006 C 
ATOM     28  C   UNL     1      30.992  -6.576 -21.603  0.00  0.00    +0.031 C 
BRANCH  28  31
ATOM     29  N   UNL     1      29.771  -4.453 -22.020  0.00  0.00    -0.343 N 
ATOM     30  N   UNL     1      31.591  -4.499 -20.554  0.00  0.00    -0.285 NA
ATOM     31  C   UNL     1      30.792  -5.152 -21.378  0.00  0.00    +0.117 C 
ATOM     32  H   UNL     1      29.653  -3.491 -21.852  0.00  0.00    +0.144 HD
ATOM     33  H   UNL     1      29.168  -4.923 -22.640  0.00  0.00    +0.144 HD
ATOM     34  H   UNL     1      31.457  -3.535 -20.400  0.00  0.00    +0.188 HD
ENDBRANCH  28  31
ENDBRANCH  22  23
ENDBRANCH   6  22
TORSDOF 6
ENDMDL
MODEL 2
REMARK VINA RESULT:     -10.9      6.943     10.842
REMARK  Name = 5326925
REMARK  6 active torsions:
REMARK  status: ('A' for Active; 'I' for Inactive)
REMARK    1  A    between atoms: C_5  and  O_9
REMARK    2  A    between atoms: C_6  and  O_22
REMARK    3  A    between atoms: O_9  and  C_10
REMARK    4  A    between atoms: C_13  and  C_18
REMARK    5  A    between atoms: O_22  and  C_23
REMARK    6  A    between atoms: C_28  and  C_31
REMARK                            x       y       z     vdW  Elec       q    Type
REMARK                         _______ _______ _______ _____ _____    ______ ____
ROOT
ATOM      1  O   UNL     1      32.946 -22.195 -19.141  0.00  0.00    -0.346 OA
ATOM      2  O   UNL     1      35.895 -21.788 -18.439  0.00  0.00    -0.346 OA
ATOM      3  C   UNL     1      34.697 -21.304 -17.808  0.00  0.00    +0.188 C 
ATOM      4  C   UNL     1      33.711 -20.995 -18.919  0.00  0.00    +0.188 C 
ATOM      5  C   UNL     1      33.990 -22.395 -17.042  0.00  0.00    +0.225 C 
ATOM      6  C   UNL     1      34.599 -20.708 -20.104  0.00  0.00    +0.225 C 
ATOM      7  C   UNL     1      33.300 -23.164 -18.146  0.00  0.00    +0.188 C 
ATOM      8  C   UNL     1      35.780 -21.626 -19.863  0.00  0.00    +0.188 C 
ENDROOT
BRANCH   5   9
ATOM      9  O   UNL     1      34.861 -23.210 -16.290  0.00  0.00    -0.474 OA
BRANCH   9  10
ATOM     10  C   UNL     1      34.599 -23.340 -14.946  0.00  0.00    +0.139 C 
ATOM     11  C   UNL     1      35.582 -23.013 -14.023  0.00  0.00    +0.040 C 
ATOM     12  C   UNL     1      33.355 -23.799 -14.534  0.00  0.00    +0.037 C 
ATOM     13  C   UNL     1      35.317 -23.147 -12.660  0.00  0.00    +0.034 C 
ATOM     14  C   UNL     1      33.090 -23.931 -13.172  0.00  0.00    +0.003 C 
ATOM     15  C   UNL     1      34.070 -23.606 -12.235  0.00  0.00    +0.003 C 
BRANCH  13  18
ATOM     16  N   UNL     1      36.365 -23.404 -10.424  0.00  0.00    -0.343 N 
ATOM     17  N   UNL     1      37.265 -21.915 -11.983  0.00  0.00    -0.285 NA
ATOM     18  C   UNL     1      36.339 -22.807 -11.684  0.00  0.00    +0.117 C 
ATOM     19  H   UNL     1      37.066 -23.160  -9.778  0.00  0.00    +0.144 HD
ATOM     20  H   UNL     1      35.682 -24.071 -10.181  0.00  0.00    +0.144 HD
ATOM     21  H   UNL     1      37.958 -21.683 -11.323  0.00  0.00    +0.188 HD
ENDBRANCH  13  18
ENDBRANCH   9  10
ENDBRANCH   5   9
BRANCH   6  22
ATOM     22  O   UNL     1      35.051 -19.360 -20.053  0.00  0.00    -0.474 OA
BRANCH  22  23
ATOM     23  C   UNL     1      34.750 -18.568 -21.129  0.00  0.00    +0.139 C 
ATOM     24  C   UNL     1      34.946 -17.195 -21.049  0.00  0.00    +0.037 C 
ATOM     25  C   UNL     1      34.252 -19.146 -22.292  0.00  0.00    +0.037 C 
ATOM     26  C   UNL     1      34.640 -16.387 -22.145  0.00  0.00    +0.006 C 
ATOM     27  C   UNL     1      33.947 -18.339 -23.388  0.00  0.00    +0.006 C 
ATOM     28  C   UNL     1      34.141 -16.960 -23.314  0.00  0.00    +0.031 C 
BRANCH  28  31
ATOM     29  N   UNL     1      34.623 -15.031 -24.803  0.00  0.00    -0.343 N 
ATOM     30  N   UNL     1      32.754 -16.379 -25.188  0.00  0.00    -0.285 NA
ATOM     31  C   UNL     1      33.823 -16.119 -24.458  0.00  0.00    +0.117 C 
ATOM     32  H   UNL     1      34.390 -14.475 -25.580  0.00  0.00    +0.144 HD
ATOM     33  H   UNL     1      35.423 -14.819 -24.269  0.00  0.00    +0.144 HD
ATOM     34  H   UNL     1      32.537 -15.810 -25.963  0.00  0.00    +0.188 HD
ENDBRANCH  28  31
ENDBRANCH  22  23
ENDBRANCH   6  22
TORSDOF 6
ENDMDL
MODEL 3
REMARK VINA RESULT:     -10.7      6.863     10.780
REMARK  Name = 5326925
REMARK  6 active torsions:
REMARK  status: ('A' for Active; 'I' for Inactive)
REMARK    1  A    between atoms: C_5  and  O_9
REMARK    2  A    between atoms: C_6  and  O_22
REMARK    3  A    between atoms: O_9  and  C_10
REMARK    4  A    between atoms: C_13  and  C_18
REMARK    5  A    between atoms: O_22  and  C_23
REMARK    6  A    between atoms: C_28  and  C_31
REMARK                            x       y       z     vdW  Elec       q    Type
REMARK                         _______ _______ _______ _____ _____    ______ ____
ROOT
ATOM      1  O   UNL     1      32.921 -22.221 -19.531  0.00  0.00    -0.346 OA
ATOM      2  O   UNL     1      35.724 -21.700 -18.420  0.00  0.00    -0.346 OA
ATOM      3  C   UNL     1      34.430 -21.274 -17.961  0.00  0.00    +0.188 C 
ATOM      4  C   UNL     1      33.596 -20.993 -19.196  0.00  0.00    +0.188 C 
ATOM      5  C   UNL     1      33.670 -22.403 -17.307  0.00  0.00    +0.225 C 
ATOM      6  C   UNL     1      34.627 -20.655 -20.244  0.00  0.00    +0.225 C 
ATOM      7  C   UNL     1      33.175 -23.187 -18.501  0.00  0.00    +0.188 C 
ATOM      8  C   UNL     1      35.801 -21.526 -19.845  0.00  0.00    +0.188 C 
ENDROOT
BRANCH   5   9
ATOM      9  O   UNL     1      34.463 -23.190 -16.446  0.00  0.00    -0.474 OA
BRANCH   9  10
ATOM     10  C   UNL     1      33.981 -23.416 -15.178  0.00  0.00    +0.139 C 
ATOM     11  C   UNL     1      32.611 -23.407 -14.955  0.00  0.00    +0.040 C 
ATOM     12  C   UNL     1      34.873 -23.646 -14.139  0.00  0.00    +0.037 C 
ATOM     13  C   UNL     1      32.122 -23.634 -13.669  0.00  0.00    +0.034 C 
ATOM     14  C   UNL     1      34.384 -23.873 -12.853  0.00  0.00    +0.003 C 
ATOM     15  C   UNL     1      33.010 -23.867 -12.617  0.00  0.00    +0.003 C 
BRANCH  13  18
ATOM     16  N   UNL     1      29.835 -22.786 -14.137  0.00  0.00    -0.343 N 
ATOM     17  N   UNL     1      30.175 -24.426 -12.507  0.00  0.00    -0.285 NA
ATOM     18  C   UNL     1      30.689 -23.627 -13.423  0.00  0.00    +0.117 C 
ATOM     19  H   UNL     1      28.868 -22.798 -13.954  0.00  0.00    +0.144 HD
ATOM     20  H   UNL     1      30.201 -22.182 -14.823  0.00  0.00    +0.144 HD
ATOM     21  H   UNL     1      29.204 -24.422 -12.338  0.00  0.00    +0.188 HD
ENDBRANCH  13  18
ENDBRANCH   9  10
ENDBRANCH   5   9
BRANCH   6  22
ATOM     22  O   UNL     1      35.009 -19.291 -20.122  0.00  0.00    -0.474 OA
BRANCH  22  23
ATOM     23  C   UNL     1      34.731 -18.475 -21.187  0.00  0.00    +0.139 C 
ATOM     24  C   UNL     1      34.224 -19.023 -22.359  0.00  0.00    +0.037 C 
ATOM     25  C   UNL     1      34.957 -17.107 -21.084  0.00  0.00    +0.037 C 
ATOM     26  C   UNL     1      33.940 -18.192 -23.444  0.00  0.00    +0.006 C 
ATOM     27  C   UNL     1      34.672 -16.276 -22.168  0.00  0.00    +0.006 C 
ATOM     28  C   UNL     1      34.164 -16.819 -23.347  0.00  0.00    +0.031 C 
BRANCH  28  31
ATOM     29  N   UNL     1      34.698 -14.885 -24.811  0.00  0.00    -0.343 N 
ATOM     30  N   UNL     1      32.786 -16.170 -25.206  0.00  0.00    -0.285 NA
ATOM     31  C   UNL     1      33.866 -15.953 -24.478  0.00  0.00    +0.117 C 
ATOM     32  H   UNL     1      34.478 -14.312 -25.580  0.00  0.00    +0.144 HD
ATOM     33  H   UNL     1      35.505 -14.705 -24.278  0.00  0.00    +0.144 HD
ATOM     34  H   UNL     1      32.583 -15.585 -25.972  0.00  0.00    +0.188 HD
ENDBRANCH  28  31
ENDBRANCH  22  23
ENDBRANCH   6  22
TORSDOF 6
ENDMDL
MODEL 4
REMARK VINA RESULT:     -10.6      6.257      9.904
REMARK  Name = 5326925
REMARK  6 active torsions:
REMARK  status: ('A' for Active; 'I' for Inactive)
REMARK    1  A    between atoms: C_5  and  O_9
REMARK    2  A    between atoms: C_6  and  O_22
REMARK    3  A    between atoms: O_9  and  C_10
REMARK    4  A    between atoms: C_13  and  C_18
REMARK    5  A    between atoms: O_22  and  C_23
REMARK    6  A    between atoms: C_28  and  C_31
REMARK                            x       y       z     vdW  Elec       q    Type
REMARK                         _______ _______ _______ _____ _____    ______ ____
ROOT
ATOM      1  O   UNL     1      35.559 -20.774 -18.305  0.00  0.00    -0.346 OA
ATOM      2  O   UNL     1      32.918 -21.102 -19.813  0.00  0.00    -0.346 OA
ATOM      3  C   UNL     1      34.115 -21.899 -19.818  0.00  0.00    +0.188 C 
ATOM      4  C   UNL     1      35.283 -20.937 -19.710  0.00  0.00    +0.188 C 
ATOM      5  C   UNL     1      34.248 -22.713 -18.553  0.00  0.00    +0.225 C 
ATOM      6  C   UNL     1      34.736 -19.657 -20.291  0.00  0.00    +0.225 C 
ATOM      7  C   UNL     1      34.735 -21.682 -17.561  0.00  0.00    +0.188 C 
ATOM      8  C   UNL     1      33.274 -19.712 -19.894  0.00  0.00    +0.188 C 
ENDROOT
BRANCH   5   9
ATOM      9  O   UNL     1      33.042 -23.316 -18.144  0.00  0.00    -0.474 OA
BRANCH   9  10
ATOM     10  C   UNL     1      32.658 -23.131 -16.836  0.00  0.00    +0.139 C 
ATOM     11  C   UNL     1      33.506 -23.527 -15.811  0.00  0.00    +0.040 C 
ATOM     12  C   UNL     1      31.426 -22.552 -16.561  0.00  0.00    +0.037 C 
ATOM     13  C   UNL     1      33.116 -23.340 -14.485  0.00  0.00    +0.034 C 
ATOM     14  C   UNL     1      31.037 -22.365 -15.236  0.00  0.00    +0.003 C 
ATOM     15  C   UNL     1      31.881 -22.758 -14.197  0.00  0.00    +0.003 C 
BRANCH  13  18
ATOM     16  N   UNL     1      34.982 -24.718 -13.598  0.00  0.00    -0.343 N 
ATOM     17  N   UNL     1      33.866 -23.208 -12.207  0.00  0.00    -0.285 NA
ATOM     18  C   UNL     1      33.996 -23.752 -13.403  0.00  0.00    +0.117 C 
ATOM     19  H   UNL     1      35.567 -24.982 -12.852  0.00  0.00    +0.144 HD
ATOM     20  H   UNL     1      35.092 -25.137 -14.483  0.00  0.00    +0.144 HD
ATOM     21  H   UNL     1      34.461 -23.486 -11.473  0.00  0.00    +0.188 HD
ENDBRANCH  13  18
ENDBRANCH   9  10
ENDBRANCH   5   9
BRANCH   6  22
ATOM     22  O   UNL     1      34.825 -19.695 -21.710  0.00  0.00    -0.474 OA
BRANCH  22  23
ATOM     23  C   UNL     1      34.501 -18.544 -22.379  0.00  0.00    +0.139 C 
ATOM     24  C   UNL     1      33.797 -18.617 -23.574  0.00  0.00    +0.037 C 
ATOM     25  C   UNL     1      34.880 -17.313 -21.854  0.00  0.00    +0.037 C 
ATOM     26  C   UNL     1      33.466 -17.445 -24.255  0.00  0.00    +0.006 C 
ATOM     27  C   UNL     1      34.549 -16.141 -22.534  0.00  0.00    +0.006 C 
ATOM     28  C   UNL     1      33.843 -16.207 -23.734  0.00  0.00    +0.031 C 
BRANCH  28  31
ATOM     29  N   UNL     1      33.617 -13.736 -23.836  0.00  0.00    -0.343 N 
ATOM     30  N   UNL     1      33.055 -15.048 -25.686  0.00  0.00    -0.285 NA
ATOM     31  C   UNL     1      33.498 -14.984 -24.443  0.00  0.00    +0.117 C 
ATOM     32  H   UNL     1      33.379 -12.921 -24.333  0.00  0.00    +0.144 HD
ATOM     33  H   UNL     1      33.942 -13.669 -22.908  0.00  0.00    +0.144 HD
ATOM     34  H   UNL     1      32.821 -14.221 -26.168  0.00  0.00    +0.188 HD
ENDBRANCH  28  31
ENDBRANCH  22  23
ENDBRANCH   6  22
TORSDOF 6
ENDMDL
MODEL 5
REMARK VINA RESULT:     -10.6      7.152     10.785
REMARK  Name = 5326925
REMARK  6 active torsions:
REMARK  status: ('A' for Active; 'I' for Inactive)
REMARK    1  A    between atoms: C_5  and  O_9
REMARK    2  A    between atoms: C_6  and  O_22
REMARK    3  A    between atoms: O_9  and  C_10
REMARK    4  A    between atoms: C_13  and  C_18
REMARK    5  A    between atoms: O_22  and  C_23
REMARK    6  A    between atoms: C_28  and  C_31
REMARK                            x       y       z     vdW  Elec       q    Type
REMARK                         _______ _______ _______ _____ _____    ______ ____
ROOT
ATOM      1  O   UNL     1      33.673 -22.613 -20.082  0.00  0.00    -0.346 OA
ATOM      2  O   UNL     1      35.179 -21.489 -17.668  0.00  0.00    -0.346 OA
ATOM      3  C   UNL     1      33.837 -21.266 -18.133  0.00  0.00    +0.188 C 
ATOM      4  C   UNL     1      33.895 -21.257 -19.649  0.00  0.00    +0.188 C 
ATOM      5  C   UNL     1      32.944 -22.450 -17.850  0.00  0.00    +0.225 C 
ATOM      6  C   UNL     1      35.312 -20.835 -19.942  0.00  0.00    +0.225 C 
ATOM      7  C   UNL     1      33.342 -23.417 -18.941  0.00  0.00    +0.188 C 
ATOM      8  C   UNL     1      36.083 -21.436 -18.784  0.00  0.00    +0.188 C 
ENDROOT
BRANCH   5   9
ATOM      9  O   UNL     1      33.125 -22.996 -16.563  0.00  0.00    -0.474 OA
BRANCH   9  10
ATOM     10  C   UNL     1      32.054 -22.946 -15.702  0.00  0.00    +0.139 C 
ATOM     11  C   UNL     1      30.785 -22.694 -16.203  0.00  0.00    +0.040 C 
ATOM     12  C   UNL     1      32.260 -23.147 -14.344  0.00  0.00    +0.037 C 
ATOM     13  C   UNL     1      29.699 -22.642 -15.329  0.00  0.00    +0.034 C 
ATOM     14  C   UNL     1      31.175 -23.095 -13.470  0.00  0.00    +0.003 C 
ATOM     15  C   UNL     1      29.894 -22.843 -13.962  0.00  0.00    +0.003 C 
BRANCH  13  18
ATOM     16  N   UNL     1      27.939 -22.906 -17.061  0.00  0.00    -0.343 N 
ATOM     17  N   UNL     1      27.531 -21.623 -15.151  0.00  0.00    -0.285 NA
ATOM     18  C   UNL     1      28.364 -22.378 -15.843  0.00  0.00    +0.117 C 
ATOM     19  H   UNL     1      27.031 -22.715 -17.390  0.00  0.00    +0.144 HD
ATOM     20  H   UNL     1      28.547 -23.470 -17.592  0.00  0.00    +0.144 HD
ATOM     21  H   UNL     1      26.626 -21.443 -15.498  0.00  0.00    +0.188 HD
ENDBRANCH  13  18
ENDBRANCH   9  10
ENDBRANCH   5   9
BRANCH   6  22
ATOM     22  O   UNL     1      35.417 -19.417 -19.872  0.00  0.00    -0.474 OA
BRANCH  22  23
ATOM     23  C   UNL     1      35.023 -18.715 -20.981  0.00  0.00    +0.139 C 
ATOM     24  C   UNL     1      35.074 -17.327 -20.970  0.00  0.00    +0.037 C 
ATOM     25  C   UNL     1      34.577 -19.399 -22.107  0.00  0.00    +0.037 C 
ATOM     26  C   UNL     1      34.673 -16.611 -22.099  0.00  0.00    +0.006 C 
ATOM     27  C   UNL     1      34.177 -18.684 -23.236  0.00  0.00    +0.006 C 
ATOM     28  C   UNL     1      34.226 -17.291 -23.231  0.00  0.00    +0.031 C 
BRANCH  28  31
ATOM     29  N   UNL     1      34.482 -15.394 -24.815  0.00  0.00    -0.343 N 
ATOM     30  N   UNL     1      32.769 -16.955 -25.112  0.00  0.00    -0.285 NA
ATOM     31  C   UNL     1      33.809 -16.545 -24.409  0.00  0.00    +0.117 C 
ATOM     32  H   UNL     1      34.184 -14.905 -25.615  0.00  0.00    +0.144 HD
ATOM     33  H   UNL     1      35.258 -15.071 -24.301  0.00  0.00    +0.144 HD
ATOM     34  H   UNL     1      32.485 -16.451 -25.910  0.00  0.00    +0.188 HD
ENDBRANCH  28  31
ENDBRANCH  22  23
ENDBRANCH   6  22
TORSDOF 6
ENDMDL
MODEL 6
REMARK VINA RESULT:     -10.4      8.849     13.539
REMARK  Name = 5326925
REMARK  6 active torsions:
REMARK  status: ('A' for Active; 'I' for Inactive)
REMARK    1  A    between atoms: C_5  and  O_9
REMARK    2  A    between atoms: C_6  and  O_22
REMARK    3  A    between atoms: O_9  and  C_10
REMARK    4  A    between atoms: C_13  and  C_18
REMARK    5  A    between atoms: O_22  and  C_23
REMARK    6  A    between atoms: C_28  and  C_31
REMARK                            x       y       z     vdW  Elec       q    Type
REMARK                         _______ _______ _______ _____ _____    ______ ____
ROOT
ATOM      1  O   UNL     1      37.174 -22.391 -14.876  0.00  0.00    -0.346 OA
ATOM      2  O   UNL     1      34.540 -23.148 -16.234  0.00  0.00    -0.346 OA
ATOM      3  C   UNL     1      35.152 -21.867 -16.005  0.00  0.00    +0.188 C 
ATOM      4  C   UNL     1      35.825 -21.939 -14.648  0.00  0.00    +0.188 C 
ATOM      5  C   UNL     1      36.319 -21.634 -16.934  0.00  0.00    +0.225 C 
ATOM      6  C   UNL     1      35.032 -22.995 -13.920  0.00  0.00    +0.225 C 
ATOM      7  C   UNL     1      37.409 -22.460 -16.290  0.00  0.00    +0.188 C 
ATOM      8  C   UNL     1      34.634 -23.939 -15.037  0.00  0.00    +0.188 C 
ENDROOT
BRANCH   5   9
ATOM      9  O   UNL     1      36.068 -22.030 -18.264  0.00  0.00    -0.474 OA
BRANCH   9  10
ATOM     10  C   UNL     1      35.316 -21.181 -19.042  0.00  0.00    +0.139 C 
ATOM     11  C   UNL     1      35.940 -20.146 -19.724  0.00  0.00    +0.040 C 
ATOM     12  C   UNL     1      33.944 -21.371 -19.130  0.00  0.00    +0.037 C 
ATOM     13  C   UNL     1      35.177 -19.284 -20.512  0.00  0.00    +0.034 C 
ATOM     14  C   UNL     1      33.181 -20.510 -19.918  0.00  0.00    +0.003 C 
ATOM     15  C   UNL     1      33.797 -19.466 -20.609  0.00  0.00    +0.003 C 
BRANCH  13  18
ATOM     16  N   UNL     1      35.077 -17.149 -21.777  0.00  0.00    -0.343 N 
ATOM     17  N   UNL     1      37.131 -18.190 -21.380  0.00  0.00    -0.285 NA
ATOM     18  C   UNL     1      35.819 -18.196 -21.231  0.00  0.00    +0.117 C 
ATOM     19  H   UNL     1      35.532 -16.423 -22.261  0.00  0.00    +0.144 HD
ATOM     20  H   UNL     1      34.097 -17.138 -21.678  0.00  0.00    +0.144 HD
ATOM     21  H   UNL     1      37.568 -17.454 -21.868  0.00  0.00    +0.188 HD
ENDBRANCH  13  18
ENDBRANCH   9  10
ENDBRANCH   5   9
BRANCH   6  22
ATOM     22  O   UNL     1      33.854 -22.418 -13.369  0.00  0.00    -0.474 OA
BRANCH  22  23
ATOM     23  C   UNL     1      32.663 -23.002 -13.713  0.00  0.00    +0.139 C 
ATOM     24  C   UNL     1      31.828 -22.374 -14.628  0.00  0.00    +0.037 C 
ATOM     25  C   UNL     1      32.303 -24.219 -13.143  0.00  0.00    +0.037 C 
ATOM     26  C   UNL     1      30.616 -22.969 -14.980  0.00  0.00    +0.006 C 
ATOM     27  C   UNL     1      31.092 -24.814 -13.495  0.00  0.00    +0.006 C 
ATOM     28  C   UNL     1      30.249 -24.189 -14.413  0.00  0.00    +0.031 C 
BRANCH  28  31
ATOM     29  N   UNL     1      28.269 -24.391 -15.900  0.00  0.00    -0.343 N 
ATOM     30  N   UNL     1      28.495 -25.789 -14.042  0.00  0.00    -0.285 NA
ATOM     31  C   UNL     1      28.985 -24.811 -14.780  0.00  0.00    +0.117 C 
ATOM     32  H   UNL     1      27.417 -24.825 -16.130  0.00  0.00    +0.144 HD
ATOM     33  H   UNL     1      28.616 -23.660 -16.461  0.00  0.00    +0.144 HD
ATOM     34  H   UNL     1      27.640 -26.211 -14.288  0.00  0.00    +0.188 HD
ENDBRANCH  28  31
ENDBRANCH  22  23
ENDBRANCH   6  22
TORSDOF 6
ENDMDL
MODEL 7
REMARK VINA RESULT:     -10.4      2.064      3.074
REMARK  Name = 5326925
REMARK  6 active torsions:
REMARK  status: ('A' for Active; 'I' for Inactive)
REMARK    1  A    between atoms: C_5  and  O_9
REMARK    2  A    between atoms: C_6  and  O_22
REMARK    3  A    between atoms: O_9  and  C_10
REMARK    4  A    between atoms: C_13  and  C_18
REMARK    5  A    between atoms: O_22  and  C_23
REMARK    6  A    between atoms: C_28  and  C_31
REMARK                            x       y       z     vdW  Elec       q    Type
REMARK                         _______ _______ _______ _____ _____    ______ ____
ROOT
ATOM      1  O   UNL     1      33.687 -13.512 -20.704  0.00  0.00    -0.346 OA
ATOM      2  O   UNL     1      32.837 -14.378 -23.513  0.00  0.00    -0.346 OA
ATOM      3  C   UNL     1      34.140 -14.179 -22.938  0.00  0.00    +0.188 C 
ATOM      4  C   UNL     1      34.030 -12.990 -22.003  0.00  0.00    +0.188 C 
ATOM      5  C   UNL     1      34.511 -15.299 -21.996  0.00  0.00    +0.225 C 
ATOM      6  C   UNL     1      32.878 -12.201 -22.575  0.00  0.00    +0.225 C 
ATOM      7  C   UNL     1      33.723 -14.945 -20.755  0.00  0.00    +0.188 C 
ATOM      8  C   UNL     1      31.981 -13.286 -23.137  0.00  0.00    +0.188 C 
ENDROOT
BRANCH   5   9
ATOM      9  O   UNL     1      34.182 -16.579 -22.486  0.00  0.00    -0.474 OA
BRANCH   9  10
ATOM     10  C   UNL     1      34.659 -17.663 -21.786  0.00  0.00    +0.139 C 
ATOM     11  C   UNL     1      33.762 -18.555 -21.214  0.00  0.00    +0.040 C 
ATOM     12  C   UNL     1      36.029 -17.846 -21.659  0.00  0.00    +0.037 C 
ATOM     13  C   UNL     1      34.245 -19.653 -20.502  0.00  0.00    +0.034 C 
ATOM     14  C   UNL     1      36.511 -18.943 -20.948  0.00  0.00    +0.003 C 
ATOM     15  C   UNL     1      35.620 -19.847 -20.369  0.00  0.00    +0.003 C 
BRANCH  13  18
ATOM     16  N   UNL     1      33.763 -21.634 -19.084  0.00  0.00    -0.343 N 
ATOM     17  N   UNL     1      32.020 -20.475 -20.122  0.00  0.00    -0.285 NA
ATOM     18  C   UNL     1      33.315 -20.594 -19.899  0.00  0.00    +0.117 C 
ATOM     19  H   UNL     1      33.116 -22.260 -18.686  0.00  0.00    +0.144 HD
ATOM     20  H   UNL     1      34.726 -21.741 -18.908  0.00  0.00    +0.144 HD
ATOM     21  H   UNL     1      31.388 -21.112 -19.715  0.00  0.00    +0.188 HD
ENDBRANCH  13  18
ENDBRANCH   9  10
ENDBRANCH   5   9
BRANCH   6  22
ATOM     22  O   UNL     1      33.337 -11.388 -23.648  0.00  0.00    -0.474 OA
BRANCH  22  23
ATOM     23  C   UNL     1      33.280 -10.032 -23.461  0.00  0.00    +0.139 C 
ATOM     24  C   UNL     1      34.380  -9.246 -23.782  0.00  0.00    +0.037 C 
ATOM     25  C   UNL     1      32.121  -9.455 -22.954  0.00  0.00    +0.037 C 
ATOM     26  C   UNL     1      34.322  -7.865 -23.593  0.00  0.00    +0.006 C 
ATOM     27  C   UNL     1      32.062  -8.074 -22.766  0.00  0.00    +0.006 C 
ATOM     28  C   UNL     1      33.162  -7.280 -23.086  0.00  0.00    +0.031 C 
BRANCH  28  31
ATOM     29  N   UNL     1      32.367  -5.280 -21.844  0.00  0.00    -0.343 N 
ATOM     30  N   UNL     1      33.744  -5.035 -23.716  0.00  0.00    -0.285 NA
ATOM     31  C   UNL     1      33.100  -5.839 -22.889  0.00  0.00    +0.117 C 
ATOM     32  H   UNL     1      32.339  -4.304 -21.729  0.00  0.00    +0.144 HD
ATOM     33  H   UNL     1      31.878  -5.864 -21.219  0.00  0.00    +0.144 HD
ATOM     34  H   UNL     1      33.703  -4.059 -23.585  0.00  0.00    +0.188 HD
ENDBRANCH  28  31
ENDBRANCH  22  23
ENDBRANCH   6  22
TORSDOF 6
ENDMDL
MODEL 8
REMARK VINA RESULT:     -10.3      4.835     11.724
REMARK  Name = 5326925
REMARK  6 active torsions:
REMARK  status: ('A' for Active; 'I' for Inactive)
REMARK    1  A    between atoms: C_5  and  O_9
REMARK    2  A    between atoms: C_6  and  O_22
REMARK    3  A    between atoms: O_9  and  C_10
REMARK    4  A    between atoms: C_13  and  C_18
REMARK    5  A    between atoms: O_22  and  C_23
REMARK    6  A    between atoms: C_28  and  C_31
REMARK                            x       y       z     vdW  Elec       q    Type
REMARK                         _______ _______ _______ _____ _____    ______ ____
ROOT
ATOM      1  O   UNL     1      36.911 -19.203 -21.032  0.00  0.00    -0.346 OA
ATOM      2  O   UNL     1      33.874 -19.323 -21.378  0.00  0.00    -0.346 OA
ATOM      3  C   UNL     1      34.706 -18.427 -20.621  0.00  0.00    +0.188 C 
ATOM      4  C   UNL     1      35.847 -19.254 -20.062  0.00  0.00    +0.188 C 
ATOM      5  C   UNL     1      35.423 -17.444 -21.514  0.00  0.00    +0.225 C 
ATOM      6  C   UNL     1      35.268 -20.644 -19.988  0.00  0.00    +0.225 C 
ATOM      7  C   UNL     1      36.548 -18.285 -22.073  0.00  0.00    +0.188 C 
ATOM      8  C   UNL     1      34.324 -20.673 -21.173  0.00  0.00    +0.188 C 
ENDROOT
BRANCH   5   9
ATOM      9  O   UNL     1      34.607 -16.905 -22.529  0.00  0.00    -0.474 OA
BRANCH   9  10
ATOM     10  C   UNL     1      34.162 -15.614 -22.361  0.00  0.00    +0.139 C 
ATOM     11  C   UNL     1      33.740 -14.888 -23.465  0.00  0.00    +0.040 C 
ATOM     12  C   UNL     1      34.145 -15.058 -21.089  0.00  0.00    +0.037 C 
ATOM     13  C   UNL     1      33.292 -13.578 -23.295  0.00  0.00    +0.034 C 
ATOM     14  C   UNL     1      33.696 -13.750 -20.919  0.00  0.00    +0.003 C 
ATOM     15  C   UNL     1      33.269 -13.009 -22.021  0.00  0.00    +0.003 C 
BRANCH  13  18
ATOM     16  N   UNL     1      32.795 -11.413 -24.407  0.00  0.00    -0.343 N 
ATOM     17  N   UNL     1      32.480 -13.426 -25.551  0.00  0.00    -0.285 NA
ATOM     18  C   UNL     1      32.847 -12.806 -24.445  0.00  0.00    +0.117 C 
ATOM     19  H   UNL     1      32.490 -10.911 -25.196  0.00  0.00    +0.144 HD
ATOM     20  H   UNL     1      33.062 -10.933 -23.589  0.00  0.00    +0.144 HD
ATOM     21  H   UNL     1      32.178 -12.905 -26.331  0.00  0.00    +0.188 HD
ENDBRANCH  13  18
ENDBRANCH   9  10
ENDBRANCH   5   9
BRANCH   6  22
ATOM     22  O   UNL     1      34.506 -20.786 -18.795  0.00  0.00    -0.474 OA
BRANCH  22  23
ATOM     23  C   UNL     1      35.121 -21.410 -17.741  0.00  0.00    +0.139 C 
ATOM     24  C   UNL     1      34.398 -22.289 -16.945  0.00  0.00    +0.037 C 
ATOM     25  C   UNL     1      36.464 -21.159 -17.481  0.00  0.00    +0.037 C 
ATOM     26  C   UNL     1      35.024 -22.925 -15.872  0.00  0.00    +0.006 C 
ATOM     27  C   UNL     1      37.091 -21.795 -16.410  0.00  0.00    +0.006 C 
ATOM     28  C   UNL     1      36.371 -22.678 -15.606  0.00  0.00    +0.031 C 
BRANCH  28  31
ATOM     29  N   UNL     1      37.538 -24.633 -14.612  0.00  0.00    -0.343 N 
ATOM     30  N   UNL     1      37.135 -22.722 -13.328  0.00  0.00    -0.285 NA
ATOM     31  C   UNL     1      37.025 -23.343 -14.489  0.00  0.00    +0.117 C 
ATOM     32  H   UNL     1      37.977 -25.063 -13.844  0.00  0.00    +0.144 HD
ATOM     33  H   UNL     1      37.463 -25.113 -15.469  0.00  0.00    +0.144 HD
ATOM     34  H   UNL     1      37.577 -23.170 -12.571  0.00  0.00    +0.188 HD
ENDBRANCH  28  31
ENDBRANCH  22  23
ENDBRANCH   6  22
TORSDOF 6
ENDMDL
MODEL 9
REMARK VINA RESULT:     -10.0      6.630     10.717
REMARK  Name = 5326925
REMARK  6 active torsions:
REMARK  status: ('A' for Active; 'I' for Inactive)
REMARK    1  A    between atoms: C_5  and  O_9
REMARK    2  A    between atoms: C_6  and  O_22
REMARK    3  A    between atoms: O_9  and  C_10
REMARK    4  A    between atoms: C_13  and  C_18
REMARK    5  A    between atoms: O_22  and  C_23
REMARK    6  A    between atoms: C_28  and  C_31
REMARK                            x       y       z     vdW  Elec       q    Type
REMARK                         _______ _______ _______ _____ _____    ______ ____
ROOT
ATOM      1  O   UNL     1      32.150 -21.442 -18.655  0.00  0.00    -0.346 OA
ATOM      2  O   UNL     1      35.029 -22.442 -18.925  0.00  0.00    -0.346 OA
ATOM      3  C   UNL     1      34.417 -21.569 -17.960  0.00  0.00    +0.188 C 
ATOM      4  C   UNL     1      33.402 -20.729 -18.710  0.00  0.00    +0.188 C 
ATOM      5  C   UNL     1      33.552 -22.332 -16.986  0.00  0.00    +0.225 C 
ATOM      6  C   UNL     1      33.936 -20.711 -20.120  0.00  0.00    +0.225 C 
ATOM      7  C   UNL     1      32.303 -22.584 -17.801  0.00  0.00    +0.188 C 
ATOM      8  C   UNL     1      34.591 -22.072 -20.243  0.00  0.00    +0.188 C 
ENDROOT
BRANCH   5   9
ATOM      9  O   UNL     1      34.139 -23.530 -16.530  0.00  0.00    -0.474 OA
BRANCH   9  10
ATOM     10  C   UNL     1      34.987 -23.444 -15.450  0.00  0.00    +0.139 C 
ATOM     11  C   UNL     1      35.332 -24.596 -14.759  0.00  0.00    +0.040 C 
ATOM     12  C   UNL     1      35.481 -22.205 -15.067  0.00  0.00    +0.037 C 
ATOM     13  C   UNL     1      36.190 -24.509 -13.662  0.00  0.00    +0.034 C 
ATOM     14  C   UNL     1      36.338 -22.117 -13.972  0.00  0.00    +0.003 C 
ATOM     15  C   UNL     1      36.693 -23.268 -13.269  0.00  0.00    +0.003 C 
BRANCH  13  18
ATOM     16  N   UNL     1      36.830 -26.907 -13.590  0.00  0.00    -0.343 N 
ATOM     17  N   UNL     1      36.639 -25.678 -11.612  0.00  0.00    -0.285 NA
ATOM     18  C   UNL     1      36.559 -25.709 -12.930  0.00  0.00    +0.117 C 
ATOM     19  H   UNL     1      37.078 -27.708 -13.075  0.00  0.00    +0.144 HD
ATOM     20  H   UNL     1      36.773 -26.951 -14.573  0.00  0.00    +0.144 HD
ATOM     21  H   UNL     1      36.888 -26.490 -11.114  0.00  0.00    +0.188 HD
ENDBRANCH  13  18
ENDBRANCH   9  10
ENDBRANCH   5   9
BRANCH   6  22
ATOM     22  O   UNL     1      34.939 -19.710 -20.242  0.00  0.00    -0.474 OA
BRANCH  22  23
ATOM     23  C   UNL     1      34.709 -18.715 -21.156  0.00  0.00    +0.139 C 
ATOM     24  C   UNL     1      34.976 -17.394 -20.817  0.00  0.00    +0.037 C 
ATOM     25  C   UNL     1      34.211 -19.037 -22.414  0.00  0.00    +0.037 C 
ATOM     26  C   UNL     1      34.742 -16.381 -21.747  0.00  0.00    +0.006 C 
ATOM     27  C   UNL     1      33.979 -18.025 -23.344  0.00  0.00    +0.006 C 
ATOM     28  C   UNL     1      34.244 -16.697 -23.011  0.00  0.00    +0.031 C 
BRANCH  28  31
ATOM     29  N   UNL     1      33.698 -14.341 -23.579  0.00  0.00    -0.343 N 
ATOM     30  N   UNL     1      34.061 -15.909 -25.273  0.00  0.00    -0.285 NA
ATOM     31  C   UNL     1      34.001 -15.640 -23.982  0.00  0.00    +0.117 C 
ATOM     32  H   UNL     1      33.538 -13.642 -24.252  0.00  0.00    +0.144 HD
ATOM     33  H   UNL     1      33.646 -14.123 -22.621  0.00  0.00    +0.144 HD
ATOM     34  H   UNL     1      33.897 -15.195 -25.933  0.00  0.00    +0.188 HD
ENDBRANCH  28  31
ENDBRANCH  22  23
ENDBRANCH   6  22
TORSDOF 6
ENDMDL
