MODEL 1
REMARK VINA RESULT:     -12.8      0.000      0.000
REMARK  Name = 6419766
REMARK  1 active torsions:
REMARK  status: ('A' for Active; 'I' for Inactive)
REMARK    1  A    between atoms: C_9  and  C_20
REMARK                            x       y       z     vdW  Elec       q    Type
REMARK                         _______ _______ _______ _____ _____    ______ ____
ROOT
ATOM      1  N   UNL     1      33.861 -23.742 -14.229  0.00  0.00    -0.274 N 
ATOM      2  N   UNL     1      33.556 -22.642 -16.287  0.00  0.00    -0.328 NA
ATOM      3  N   UNL     1      31.351 -22.358 -17.213  0.00  0.00    -0.343 NA
ATOM      4  N   UNL     1      37.087 -24.718 -14.848  0.00  0.00    -0.239 N 
ATOM      5  N   UNL     1      35.929 -24.246 -15.338  0.00  0.00    -0.166 NA
ATOM      6  C   UNL     1      31.618 -23.483 -15.113  0.00  0.00    +0.143 C 
ATOM      7  C   UNL     1      32.988 -23.274 -15.243  0.00  0.00    +0.185 C 
ATOM      8  C   UNL     1      30.815 -22.992 -16.156  0.00  0.00    +0.133 C 
ATOM      9  C   UNL     1      32.692 -22.217 -17.222  0.00  0.00    +0.138 C 
ATOM     10  C   UNL     1      35.194 -24.185 -14.257  0.00  0.00    +0.152 C 
ATOM     11  C   UNL     1      31.048 -24.146 -14.012  0.00  0.00    -0.011 C 
ATOM     12  C   UNL     1      29.440 -23.184 -16.061  0.00  0.00    +0.029 C 
ATOM     13  C   UNL     1      35.806 -24.591 -13.083  0.00  0.00    +0.048 C 
ATOM     14  C   UNL     1      37.066 -24.942 -13.502  0.00  0.00    +0.046 C 
ATOM     15  C   UNL     1      29.670 -24.323 -13.944  0.00  0.00    -0.004 C 
ATOM     16  C   UNL     1      28.865 -23.842 -14.970  0.00  0.00    +0.002 C 
ATOM     17  C   UNL     1      38.237 -25.459 -12.774  0.00  0.00    +0.049 C 
ATOM     18  H   UNL     1      33.456 -23.760 -13.333  0.00  0.00    +0.156 HD
ATOM     19  H   UNL     1      37.878 -24.887 -15.408  0.00  0.00    +0.174 HD
ENDROOT
BRANCH   9  20
ATOM     20  C   UNL     1      33.256 -21.536 -18.358  0.00  0.00    +0.086 C 
ATOM     21  C   UNL     1      32.441 -20.776 -19.201  0.00  0.00    +0.012 C 
ATOM     22  C   UNL     1      34.626 -21.629 -18.625  0.00  0.00    +0.012 C 
ATOM     23  C   UNL     1      32.988 -20.115 -20.300  0.00  0.00    +0.001 C 
ATOM     24  C   UNL     1      35.174 -20.968 -19.723  0.00  0.00    +0.001 C 
ATOM     25  C   UNL     1      34.355 -20.209 -20.561  0.00  0.00    +0.000 C 
ENDBRANCH   9  20
TORSDOF 1
ENDMDL
MODEL 2
REMARK VINA RESULT:     -12.4      1.593      5.787
REMARK  Name = 6419766
REMARK  1 active torsions:
REMARK  status: ('A' for Active; 'I' for Inactive)
REMARK    1  A    between atoms: C_9  and  C_20
REMARK                            x       y       z     vdW  Elec       q    Type
REMARK                         _______ _______ _______ _____ _____    ______ ____
ROOT
ATOM      1  N   UNL     1      33.037 -22.171 -17.774  0.00  0.00    -0.274 N 
ATOM      2  N   UNL     1      34.497 -23.303 -16.316  0.00  0.00    -0.328 NA
ATOM      3  N   UNL     1      33.713 -24.143 -14.199  0.00  0.00    -0.343 NA
ATOM      4  N   UNL     1      35.485 -20.393 -19.383  0.00  0.00    -0.239 N 
ATOM      5  N   UNL     1      35.135 -21.146 -18.327  0.00  0.00    -0.166 NA
ATOM      6  C   UNL     1      32.193 -22.995 -15.656  0.00  0.00    +0.143 C 
ATOM      7  C   UNL     1      33.252 -22.844 -16.545  0.00  0.00    +0.185 C 
ATOM      8  C   UNL     1      32.481 -23.672 -14.459  0.00  0.00    +0.133 C 
ATOM      9  C   UNL     1      34.654 -23.932 -15.141  0.00  0.00    +0.138 C 
ATOM     10  C   UNL     1      33.878 -21.399 -18.592  0.00  0.00    +0.152 C 
ATOM     11  C   UNL     1      30.900 -22.507 -15.918  0.00  0.00    -0.011 C 
ATOM     12  C   UNL     1      31.445 -23.843 -13.544  0.00  0.00    +0.029 C 
ATOM     13  C   UNL     1      33.384 -20.854 -19.764  0.00  0.00    +0.048 C 
ATOM     14  C   UNL     1      34.472 -20.188 -20.274  0.00  0.00    +0.046 C 
ATOM     15  C   UNL     1      29.885 -22.692 -14.985  0.00  0.00    -0.004 C 
ATOM     16  C   UNL     1      30.157 -23.360 -13.797  0.00  0.00    +0.002 C 
ATOM     17  C   UNL     1      34.652 -19.390 -21.497  0.00  0.00    +0.049 C 
ATOM     18  H   UNL     1      32.121 -22.262 -18.121  0.00  0.00    +0.156 HD
ATOM     19  H   UNL     1      36.389 -20.023 -19.503  0.00  0.00    +0.174 HD
ENDROOT
BRANCH   9  20
ATOM     20  C   UNL     1      35.971 -24.440 -14.855  0.00  0.00    +0.086 C 
ATOM     21  C   UNL     1      37.061 -23.568 -14.780  0.00  0.00    +0.012 C 
ATOM     22  C   UNL     1      36.168 -25.808 -14.648  0.00  0.00    +0.012 C 
ATOM     23  C   UNL     1      38.336 -24.060 -14.501  0.00  0.00    +0.001 C 
ATOM     24  C   UNL     1      37.442 -26.300 -14.368  0.00  0.00    +0.001 C 
ATOM     25  C   UNL     1      38.527 -25.426 -14.294  0.00  0.00    +0.000 C 
ENDBRANCH   9  20
TORSDOF 1
ENDMDL
MODEL 3
REMARK VINA RESULT:     -12.3      1.234      4.938
REMARK  Name = 6419766
REMARK  1 active torsions:
REMARK  status: ('A' for Active; 'I' for Inactive)
REMARK    1  A    between atoms: C_9  and  C_20
REMARK                            x       y       z     vdW  Elec       q    Type
REMARK                         _______ _______ _______ _____ _____    ______ ____
ROOT
ATOM      1  N   UNL     1      35.279 -22.882 -16.099  0.00  0.00    -0.274 N 
ATOM      2  N   UNL     1      32.927 -22.938 -16.081  0.00  0.00    -0.328 NA
ATOM      3  N   UNL     1      31.659 -21.892 -17.841  0.00  0.00    -0.343 NA
ATOM      4  N   UNL     1      35.648 -23.255 -12.713  0.00  0.00    -0.239 N 
ATOM      5  N   UNL     1      34.833 -22.972 -13.743  0.00  0.00    -0.166 NA
ATOM      6  C   UNL     1      34.054 -21.813 -17.898  0.00  0.00    +0.143 C 
ATOM      7  C   UNL     1      34.047 -22.535 -16.708  0.00  0.00    +0.185 C 
ATOM      8  C   UNL     1      32.797 -21.505 -18.443  0.00  0.00    +0.133 C 
ATOM      9  C   UNL     1      31.785 -22.587 -16.693  0.00  0.00    +0.138 C 
ATOM     10  C   UNL     1      35.650 -23.084 -14.760  0.00  0.00    +0.152 C 
ATOM     11  C   UNL     1      35.239 -21.403 -18.535  0.00  0.00    -0.011 C 
ATOM     12  C   UNL     1      32.764 -20.783 -19.632  0.00  0.00    +0.029 C 
ATOM     13  C   UNL     1      36.957 -23.425 -14.454  0.00  0.00    +0.048 C 
ATOM     14  C   UNL     1      36.931 -23.533 -13.084  0.00  0.00    +0.046 C 
ATOM     15  C   UNL     1      35.175 -20.682 -19.723  0.00  0.00    -0.004 C 
ATOM     16  C   UNL     1      33.937 -20.371 -20.273  0.00  0.00    +0.002 C 
ATOM     17  C   UNL     1      37.977 -23.868 -12.105  0.00  0.00    +0.049 C 
ATOM     18  H   UNL     1      36.017 -23.007 -16.738  0.00  0.00    +0.156 HD
ATOM     19  H   UNL     1      35.347 -23.261 -11.776  0.00  0.00    +0.174 HD
ENDROOT
BRANCH   9  20
ATOM     20  C   UNL     1      30.561 -22.998 -16.056  0.00  0.00    +0.086 C 
ATOM     21  C   UNL     1      29.346 -22.407 -16.415  0.00  0.00    +0.012 C 
ATOM     22  C   UNL     1      30.579 -23.993 -15.073  0.00  0.00    +0.012 C 
ATOM     23  C   UNL     1      28.161 -22.807 -15.799  0.00  0.00    +0.001 C 
ATOM     24  C   UNL     1      29.394 -24.393 -14.457  0.00  0.00    +0.001 C 
ATOM     25  C   UNL     1      28.183 -23.800 -14.820  0.00  0.00    +0.000 C 
ENDBRANCH   9  20
TORSDOF 1
ENDMDL
MODEL 4
REMARK VINA RESULT:     -11.7      1.750      5.296
REMARK  Name = 6419766
REMARK  1 active torsions:
REMARK  status: ('A' for Active; 'I' for Inactive)
REMARK    1  A    between atoms: C_9  and  C_20
REMARK                            x       y       z     vdW  Elec       q    Type
REMARK                         _______ _______ _______ _____ _____    ______ ____
ROOT
ATOM      1  N   UNL     1      32.583 -23.401 -16.035  0.00  0.00    -0.274 N 
ATOM      2  N   UNL     1      33.641 -22.054 -17.648  0.00  0.00    -0.328 NA
ATOM      3  N   UNL     1      35.981 -21.518 -17.458  0.00  0.00    -0.343 NA
ATOM      4  N   UNL     1      29.432 -22.172 -16.588  0.00  0.00    -0.239 N 
ATOM      5  N   UNL     1      30.756 -22.027 -16.765  0.00  0.00    -0.166 NA
ATOM      6  C   UNL     1      34.941 -22.894 -15.793  0.00  0.00    +0.143 C 
ATOM      7  C   UNL     1      33.756 -22.762 -16.509  0.00  0.00    +0.185 C 
ATOM      8  C   UNL     1      36.062 -22.233 -16.322  0.00  0.00    +0.133 C 
ATOM      9  C   UNL     1      34.776 -21.466 -18.059  0.00  0.00    +0.138 C 
ATOM     10  C   UNL     1      31.220 -23.081 -16.143  0.00  0.00    +0.152 C 
ATOM     11  C   UNL     1      35.036 -23.641 -14.604  0.00  0.00    -0.011 C 
ATOM     12  C   UNL     1      37.266 -22.343 -15.633  0.00  0.00    +0.029 C 
ATOM     13  C   UNL     1      30.273 -23.911 -15.568  0.00  0.00    +0.048 C 
ATOM     14  C   UNL     1      29.089 -23.285 -15.877  0.00  0.00    +0.046 C 
ATOM     15  C   UNL     1      36.253 -23.731 -13.937  0.00  0.00    -0.004 C 
ATOM     16  C   UNL     1      37.369 -23.082 -14.450  0.00  0.00    +0.002 C 
ATOM     17  C   UNL     1      27.689 -23.623 -15.576  0.00  0.00    +0.049 C 
ATOM     18  H   UNL     1      32.757 -24.230 -15.533  0.00  0.00    +0.156 HD
ATOM     19  H   UNL     1      28.770 -21.534 -16.939  0.00  0.00    +0.174 HD
ENDROOT
BRANCH   9  20
ATOM     20  C   UNL     1      34.699 -20.698 -19.274  0.00  0.00    +0.086 C 
ATOM     21  C   UNL     1      33.463 -20.466 -19.883  0.00  0.00    +0.012 C 
ATOM     22  C   UNL     1      35.861 -20.178 -19.853  0.00  0.00    +0.012 C 
ATOM     23  C   UNL     1      33.388 -19.720 -21.060  0.00  0.00    +0.001 C 
ATOM     24  C   UNL     1      35.787 -19.433 -21.028  0.00  0.00    +0.001 C 
ATOM     25  C   UNL     1      34.550 -19.203 -21.633  0.00  0.00    +0.000 C 
ENDBRANCH   9  20
TORSDOF 1
ENDMDL
MODEL 5
REMARK VINA RESULT:     -11.3      1.701      6.538
REMARK  Name = 6419766
REMARK  1 active torsions:
REMARK  status: ('A' for Active; 'I' for Inactive)
REMARK    1  A    between atoms: C_9  and  C_20
REMARK                            x       y       z     vdW  Elec       q    Type
REMARK                         _______ _______ _______ _____ _____    ______ ____
ROOT
ATOM      1  N   UNL     1      35.862 -21.964 -16.636  0.00  0.00    -0.274 N 
ATOM      2  N   UNL     1      34.028 -22.791 -15.417  0.00  0.00    -0.328 NA
ATOM      3  N   UNL     1      34.355 -24.344 -13.605  0.00  0.00    -0.343 NA
ATOM      4  N   UNL     1      34.084 -21.267 -19.481  0.00  0.00    -0.239 N 
ATOM      5  N   UNL     1      34.131 -21.899 -18.297  0.00  0.00    -0.166 NA
ATOM      6  C   UNL     1      36.252 -23.525 -14.823  0.00  0.00    +0.143 C 
ATOM      7  C   UNL     1      35.362 -22.784 -15.594  0.00  0.00    +0.185 C 
ATOM      8  C   UNL     1      35.684 -24.315 -13.809  0.00  0.00    +0.133 C 
ATOM      9  C   UNL     1      33.599 -23.582 -14.420  0.00  0.00    +0.138 C 
ATOM     10  C   UNL     1      35.318 -21.554 -17.864  0.00  0.00    +0.152 C 
ATOM     11  C   UNL     1      37.643 -23.501 -15.027  0.00  0.00    -0.011 C 
ATOM     12  C   UNL     1      36.543 -25.071 -13.017  0.00  0.00    +0.029 C 
ATOM     13  C   UNL     1      36.052 -20.730 -18.700  0.00  0.00    +0.048 C 
ATOM     14  C   UNL     1      35.210 -20.553 -19.771  0.00  0.00    +0.046 C 
ATOM     15  C   UNL     1      38.477 -24.267 -14.220  0.00  0.00    -0.004 C 
ATOM     16  C   UNL     1      37.928 -25.053 -13.214  0.00  0.00    +0.002 C 
ATOM     17  C   UNL     1      35.356 -19.790 -21.021  0.00  0.00    +0.049 C 
ATOM     18  H   UNL     1      36.766 -21.613 -16.466  0.00  0.00    +0.156 HD
ATOM     19  H   UNL     1      33.309 -21.315 -20.086  0.00  0.00    +0.174 HD
ENDROOT
BRANCH   9  20
ATOM     20  C   UNL     1      32.178 -23.619 -14.195  0.00  0.00    +0.086 C 
ATOM     21  C   UNL     1      31.348 -22.648 -14.763  0.00  0.00    +0.012 C 
ATOM     22  C   UNL     1      31.616 -24.628 -13.406  0.00  0.00    +0.012 C 
ATOM     23  C   UNL     1      29.971 -22.686 -14.546  0.00  0.00    +0.001 C 
ATOM     24  C   UNL     1      30.240 -24.666 -13.188  0.00  0.00    +0.001 C 
ATOM     25  C   UNL     1      29.416 -23.695 -13.759  0.00  0.00    +0.000 C 
ENDBRANCH   9  20
TORSDOF 1
ENDMDL
MODEL 6
REMARK VINA RESULT:     -10.6      1.633      6.432
REMARK  Name = 6419766
REMARK  1 active torsions:
REMARK  status: ('A' for Active; 'I' for Inactive)
REMARK    1  A    between atoms: C_9  and  C_20
REMARK                            x       y       z     vdW  Elec       q    Type
REMARK                         _______ _______ _______ _____ _____    ______ ____
ROOT
ATOM      1  N   UNL     1      32.101 -22.675 -15.965  0.00  0.00    -0.274 N 
ATOM      2  N   UNL     1      34.262 -22.890 -15.058  0.00  0.00    -0.328 NA
ATOM      3  N   UNL     1      36.201 -22.243 -16.332  0.00  0.00    -0.343 NA
ATOM      4  N   UNL     1      30.677 -25.107 -14.016  0.00  0.00    -0.239 N 
ATOM      5  N   UNL     1      31.801 -24.539 -14.484  0.00  0.00    -0.166 NA
ATOM      6  C   UNL     1      34.017 -22.007 -17.293  0.00  0.00    +0.143 C 
ATOM      7  C   UNL     1      33.503 -22.521 -16.106  0.00  0.00    +0.185 C 
ATOM      8  C   UNL     1      35.414 -21.883 -17.361  0.00  0.00    +0.133 C 
ATOM      9  C   UNL     1      35.583 -22.728 -15.236  0.00  0.00    +0.138 C 
ATOM     10  C   UNL     1      31.317 -23.582 -15.235  0.00  0.00    +0.152 C 
ATOM     11  C   UNL     1      33.203 -21.627 -18.376  0.00  0.00    -0.011 C 
ATOM     12  C   UNL     1      35.965 -21.373 -18.534  0.00  0.00    +0.029 C 
ATOM     13  C   UNL     1      29.936 -23.490 -15.286  0.00  0.00    +0.048 C 
ATOM     14  C   UNL     1      29.532 -24.517 -14.467  0.00  0.00    +0.046 C 
ATOM     15  C   UNL     1      33.781 -21.121 -19.535  0.00  0.00    -0.004 C 
ATOM     16  C   UNL     1      35.163 -20.993 -19.615  0.00  0.00    +0.002 C 
ATOM     17  C   UNL     1      28.197 -24.991 -14.070  0.00  0.00    +0.049 C 
ATOM     18  H   UNL     1      31.577 -22.019 -16.477  0.00  0.00    +0.156 HD
ATOM     19  H   UNL     1      30.679 -25.878 -13.405  0.00  0.00    +0.174 HD
ENDROOT
BRANCH   9  20
ATOM     20  C   UNL     1      36.432 -23.110 -14.139  0.00  0.00    +0.086 C 
ATOM     21  C   UNL     1      36.166 -22.648 -12.847  0.00  0.00    +0.012 C 
ATOM     22  C   UNL     1      37.529 -23.949 -14.357  0.00  0.00    +0.012 C 
ATOM     23  C   UNL     1      36.988 -23.020 -11.784  0.00  0.00    +0.001 C 
ATOM     24  C   UNL     1      38.351 -24.322 -13.295  0.00  0.00    +0.001 C 
ATOM     25  C   UNL     1      38.081 -23.858 -12.007  0.00  0.00    +0.000 C 
ENDBRANCH   9  20
TORSDOF 1
ENDMDL
