MODEL 1
REMARK VINA RESULT:     -12.5      0.000      0.000
REMARK  Name = 6918852
REMARK  5 active torsions:
REMARK  status: ('A' for Active; 'I' for Inactive)
REMARK    1  A    between atoms: N_1  and  C_13
REMARK    2  A    between atoms: C_7  and  C_23
REMARK    3  A    between atoms: N_12  and  S_18
REMARK    4  A    between atoms: C_23  and  C_26
REMARK    5  A    between atoms: C_27  and  O_32
REMARK                            x       y       z     vdW  Elec       q    Type
REMARK                         _______ _______ _______ _____ _____    ______ ____
ROOT
ATOM      1  N   UNL     1      35.325 -17.389 -21.351  0.00  0.00    -0.270 N 
ATOM      2  N   UNL     1      33.697 -18.902 -20.598  0.00  0.00    -0.323 NA
ATOM      3  N   UNL     1      36.044 -19.344 -20.273  0.00  0.00    -0.170 NA
ATOM      4  N   UNL     1      32.071 -20.447 -19.828  0.00  0.00    -0.332 N 
ATOM      5  C   UNL     1      35.013 -18.581 -20.722  0.00  0.00    +0.146 C 
ATOM      6  C   UNL     1      33.429 -20.072 -19.980  0.00  0.00    +0.194 C 
ATOM      7  C   UNL     1      34.401 -20.919 -19.487  0.00  0.00    +0.103 C 
ATOM      8  C   UNL     1      35.704 -20.499 -19.664  0.00  0.00    +0.119 C 
ATOM      9  H   UNL     1      36.274 -17.146 -21.445  0.00  0.00    +0.159 HD
ATOM     10  H   UNL     1      31.358 -19.860 -20.171  0.00  0.00    +0.145 HD
ATOM     11  H   UNL     1      31.841 -21.293 -19.382  0.00  0.00    +0.145 HD
ENDROOT
BRANCH   1  13
ATOM     12  N   UNL     1      33.711 -13.851 -22.962  0.00  0.00    -0.159 NA
ATOM     13  C   UNL     1      34.330 -16.480 -21.880  0.00  0.00    +0.082 C 
ATOM     14  C   UNL     1      34.240 -15.236 -20.991  0.00  0.00    +0.039 C 
ATOM     15  C   UNL     1      34.698 -16.084 -23.312  0.00  0.00    +0.039 C 
ATOM     16  C   UNL     1      33.280 -14.205 -21.577  0.00  0.00    +0.097 C 
ATOM     17  C   UNL     1      33.732 -15.040 -23.863  0.00  0.00    +0.097 C 
BRANCH  12  18
ATOM     18  S   UNL     1      32.979 -12.448 -23.618  0.00  0.00    +0.046 S 
ATOM     19  O   UNL     1      32.410 -12.782 -24.905  0.00  0.00    -0.157 OA
ATOM     20  O   UNL     1      33.883 -11.332 -23.451  0.00  0.00    -0.157 OA
ATOM     21  C   UNL     1      31.647 -12.257 -22.463  0.00  0.00    +0.196 C 
ENDBRANCH  12  18
ENDBRANCH   1  13
BRANCH   7  23
ATOM     22  O   UNL     1      33.838 -23.189 -19.484  0.00  0.00    -0.286 OA
ATOM     23  C   UNL     1      34.115 -22.179 -18.820  0.00  0.00    +0.206 C 
BRANCH  23  26
ATOM     24  F   UNL     1      36.491 -21.970 -17.370  0.00  0.00    -0.202 F 
ATOM     25  F   UNL     1      36.564 -22.227 -14.660  0.00  0.00    -0.202 F 
ATOM     26  C   UNL     1      34.141 -22.322 -17.334  0.00  0.00    +0.103 C 
ATOM     27  C   UNL     1      32.966 -22.563 -16.658  0.00  0.00    +0.144 C 
ATOM     28  C   UNL     1      35.356 -22.205 -16.696  0.00  0.00    +0.173 C 
ATOM     29  C   UNL     1      33.008 -22.694 -15.269  0.00  0.00    +0.039 C 
ATOM     30  C   UNL     1      35.397 -22.336 -15.308  0.00  0.00    +0.168 C 
ATOM     31  C   UNL     1      34.224 -22.580 -14.595  0.00  0.00    +0.035 C 
BRANCH  27  32
ATOM     32  O   UNL     1      31.769 -22.677 -17.298  0.00  0.00    -0.471 OA
ATOM     33  C   UNL     1      30.597 -22.398 -16.535  0.00  0.00    +0.252 C 
ENDBRANCH  27  32
ENDBRANCH  23  26
ENDBRANCH   7  23
TORSDOF 5
ENDMDL
MODEL 2
REMARK VINA RESULT:     -12.3      1.579      2.199
REMARK  Name = 6918852
REMARK  5 active torsions:
REMARK  status: ('A' for Active; 'I' for Inactive)
REMARK    1  A    between atoms: N_1  and  C_13
REMARK    2  A    between atoms: C_7  and  C_23
REMARK    3  A    between atoms: N_12  and  S_18
REMARK    4  A    between atoms: C_23  and  C_26
REMARK    5  A    between atoms: C_27  and  O_32
REMARK                            x       y       z     vdW  Elec       q    Type
REMARK                         _______ _______ _______ _____ _____    ______ ____
ROOT
ATOM      1  N   UNL     1      35.289 -17.458 -21.225  0.00  0.00    -0.270 N 
ATOM      2  N   UNL     1      33.622 -18.971 -20.561  0.00  0.00    -0.323 NA
ATOM      3  N   UNL     1      35.950 -19.424 -20.130  0.00  0.00    -0.170 NA
ATOM      4  N   UNL     1      31.957 -20.514 -19.881  0.00  0.00    -0.332 N 
ATOM      5  C   UNL     1      34.944 -18.653 -20.621  0.00  0.00    +0.146 C 
ATOM      6  C   UNL     1      33.322 -20.144 -19.965  0.00  0.00    +0.194 C 
ATOM      7  C   UNL     1      34.267 -20.998 -19.435  0.00  0.00    +0.103 C 
ATOM      8  C   UNL     1      35.578 -20.583 -19.547  0.00  0.00    +0.119 C 
ATOM      9  H   UNL     1      36.243 -17.218 -21.272  0.00  0.00    +0.159 HD
ATOM     10  H   UNL     1      31.262 -19.923 -20.251  0.00  0.00    +0.145 HD
ATOM     11  H   UNL     1      31.703 -21.363 -19.452  0.00  0.00    +0.145 HD
ENDROOT
BRANCH   1  13
ATOM     12  N   UNL     1      33.774 -13.914 -22.915  0.00  0.00    -0.159 NA
ATOM     13  C   UNL     1      34.323 -16.541 -21.792  0.00  0.00    +0.082 C 
ATOM     14  C   UNL     1      34.222 -15.288 -20.917  0.00  0.00    +0.039 C 
ATOM     15  C   UNL     1      34.742 -16.163 -23.215  0.00  0.00    +0.039 C 
ATOM     16  C   UNL     1      33.295 -14.250 -21.541  0.00  0.00    +0.097 C 
ATOM     17  C   UNL     1      33.807 -15.111 -23.805  0.00  0.00    +0.097 C 
BRANCH  12  18
ATOM     18  S   UNL     1      33.081 -12.507 -23.606  0.00  0.00    +0.046 S 
ATOM     19  O   UNL     1      32.598 -12.831 -24.929  0.00  0.00    -0.157 OA
ATOM     20  O   UNL     1      33.968 -11.390 -23.371  0.00  0.00    -0.157 OA
ATOM     21  C   UNL     1      31.677 -12.329 -22.537  0.00  0.00    +0.196 C 
ENDBRANCH  12  18
ENDBRANCH   1  13
BRANCH   7  23
ATOM     22  O   UNL     1      33.793 -23.289 -19.472  0.00  0.00    -0.286 OA
ATOM     23  C   UNL     1      33.945 -22.263 -18.792  0.00  0.00    +0.206 C 
BRANCH  23  26
ATOM     24  F   UNL     1      31.430 -22.523 -17.608  0.00  0.00    -0.202 F 
ATOM     25  F   UNL     1      31.112 -22.758 -14.914  0.00  0.00    -0.202 F 
ATOM     26  C   UNL     1      33.785 -22.391 -17.313  0.00  0.00    +0.103 C 
ATOM     27  C   UNL     1      34.902 -22.381 -16.509  0.00  0.00    +0.144 C 
ATOM     28  C   UNL     1      32.508 -22.515 -16.811  0.00  0.00    +0.173 C 
ATOM     29  C   UNL     1      34.734 -22.502 -15.129  0.00  0.00    +0.039 C 
ATOM     30  C   UNL     1      32.342 -22.636 -15.431  0.00  0.00    +0.168 C 
ATOM     31  C   UNL     1      33.454 -22.630 -14.591  0.00  0.00    +0.035 C 
BRANCH  27  32
ATOM     32  O   UNL     1      36.161 -22.259 -17.015  0.00  0.00    -0.471 OA
ATOM     33  C   UNL     1      37.186 -21.851 -16.112  0.00  0.00    +0.252 C 
ENDBRANCH  27  32
ENDBRANCH  23  26
ENDBRANCH   7  23
TORSDOF 5
ENDMDL
MODEL 3
REMARK VINA RESULT:     -10.9      4.282      9.377
REMARK  Name = 6918852
REMARK  5 active torsions:
REMARK  status: ('A' for Active; 'I' for Inactive)
REMARK    1  A    between atoms: N_1  and  C_13
REMARK    2  A    between atoms: C_7  and  C_23
REMARK    3  A    between atoms: N_12  and  S_18
REMARK    4  A    between atoms: C_23  and  C_26
REMARK    5  A    between atoms: C_27  and  O_32
REMARK                            x       y       z     vdW  Elec       q    Type
REMARK                         _______ _______ _______ _____ _____    ______ ____
ROOT
ATOM      1  N   UNL     1      32.256 -21.782 -18.639  0.00  0.00    -0.270 N 
ATOM      2  N   UNL     1      34.293 -20.870 -19.364  0.00  0.00    -0.323 NA
ATOM      3  N   UNL     1      32.210 -20.217 -20.385  0.00  0.00    -0.170 NA
ATOM      4  N   UNL     1      36.338 -19.934 -20.114  0.00  0.00    -0.332 N 
ATOM      5  C   UNL     1      32.940 -20.931 -19.488  0.00  0.00    +0.146 C 
ATOM      6  C   UNL     1      34.928 -20.030 -20.208  0.00  0.00    +0.194 C 
ATOM      7  C   UNL     1      34.281 -19.260 -21.154  0.00  0.00    +0.103 C 
ATOM      8  C   UNL     1      32.908 -19.396 -21.197  0.00  0.00    +0.119 C 
ATOM      9  H   UNL     1      31.277 -21.832 -18.719  0.00  0.00    +0.159 HD
ATOM     10  H   UNL     1      36.824 -20.473 -19.448  0.00  0.00    +0.145 HD
ATOM     11  H   UNL     1      36.832 -19.331 -20.715  0.00  0.00    +0.145 HD
ENDROOT
BRANCH   1  13
ATOM     12  N   UNL     1      33.993 -22.823 -14.949  0.00  0.00    -0.159 NA
ATOM     13  C   UNL     1      32.904 -22.603 -17.638  0.00  0.00    +0.082 C 
ATOM     14  C   UNL     1      34.251 -21.985 -17.254  0.00  0.00    +0.039 C 
ATOM     15  C   UNL     1      32.004 -22.724 -16.405  0.00  0.00    +0.039 C 
ATOM     16  C   UNL     1      34.915 -22.763 -16.122  0.00  0.00    +0.097 C 
ATOM     17  C   UNL     1      32.701 -23.490 -15.285  0.00  0.00    +0.097 C 
BRANCH  12  18
ATOM     18  S   UNL     1      34.714 -23.323 -13.478  0.00  0.00    +0.046 S 
ATOM     19  O   UNL     1      33.668 -23.696 -12.552  0.00  0.00    -0.157 OA
ATOM     20  O   UNL     1      35.745 -22.374 -13.120  0.00  0.00    -0.157 OA
ATOM     21  C   UNL     1      35.504 -24.808 -14.040  0.00  0.00    +0.196 C 
ENDBRANCH  12  18
ENDBRANCH   1  13
BRANCH   7  23
ATOM     22  O   UNL     1      35.998 -18.714 -22.645  0.00  0.00    -0.286 OA
ATOM     23  C   UNL     1      34.963 -18.354 -22.065  0.00  0.00    +0.206 C 
BRANCH  23  26
ATOM     24  F   UNL     1      34.917 -16.385 -20.087  0.00  0.00    -0.202 F 
ATOM     25  F   UNL     1      34.012 -13.862 -20.571  0.00  0.00    -0.202 F 
ATOM     26  C   UNL     1      34.464 -16.975 -22.344  0.00  0.00    +0.103 C 
ATOM     27  C   UNL     1      34.014 -16.662 -23.607  0.00  0.00    +0.144 C 
ATOM     28  C   UNL     1      34.476 -16.063 -21.312  0.00  0.00    +0.173 C 
ATOM     29  C   UNL     1      33.552 -15.368 -23.851  0.00  0.00    +0.039 C 
ATOM     30  C   UNL     1      34.013 -14.770 -21.556  0.00  0.00    +0.168 C 
ATOM     31  C   UNL     1      33.552 -14.423 -22.825  0.00  0.00    +0.035 C 
BRANCH  27  32
ATOM     32  O   UNL     1      34.007 -17.570 -24.622  0.00  0.00    -0.471 OA
ATOM     33  C   UNL     1      32.821 -18.341 -24.794  0.00  0.00    +0.252 C 
ENDBRANCH  27  32
ENDBRANCH  23  26
ENDBRANCH   7  23
TORSDOF 5
ENDMDL
MODEL 4
REMARK VINA RESULT:     -10.9      2.360      3.003
REMARK  Name = 6918852
REMARK  5 active torsions:
REMARK  status: ('A' for Active; 'I' for Inactive)
REMARK    1  A    between atoms: N_1  and  C_13
REMARK    2  A    between atoms: C_7  and  C_23
REMARK    3  A    between atoms: N_12  and  S_18
REMARK    4  A    between atoms: C_23  and  C_26
REMARK    5  A    between atoms: C_27  and  O_32
REMARK                            x       y       z     vdW  Elec       q    Type
REMARK                         _______ _______ _______ _____ _____    ______ ____
ROOT
ATOM      1  N   UNL     1      35.310 -18.989 -20.520  0.00  0.00    -0.270 N 
ATOM      2  N   UNL     1      33.458 -20.252 -19.824  0.00  0.00    -0.323 NA
ATOM      3  N   UNL     1      35.678 -20.778 -19.047  0.00  0.00    -0.170 NA
ATOM      4  N   UNL     1      31.603 -21.542 -19.106  0.00  0.00    -0.332 N 
ATOM      5  C   UNL     1      34.800 -20.037 -19.775  0.00  0.00    +0.146 C 
ATOM      6  C   UNL     1      32.996 -21.282 -19.085  0.00  0.00    +0.194 C 
ATOM      7  C   UNL     1      33.801 -22.093 -18.312  0.00  0.00    +0.103 C 
ATOM      8  C   UNL     1      35.148 -21.791 -18.332  0.00  0.00    +0.119 C 
ATOM      9  H   UNL     1      36.279 -18.825 -20.491  0.00  0.00    +0.159 HD
ATOM     10  H   UNL     1      31.005 -20.978 -19.649  0.00  0.00    +0.145 HD
ATOM     11  H   UNL     1      31.232 -22.285 -18.578  0.00  0.00    +0.145 HD
ENDROOT
BRANCH   1  13
ATOM     12  N   UNL     1      34.334 -16.259 -23.571  0.00  0.00    -0.159 NA
ATOM     13  C   UNL     1      34.492 -18.122 -21.342  0.00  0.00    +0.082 C 
ATOM     14  C   UNL     1      34.996 -16.680 -21.233  0.00  0.00    +0.039 C 
ATOM     15  C   UNL     1      34.538 -18.592 -22.798  0.00  0.00    +0.039 C 
ATOM     16  C   UNL     1      34.228 -15.753 -22.170  0.00  0.00    +0.097 C 
ATOM     17  C   UNL     1      33.778 -17.637 -23.712  0.00  0.00    +0.097 C 
BRANCH  12  18
ATOM     18  S   UNL     1      33.857 -15.150 -24.786  0.00  0.00    +0.046 S 
ATOM     19  O   UNL     1      32.817 -15.758 -25.586  0.00  0.00    -0.157 OA
ATOM     20  O   UNL     1      35.043 -14.579 -25.385  0.00  0.00    -0.157 OA
ATOM     21  C   UNL     1      33.107 -13.912 -23.761  0.00  0.00    +0.196 C 
ENDBRANCH  12  18
ENDBRANCH   1  13
BRANCH   7  23
ATOM     22  O   UNL     1      33.033 -24.287 -18.054  0.00  0.00    -0.286 OA
ATOM     23  C   UNL     1      33.305 -23.204 -17.515  0.00  0.00    +0.206 C 
BRANCH  23  26
ATOM     24  F   UNL     1      30.877 -22.365 -16.423  0.00  0.00    -0.202 F 
ATOM     25  F   UNL     1      30.484 -22.172 -13.735  0.00  0.00    -0.202 F 
ATOM     26  C   UNL     1      33.103 -23.103 -16.039  0.00  0.00    +0.103 C 
ATOM     27  C   UNL     1      34.137 -23.430 -15.192  0.00  0.00    +0.144 C 
ATOM     28  C   UNL     1      31.874 -22.680 -15.584  0.00  0.00    +0.173 C 
ATOM     29  C   UNL     1      33.931 -23.330 -13.815  0.00  0.00    +0.039 C 
ATOM     30  C   UNL     1      31.669 -22.581 -14.207  0.00  0.00    +0.168 C 
ATOM     31  C   UNL     1      32.697 -22.905 -13.324  0.00  0.00    +0.035 C 
BRANCH  27  32
ATOM     32  O   UNL     1      35.350 -23.848 -15.652  0.00  0.00    -0.471 OA
ATOM     33  C   UNL     1      36.505 -23.284 -15.036  0.00  0.00    +0.252 C 
ENDBRANCH  27  32
ENDBRANCH  23  26
ENDBRANCH   7  23
TORSDOF 5
ENDMDL
MODEL 5
REMARK VINA RESULT:     -10.9      3.845      5.841
REMARK  Name = 6918852
REMARK  5 active torsions:
REMARK  status: ('A' for Active; 'I' for Inactive)
REMARK    1  A    between atoms: N_1  and  C_13
REMARK    2  A    between atoms: C_7  and  C_23
REMARK    3  A    between atoms: N_12  and  S_18
REMARK    4  A    between atoms: C_23  and  C_26
REMARK    5  A    between atoms: C_27  and  O_32
REMARK                            x       y       z     vdW  Elec       q    Type
REMARK                         _______ _______ _______ _____ _____    ______ ____
ROOT
ATOM      1  N   UNL     1      33.275 -22.467 -18.459  0.00  0.00    -0.270 N 
ATOM      2  N   UNL     1      35.189 -21.732 -17.318  0.00  0.00    -0.323 NA
ATOM      3  N   UNL     1      33.691 -23.335 -16.320  0.00  0.00    -0.170 NA
ATOM      4  N   UNL     1      37.117 -21.005 -16.145  0.00  0.00    -0.332 N 
ATOM      5  C   UNL     1      34.075 -22.513 -17.332  0.00  0.00    +0.146 C 
ATOM      6  C   UNL     1      35.946 -21.802 -16.203  0.00  0.00    +0.194 C 
ATOM      7  C   UNL     1      35.646 -22.603 -15.121  0.00  0.00    +0.103 C 
ATOM      8  C   UNL     1      34.495 -23.356 -15.237  0.00  0.00    +0.119 C 
ATOM      9  H   UNL     1      32.467 -23.029 -18.480  0.00  0.00    +0.159 HD
ATOM     10  H   UNL     1      37.354 -20.424 -16.903  0.00  0.00    +0.145 HD
ATOM     11  H   UNL     1      37.692 -21.032 -15.346  0.00  0.00    +0.145 HD
ENDROOT
BRANCH   1  13
ATOM     12  N   UNL     1      34.374 -19.041 -20.642  0.00  0.00    -0.159 NA
ATOM     13  C   UNL     1      33.561 -21.636 -19.609  0.00  0.00    +0.082 C 
ATOM     14  C   UNL     1      32.610 -20.437 -19.632  0.00  0.00    +0.039 C 
ATOM     15  C   UNL     1      35.015 -21.161 -19.556  0.00  0.00    +0.039 C 
ATOM     16  C   UNL     1      32.953 -19.479 -20.769  0.00  0.00    +0.097 C 
ATOM     17  C   UNL     1      35.322 -20.192 -20.694  0.00  0.00    +0.097 C 
BRANCH  12  18
ATOM     18  S   UNL     1      34.811 -17.690 -21.601  0.00  0.00    +0.046 S 
ATOM     19  O   UNL     1      34.746 -16.500 -20.782  0.00  0.00    -0.157 OA
ATOM     20  O   UNL     1      34.122 -17.780 -22.870  0.00  0.00    -0.157 OA
ATOM     21  C   UNL     1      36.520 -18.076 -21.874  0.00  0.00    +0.196 C 
ENDBRANCH  12  18
ENDBRANCH   1  13
BRANCH   7  23
ATOM     22  O   UNL     1      36.586 -21.689 -13.184  0.00  0.00    -0.286 OA
ATOM     23  C   UNL     1      36.461 -22.680 -13.918  0.00  0.00    +0.206 C 
BRANCH  23  26
ATOM     24  F   UNL     1      38.808 -23.505 -15.184  0.00  0.00    -0.202 F 
ATOM     25  F   UNL     1      40.125 -25.777 -14.462  0.00  0.00    -0.202 F 
ATOM     26  C   UNL     1      37.173 -23.928 -13.512  0.00  0.00    +0.103 C 
ATOM     27  C   UNL     1      36.663 -24.694 -12.489  0.00  0.00    +0.144 C 
ATOM     28  C   UNL     1      38.324 -24.263 -14.189  0.00  0.00    +0.173 C 
ATOM     29  C   UNL     1      37.341 -25.857 -12.122  0.00  0.00    +0.039 C 
ATOM     30  C   UNL     1      39.002 -25.426 -13.821  0.00  0.00    +0.168 C 
ATOM     31  C   UNL     1      38.510 -26.223 -12.788  0.00  0.00    +0.035 C 
BRANCH  27  32
ATOM     32  O   UNL     1      35.523 -24.354 -11.824  0.00  0.00    -0.471 OA
ATOM     33  C   UNL     1      35.668 -23.889 -10.485  0.00  0.00    +0.252 C 
ENDBRANCH  27  32
ENDBRANCH  23  26
ENDBRANCH   7  23
TORSDOF 5
ENDMDL
MODEL 6
REMARK VINA RESULT:     -10.9      1.838      2.248
REMARK  Name = 6918852
REMARK  5 active torsions:
REMARK  status: ('A' for Active; 'I' for Inactive)
REMARK    1  A    between atoms: N_1  and  C_13
REMARK    2  A    between atoms: C_7  and  C_23
REMARK    3  A    between atoms: N_12  and  S_18
REMARK    4  A    between atoms: C_23  and  C_26
REMARK    5  A    between atoms: C_27  and  O_32
REMARK                            x       y       z     vdW  Elec       q    Type
REMARK                         _______ _______ _______ _____ _____    ______ ____
ROOT
ATOM      1  N   UNL     1      35.252 -19.022 -20.538  0.00  0.00    -0.270 N 
ATOM      2  N   UNL     1      33.383 -20.253 -19.829  0.00  0.00    -0.323 NA
ATOM      3  N   UNL     1      35.597 -20.805 -19.052  0.00  0.00    -0.170 NA
ATOM      4  N   UNL     1      31.511 -21.510 -19.098  0.00  0.00    -0.332 N 
ATOM      5  C   UNL     1      34.729 -20.057 -19.784  0.00  0.00    +0.146 C 
ATOM      6  C   UNL     1      32.908 -21.271 -19.081  0.00  0.00    +0.194 C 
ATOM      7  C   UNL     1      33.703 -22.088 -18.304  0.00  0.00    +0.103 C 
ATOM      8  C   UNL     1      35.054 -21.805 -18.328  0.00  0.00    +0.119 C 
ATOM      9  H   UNL     1      36.224 -18.872 -20.511  0.00  0.00    +0.159 HD
ATOM     10  H   UNL     1      30.921 -20.942 -19.644  0.00  0.00    +0.145 HD
ATOM     11  H   UNL     1      31.131 -22.245 -18.564  0.00  0.00    +0.145 HD
ENDROOT
BRANCH   1  13
ATOM     12  N   UNL     1      34.319 -16.258 -23.571  0.00  0.00    -0.159 NA
ATOM     13  C   UNL     1      34.446 -18.149 -21.364  0.00  0.00    +0.082 C 
ATOM     14  C   UNL     1      34.937 -16.706 -21.226  0.00  0.00    +0.039 C 
ATOM     15  C   UNL     1      34.524 -18.600 -22.825  0.00  0.00    +0.039 C 
ATOM     16  C   UNL     1      34.182 -15.771 -22.167  0.00  0.00    +0.097 C 
ATOM     17  C   UNL     1      33.776 -17.637 -23.742  0.00  0.00    +0.097 C 
BRANCH  12  18
ATOM     18  S   UNL     1      33.860 -15.136 -24.781  0.00  0.00    +0.046 S 
ATOM     19  O   UNL     1      32.807 -15.721 -25.580  0.00  0.00    -0.157 OA
ATOM     20  O   UNL     1      35.055 -14.585 -25.381  0.00  0.00    -0.157 OA
ATOM     21  C   UNL     1      33.136 -13.887 -23.750  0.00  0.00    +0.196 C 
ENDBRANCH  12  18
ENDBRANCH   1  13
BRANCH   7  23
ATOM     22  O   UNL     1      33.018 -24.304 -18.004  0.00  0.00    -0.286 OA
ATOM     23  C   UNL     1      33.193 -23.186 -17.498  0.00  0.00    +0.206 C 
BRANCH  23  26
ATOM     24  F   UNL     1      35.072 -23.703 -15.500  0.00  0.00    -0.202 F 
ATOM     25  F   UNL     1      34.492 -23.424 -12.854  0.00  0.00    -0.202 F 
ATOM     26  C   UNL     1      32.861 -23.029 -16.050  0.00  0.00    +0.103 C 
ATOM     27  C   UNL     1      31.598 -22.619 -15.687  0.00  0.00    +0.144 C 
ATOM     28  C   UNL     1      33.846 -23.305 -15.129  0.00  0.00    +0.173 C 
ATOM     29  C   UNL     1      31.305 -22.478 -14.330  0.00  0.00    +0.039 C 
ATOM     30  C   UNL     1      33.553 -23.163 -13.773  0.00  0.00    +0.168 C 
ATOM     31  C   UNL     1      32.283 -22.749 -13.374  0.00  0.00    +0.035 C 
BRANCH  27  32
ATOM     32  O   UNL     1      30.629 -22.348 -16.606  0.00  0.00    -0.471 OA
ATOM     33  C   UNL     1      29.279 -22.582 -16.213  0.00  0.00    +0.252 C 
ENDBRANCH  27  32
ENDBRANCH  23  26
ENDBRANCH   7  23
TORSDOF 5
ENDMDL
MODEL 7
REMARK VINA RESULT:     -10.8      3.845      6.081
REMARK  Name = 6918852
REMARK  5 active torsions:
REMARK  status: ('A' for Active; 'I' for Inactive)
REMARK    1  A    between atoms: N_1  and  C_13
REMARK    2  A    between atoms: C_7  and  C_23
REMARK    3  A    between atoms: N_12  and  S_18
REMARK    4  A    between atoms: C_23  and  C_26
REMARK    5  A    between atoms: C_27  and  O_32
REMARK                            x       y       z     vdW  Elec       q    Type
REMARK                         _______ _______ _______ _____ _____    ______ ____
ROOT
ATOM      1  N   UNL     1      32.368 -22.256 -18.426  0.00  0.00    -0.270 N 
ATOM      2  N   UNL     1      34.171 -22.345 -16.926  0.00  0.00    -0.323 NA
ATOM      3  N   UNL     1      32.012 -23.231 -16.323  0.00  0.00    -0.170 NA
ATOM      4  N   UNL     1      35.976 -22.447 -15.393  0.00  0.00    -0.332 N 
ATOM      5  C   UNL     1      32.865 -22.622 -17.188  0.00  0.00    +0.146 C 
ATOM      6  C   UNL     1      34.621 -22.715 -15.709  0.00  0.00    +0.194 C 
ATOM      7  C   UNL     1      33.839 -23.340 -14.759  0.00  0.00    +0.103 C 
ATOM      8  C   UNL     1      32.529 -23.575 -15.125  0.00  0.00    +0.119 C 
ATOM      9  H   UNL     1      31.425 -22.453 -18.626  0.00  0.00    +0.159 HD
ATOM     10  H   UNL     1      36.556 -22.002 -16.053  0.00  0.00    +0.145 HD
ATOM     11  H   UNL     1      36.337 -22.704 -14.515  0.00  0.00    +0.145 HD
ENDROOT
BRANCH   1  13
ATOM     12  N   UNL     1      34.622 -19.231 -20.291  0.00  0.00    -0.159 NA
ATOM     13  C   UNL     1      33.161 -21.599 -19.444  0.00  0.00    +0.082 C 
ATOM     14  C   UNL     1      32.447 -20.332 -19.919  0.00  0.00    +0.039 C 
ATOM     15  C   UNL     1      34.542 -21.252 -18.880  0.00  0.00    +0.039 C 
ATOM     16  C   UNL     1      33.304 -19.553 -20.913  0.00  0.00    +0.097 C 
ATOM     17  C   UNL     1      35.367 -20.459 -19.888  0.00  0.00    +0.097 C 
BRANCH  12  18
ATOM     18  S   UNL     1      35.550 -18.050 -21.116  0.00  0.00    +0.046 S 
ATOM     19  O   UNL     1      36.948 -18.406 -21.016  0.00  0.00    -0.157 OA
ATOM     20  O   UNL     1      35.070 -16.738 -20.742  0.00  0.00    -0.157 OA
ATOM     21  C   UNL     1      35.016 -18.379 -22.775  0.00  0.00    +0.196 C 
ENDBRANCH  12  18
ENDBRANCH   1  13
BRANCH   7  23
ATOM     22  O   UNL     1      33.605 -23.597 -12.446  0.00  0.00    -0.286 OA
ATOM     23  C   UNL     1      34.323 -23.740 -13.447  0.00  0.00    +0.206 C 
BRANCH  23  26
ATOM     24  F   UNL     1      35.220 -25.908 -14.957  0.00  0.00    -0.202 F 
ATOM     25  F   UNL     1      37.688 -27.005 -14.599  0.00  0.00    -0.202 F 
ATOM     26  C   UNL     1      35.678 -24.331 -13.240  0.00  0.00    +0.103 C 
ATOM     27  C   UNL     1      36.509 -23.797 -12.281  0.00  0.00    +0.144 C 
ATOM     28  C   UNL     1      36.042 -25.400 -14.027  0.00  0.00    +0.173 C 
ATOM     29  C   UNL     1      37.772 -24.362 -12.101  0.00  0.00    +0.039 C 
ATOM     30  C   UNL     1      37.306 -25.964 -13.847  0.00  0.00    +0.168 C 
ATOM     31  C   UNL     1      38.170 -25.445 -12.884  0.00  0.00    +0.035 C 
BRANCH  27  32
ATOM     32  O   UNL     1      36.140 -22.738 -11.507  0.00  0.00    -0.471 OA
ATOM     33  C   UNL     1      35.897 -22.999 -10.126  0.00  0.00    +0.252 C 
ENDBRANCH  27  32
ENDBRANCH  23  26
ENDBRANCH   7  23
TORSDOF 5
ENDMDL
MODEL 8
REMARK VINA RESULT:     -10.7      6.734     11.947
REMARK  Name = 6918852
REMARK  5 active torsions:
REMARK  status: ('A' for Active; 'I' for Inactive)
REMARK    1  A    between atoms: N_1  and  C_13
REMARK    2  A    between atoms: C_7  and  C_23
REMARK    3  A    between atoms: N_12  and  S_18
REMARK    4  A    between atoms: C_23  and  C_26
REMARK    5  A    between atoms: C_27  and  O_32
REMARK                            x       y       z     vdW  Elec       q    Type
REMARK                         _______ _______ _______ _____ _____    ______ ____
ROOT
ATOM      1  N   UNL     1      34.017 -12.948 -23.406  0.00  0.00    -0.270 N 
ATOM      2  N   UNL     1      32.081 -12.067 -22.413  0.00  0.00    -0.323 NA
ATOM      3  N   UNL     1      33.563 -10.665 -23.698  0.00  0.00    -0.170 NA
ATOM      4  N   UNL     1      30.132 -11.153 -21.421  0.00  0.00    -0.332 N 
ATOM      5  C   UNL     1      33.196 -11.861 -23.165  0.00  0.00    +0.146 C 
ATOM      6  C   UNL     1      31.304 -10.985 -22.199  0.00  0.00    +0.194 C 
ATOM      7  C   UNL     1      31.586  -9.728 -22.694  0.00  0.00    +0.103 C 
ATOM      8  C   UNL     1      32.740  -9.627 -23.444  0.00  0.00    +0.119 C 
ATOM      9  H   UNL     1      34.825 -12.810 -23.950  0.00  0.00    +0.159 HD
ATOM     10  H   UNL     1      29.907 -12.040 -21.055  0.00  0.00    +0.145 HD
ATOM     11  H   UNL     1      29.543 -10.385 -21.245  0.00  0.00    +0.145 HD
ENDROOT
BRANCH   1  13
ATOM     12  N   UNL     1      34.799 -16.765 -21.813  0.00  0.00    -0.159 NA
ATOM     13  C   UNL     1      33.750 -14.278 -22.901  0.00  0.00    +0.082 C 
ATOM     14  C   UNL     1      34.451 -15.317 -23.779  0.00  0.00    +0.039 C 
ATOM     15  C   UNL     1      34.237 -14.390 -21.454  0.00  0.00    +0.039 C 
ATOM     16  C   UNL     1      34.285 -16.724 -23.214  0.00  0.00    +0.097 C 
ATOM     17  C   UNL     1      34.074 -15.811 -20.923  0.00  0.00    +0.097 C 
BRANCH  12  18
ATOM     18  S   UNL     1      35.034 -18.333 -21.166  0.00  0.00    +0.046 S 
ATOM     19  O   UNL     1      33.843 -18.720 -20.444  0.00  0.00    -0.157 OA
ATOM     20  O   UNL     1      36.346 -18.393 -20.560  0.00  0.00    -0.157 OA
ATOM     21  C   UNL     1      35.084 -19.259 -22.679  0.00  0.00    +0.196 C 
ENDBRANCH  12  18
ENDBRANCH   1  13
BRANCH   7  23
ATOM     22  O   UNL     1      29.620  -8.491 -22.971  0.00  0.00    -0.286 OA
ATOM     23  C   UNL     1      30.749  -8.560 -22.464  0.00  0.00    +0.206 C 
BRANCH  23  26
ATOM     24  F   UNL     1      31.508  -6.124 -23.595  0.00  0.00    -0.202 F 
ATOM     25  F   UNL     1      32.323  -4.012 -22.081  0.00  0.00    -0.202 F 
ATOM     26  C   UNL     1      31.194  -7.410 -21.621  0.00  0.00    +0.103 C 
ATOM     27  C   UNL     1      31.233  -7.551 -20.253  0.00  0.00    +0.144 C 
ATOM     28  C   UNL     1      31.552  -6.244 -22.260  0.00  0.00    +0.173 C 
ATOM     29  C   UNL     1      31.651  -6.466 -19.481  0.00  0.00    +0.039 C 
ATOM     30  C   UNL     1      31.969  -5.160 -21.488  0.00  0.00    +0.168 C 
ATOM     31  C   UNL     1      32.019  -5.271 -20.099  0.00  0.00    +0.035 C 
BRANCH  27  32
ATOM     32  O   UNL     1      30.877  -8.709 -19.630  0.00  0.00    -0.471 OA
ATOM     33  C   UNL     1      31.855  -9.321 -18.792  0.00  0.00    +0.252 C 
ENDBRANCH  27  32
ENDBRANCH  23  26
ENDBRANCH   7  23
TORSDOF 5
ENDMDL
MODEL 9
REMARK VINA RESULT:     -10.6      3.677      5.972
REMARK  Name = 6918852
REMARK  5 active torsions:
REMARK  status: ('A' for Active; 'I' for Inactive)
REMARK    1  A    between atoms: N_1  and  C_13
REMARK    2  A    between atoms: C_7  and  C_23
REMARK    3  A    between atoms: N_12  and  S_18
REMARK    4  A    between atoms: C_23  and  C_26
REMARK    5  A    between atoms: C_27  and  O_32
REMARK                            x       y       z     vdW  Elec       q    Type
REMARK                         _______ _______ _______ _____ _____    ______ ____
ROOT
ATOM      1  N   UNL     1      32.401 -22.264 -18.368  0.00  0.00    -0.270 N 
ATOM      2  N   UNL     1      34.233 -22.341 -16.903  0.00  0.00    -0.323 NA
ATOM      3  N   UNL     1      32.087 -23.225 -16.251  0.00  0.00    -0.170 NA
ATOM      4  N   UNL     1      36.068 -22.430 -15.404  0.00  0.00    -0.332 N 
ATOM      5  C   UNL     1      32.922 -22.621 -17.137  0.00  0.00    +0.146 C 
ATOM      6  C   UNL     1      34.708 -22.702 -15.692  0.00  0.00    +0.194 C 
ATOM      7  C   UNL     1      33.945 -23.321 -14.723  0.00  0.00    +0.103 C 
ATOM      8  C   UNL     1      32.628 -23.560 -15.061  0.00  0.00    +0.119 C 
ATOM      9  H   UNL     1      31.455 -22.463 -18.548  0.00  0.00    +0.159 HD
ATOM     10  H   UNL     1      36.635 -21.990 -16.079  0.00  0.00    +0.145 HD
ATOM     11  H   UNL     1      36.446 -22.681 -14.531  0.00  0.00    +0.145 HD
ENDROOT
BRANCH   1  13
ATOM     12  N   UNL     1      34.629 -19.255 -20.290  0.00  0.00    -0.159 NA
ATOM     13  C   UNL     1      33.174 -21.614 -19.405  0.00  0.00    +0.082 C 
ATOM     14  C   UNL     1      32.457 -20.342 -19.865  0.00  0.00    +0.039 C 
ATOM     15  C   UNL     1      34.570 -21.275 -18.875  0.00  0.00    +0.039 C 
ATOM     16  C   UNL     1      33.294 -19.570 -20.880  0.00  0.00    +0.097 C 
ATOM     17  C   UNL     1      35.376 -20.488 -19.904  0.00  0.00    +0.097 C 
BRANCH  12  18
ATOM     18  S   UNL     1      35.544 -18.081 -21.139  0.00  0.00    +0.046 S 
ATOM     19  O   UNL     1      36.942 -18.446 -21.072  0.00  0.00    -0.157 OA
ATOM     20  O   UNL     1      35.080 -16.766 -20.756  0.00  0.00    -0.157 OA
ATOM     21  C   UNL     1      34.970 -18.410 -22.784  0.00  0.00    +0.196 C 
ENDBRANCH  12  18
ENDBRANCH   1  13
BRANCH   7  23
ATOM     22  O   UNL     1      33.716 -23.674 -12.422  0.00  0.00    -0.286 OA
ATOM     23  C   UNL     1      34.454 -23.711 -13.417  0.00  0.00    +0.206 C 
BRANCH  23  26
ATOM     24  F   UNL     1      36.235 -22.291 -11.804  0.00  0.00    -0.202 F 
ATOM     25  F   UNL     1      38.804 -23.104 -11.413  0.00  0.00    -0.202 F 
ATOM     26  C   UNL     1      35.861 -24.169 -13.211  0.00  0.00    +0.103 C 
ATOM     27  C   UNL     1      36.295 -25.319 -13.831  0.00  0.00    +0.144 C 
ATOM     28  C   UNL     1      36.674 -23.409 -12.400  0.00  0.00    +0.173 C 
ATOM     29  C   UNL     1      37.612 -25.732 -13.627  0.00  0.00    +0.039 C 
ATOM     30  C   UNL     1      37.990 -23.823 -12.197  0.00  0.00    +0.168 C 
ATOM     31  C   UNL     1      38.459 -24.984 -12.810  0.00  0.00    +0.035 C 
BRANCH  27  32
ATOM     32  O   UNL     1      35.483 -26.064 -14.631  0.00  0.00    -0.471 OA
ATOM     33  C   UNL     1      36.111 -26.839 -15.650  0.00  0.00    +0.252 C 
ENDBRANCH  27  32
ENDBRANCH  23  26
ENDBRANCH   7  23
TORSDOF 5
ENDMDL
