MODEL 1
REMARK VINA RESULT:     -14.2      0.000      0.000
REMARK  Name = 10074640
REMARK  6 active torsions:
REMARK  status: ('A' for Active; 'I' for Inactive)
REMARK    1  A    between atoms: N_2  and  C_5
REMARK    2  A    between atoms: C_3  and  C_30
REMARK    3  A    between atoms: C_6  and  N_13
REMARK    4  A    between atoms: C_16  and  C_20
REMARK    5  A    between atoms: C_25  and  C_31
REMARK    6  A    between atoms: C_31  and  N_32
REMARK                            x       y       z     vdW  Elec       q    Type
REMARK                         _______ _______ _______ _____ _____    ______ ____
ROOT
ATOM      1  O   UNL     1      34.888 -22.473 -17.320  0.00  0.00    -0.270 OA
ATOM      2  N   UNL     1      32.604 -21.946 -17.420  0.00  0.00    -0.280 N 
ATOM      3  C   UNL     1      33.932 -21.900 -17.867  0.00  0.00    +0.249 C 
ATOM      4  H   UNL     1      31.954 -21.440 -17.960  0.00  0.00    +0.155 HD
ENDROOT
BRANCH   2   5
ATOM      5  C   UNL     1      32.076 -22.626 -16.296  0.00  0.00    +0.052 C 
ATOM      6  C   UNL     1      32.264 -23.294 -14.001  0.00  0.00    +0.048 C 
ATOM      7  C   UNL     1      32.786 -22.624 -15.108  0.00  0.00    +0.029 C 
ATOM      8  C   UNL     1      31.039 -23.953 -14.099  0.00  0.00    -0.008 C 
ATOM      9  C   UNL     1      30.858 -23.276 -16.411  0.00  0.00    +0.014 C 
ATOM     10  C   UNL     1      30.336 -23.945 -15.304  0.00  0.00    -0.002 C 
ATOM     11  C   UNL     1      30.457 -24.678 -12.930  0.00  0.00    +0.032 C 
BRANCH   6  13
ATOM     12  S   UNL     1      34.839 -23.701 -10.923  0.00  0.00    -0.059 S 
ATOM     13  N   UNL     1      32.988 -23.292 -12.789  0.00  0.00    -0.283 N 
ATOM     14  N   UNL     1      35.158 -23.931 -13.478  0.00  0.00    -0.384 NA
ATOM     15  C   UNL     1      34.288 -23.638 -12.543  0.00  0.00    +0.211 C 
ATOM     16  C   UNL     1      36.365 -24.233 -12.877  0.00  0.00    +0.124 C 
ATOM     17  C   UNL     1      36.386 -24.162 -11.500  0.00  0.00    +0.125 C 
ATOM     18  H   UNL     1      32.479 -22.994 -12.000  0.00  0.00    +0.155 HD
BRANCH  16  20
ATOM     19  N   UNL     1      39.229 -26.223 -14.161  0.00  0.00    -0.242 NA
ATOM     20  C   UNL     1      37.518 -24.596 -13.648  0.00  0.00    +0.046 C 
ATOM     21  C   UNL     1      38.046 -23.729 -14.598  0.00  0.00    +0.005 C 
ATOM     22  C   UNL     1      38.140 -25.820 -13.469  0.00  0.00    +0.101 C 
ATOM     23  C   UNL     1      39.165 -24.108 -15.331  0.00  0.00    +0.021 C 
ATOM     24  C   UNL     1      39.714 -25.355 -15.076  0.00  0.00    +0.099 C 
ENDBRANCH  16  20
ENDBRANCH   6  13
ENDBRANCH   2   5
BRANCH   3  30
ATOM     25  C   UNL     1      34.647 -19.539 -21.303  0.00  0.00    -0.043 C 
ATOM     26  C   UNL     1      35.722 -20.048 -20.588  0.00  0.00    -0.006 C 
ATOM     27  C   UNL     1      33.341 -19.794 -20.909  0.00  0.00    -0.006 C 
ATOM     28  C   UNL     1      35.486 -20.827 -19.455  0.00  0.00    +0.004 C 
ATOM     29  C   UNL     1      33.105 -20.573 -19.777  0.00  0.00    +0.004 C 
ATOM     30  C   UNL     1      34.177 -21.089 -19.050  0.00  0.00    +0.054 C 
BRANCH  25  31
ATOM     31  C   UNL     1      34.902 -18.700 -22.528  0.00  0.00    -0.050 C 
BRANCH  31  32
ATOM     32  N   UNL     1      34.240 -17.399 -22.442  0.00  0.00    +0.387 N 
ATOM     33  N   UNL     1      34.210 -14.511 -22.561  0.00  0.00    +0.383 N 
ATOM     34  C   UNL     1      34.823 -16.587 -21.368  0.00  0.00    -0.100 C 
ATOM     35  C   UNL     1      34.321 -16.688 -23.723  0.00  0.00    -0.100 C 
ATOM     36  C   UNL     1      34.131 -15.222 -21.279  0.00  0.00    -0.101 C 
ATOM     37  C   UNL     1      33.628 -15.324 -23.635  0.00  0.00    -0.101 C 
ATOM     38  C   UNL     1      33.546 -13.211 -22.476  0.00  0.00    -0.101 C 
ATOM     39  H   UNL     1      33.256 -17.561 -22.226  0.00  0.00    -0.079 HD
ATOM     40  H   UNL     1      35.194 -14.348 -22.777  0.00  0.00    -0.080 HD
ENDBRANCH  31  32
ENDBRANCH  25  31
ENDBRANCH   3  30
TORSDOF 6
ENDMDL
MODEL 2
REMARK VINA RESULT:     -11.4      1.665      5.075
REMARK  Name = 10074640
REMARK  6 active torsions:
REMARK  status: ('A' for Active; 'I' for Inactive)
REMARK    1  A    between atoms: N_2  and  C_5
REMARK    2  A    between atoms: C_3  and  C_30
REMARK    3  A    between atoms: C_6  and  N_13
REMARK    4  A    between atoms: C_16  and  C_20
REMARK    5  A    between atoms: C_25  and  C_31
REMARK    6  A    between atoms: C_31  and  N_32
REMARK                            x       y       z     vdW  Elec       q    Type
REMARK                         _______ _______ _______ _____ _____    ______ ____
ROOT
ATOM      1  O   UNL     1      33.999 -22.267 -18.128  0.00  0.00    -0.270 OA
ATOM      2  N   UNL     1      36.035 -21.329 -17.435  0.00  0.00    -0.280 N 
ATOM      3  C   UNL     1      34.927 -21.457 -18.284  0.00  0.00    +0.249 C 
ATOM      4  H   UNL     1      36.691 -20.640 -17.689  0.00  0.00    +0.155 HD
ENDROOT
BRANCH   2   5
ATOM      5  C   UNL     1      36.333 -22.060 -16.259  0.00  0.00    +0.052 C 
ATOM      6  C   UNL     1      35.692 -22.839 -14.084  0.00  0.00    +0.048 C 
ATOM      7  C   UNL     1      35.397 -22.118 -15.242  0.00  0.00    +0.029 C 
ATOM      8  C   UNL     1      36.918 -23.493 -13.963  0.00  0.00    -0.008 C 
ATOM      9  C   UNL     1      37.555 -22.704 -16.156  0.00  0.00    +0.014 C 
ATOM     10  C   UNL     1      37.851 -23.425 -14.999  0.00  0.00    -0.002 C 
ATOM     11  C   UNL     1      37.260 -24.271 -12.735  0.00  0.00    +0.032 C 
BRANCH   6  13
ATOM     12  S   UNL     1      32.468 -22.822 -11.660  0.00  0.00    -0.059 S 
ATOM     13  N   UNL     1      34.737 -22.898 -13.046  0.00  0.00    -0.283 N 
ATOM     14  N   UNL     1      32.693 -23.044 -14.226  0.00  0.00    -0.384 NA
ATOM     15  C   UNL     1      33.372 -22.932 -13.111  0.00  0.00    +0.211 C 
ATOM     16  C   UNL     1      31.345 -23.045 -13.923  0.00  0.00    +0.124 C 
ATOM     17  C   UNL     1      31.028 -22.934 -12.585  0.00  0.00    +0.125 C 
ATOM     18  H   UNL     1      35.112 -22.918 -12.136  0.00  0.00    +0.155 HD
BRANCH  16  20
ATOM     19  N   UNL     1      29.289 -22.223 -16.908  0.00  0.00    -0.242 NA
ATOM     20  C   UNL     1      30.346 -23.156 -14.945  0.00  0.00    +0.046 C 
ATOM     21  C   UNL     1      29.485 -24.246 -14.990  0.00  0.00    +0.005 C 
ATOM     22  C   UNL     1      30.208 -22.179 -15.918  0.00  0.00    +0.101 C 
ATOM     23  C   UNL     1      28.525 -24.327 -15.993  0.00  0.00    +0.021 C 
ATOM     24  C   UNL     1      28.469 -23.298 -16.920  0.00  0.00    +0.099 C 
ENDBRANCH  16  20
ENDBRANCH   6  13
ENDBRANCH   2   5
BRANCH   3  30
ATOM     25  C   UNL     1      34.870 -18.897 -21.651  0.00  0.00    -0.043 C 
ATOM     26  C   UNL     1      33.700 -19.528 -21.252  0.00  0.00    -0.006 C 
ATOM     27  C   UNL     1      36.059 -19.093 -20.961  0.00  0.00    -0.006 C 
ATOM     28  C   UNL     1      33.719 -20.372 -20.141  0.00  0.00    +0.004 C 
ATOM     29  C   UNL     1      36.078 -19.936 -19.851  0.00  0.00    +0.004 C 
ATOM     30  C   UNL     1      34.908 -20.575 -19.441  0.00  0.00    +0.054 C 
BRANCH  25  31
ATOM     31  C   UNL     1      34.849 -17.984 -22.849  0.00  0.00    -0.050 C 
BRANCH  31  32
ATOM     32  N   UNL     1      34.125 -16.745 -22.575  0.00  0.00    +0.387 N 
ATOM     33  N   UNL     1      33.967 -13.883 -22.192  0.00  0.00    +0.383 N 
ATOM     34  C   UNL     1      34.619 -16.112 -21.346  0.00  0.00    -0.100 C 
ATOM     35  C   UNL     1      34.232 -15.817 -23.707  0.00  0.00    -0.100 C 
ATOM     36  C   UNL     1      33.862 -14.811 -21.059  0.00  0.00    -0.101 C 
ATOM     37  C   UNL     1      33.473 -14.517 -23.421  0.00  0.00    -0.101 C 
ATOM     38  C   UNL     1      33.241 -12.645 -21.918  0.00  0.00    -0.101 C 
ATOM     39  H   UNL     1      33.140 -16.979 -22.443  0.00  0.00    -0.079 HD
ATOM     40  H   UNL     1      34.951 -13.648 -22.324  0.00  0.00    -0.080 HD
ENDBRANCH  31  32
ENDBRANCH  25  31
ENDBRANCH   3  30
TORSDOF 6
ENDMDL
MODEL 3
REMARK VINA RESULT:     -11.3      2.578      5.649
REMARK  Name = 10074640
REMARK  6 active torsions:
REMARK  status: ('A' for Active; 'I' for Inactive)
REMARK    1  A    between atoms: N_2  and  C_5
REMARK    2  A    between atoms: C_3  and  C_30
REMARK    3  A    between atoms: C_6  and  N_13
REMARK    4  A    between atoms: C_16  and  C_20
REMARK    5  A    between atoms: C_25  and  C_31
REMARK    6  A    between atoms: C_31  and  N_32
REMARK                            x       y       z     vdW  Elec       q    Type
REMARK                         _______ _______ _______ _____ _____    ______ ____
ROOT
ATOM      1  O   UNL     1      35.855 -17.726 -20.618  0.00  0.00    -0.270 OA
ATOM      2  N   UNL     1      33.694 -18.541 -21.031  0.00  0.00    -0.280 N 
ATOM      3  C   UNL     1      34.723 -17.593 -21.111  0.00  0.00    +0.249 C 
ATOM      4  H   UNL     1      32.850 -18.293 -21.474  0.00  0.00    +0.155 HD
ENDROOT
BRANCH   2   5
ATOM      5  C   UNL     1      33.710 -19.808 -20.398  0.00  0.00    +0.052 C 
ATOM      6  C   UNL     1      32.693 -21.397 -18.919  0.00  0.00    +0.048 C 
ATOM      7  C   UNL     1      32.678 -20.149 -19.541  0.00  0.00    +0.029 C 
ATOM      8  C   UNL     1      33.740 -22.286 -19.164  0.00  0.00    -0.008 C 
ATOM      9  C   UNL     1      34.756 -20.678 -20.653  0.00  0.00    +0.014 C 
ATOM     10  C   UNL     1      34.773 -21.925 -20.031  0.00  0.00    -0.002 C 
ATOM     11  C   UNL     1      33.782 -23.628 -18.511  0.00  0.00    +0.032 C 
BRANCH   6  13
ATOM     12  S   UNL     1      30.211 -22.807 -16.068  0.00  0.00    -0.059 S 
ATOM     13  N   UNL     1      31.640 -21.746 -18.045  0.00  0.00    -0.283 N 
ATOM     14  N   UNL     1      32.787 -22.610 -16.167  0.00  0.00    -0.384 NA
ATOM     15  C   UNL     1      31.681 -22.350 -16.819  0.00  0.00    +0.211 C 
ATOM     16  C   UNL     1      32.460 -23.222 -14.972  0.00  0.00    +0.124 C 
ATOM     17  C   UNL     1      31.114 -23.413 -14.742  0.00  0.00    +0.125 C 
ATOM     18  H   UNL     1      30.738 -21.517 -18.367  0.00  0.00    +0.155 HD
BRANCH  16  20
ATOM     19  N   UNL     1      34.133 -23.960 -11.736  0.00  0.00    -0.242 NA
ATOM     20  C   UNL     1      33.467 -23.628 -14.035  0.00  0.00    +0.046 C 
ATOM     21  C   UNL     1      34.713 -24.067 -14.468  0.00  0.00    +0.005 C 
ATOM     22  C   UNL     1      33.229 -23.592 -12.671  0.00  0.00    +0.101 C 
ATOM     23  C   UNL     1      35.669 -24.454 -13.537  0.00  0.00    +0.021 C 
ATOM     24  C   UNL     1      35.333 -24.382 -12.194  0.00  0.00    +0.099 C 
ENDBRANCH  16  20
ENDBRANCH   6  13
ENDBRANCH   2   5
BRANCH   3  30
ATOM     25  C   UNL     1      33.777 -14.008 -23.148  0.00  0.00    -0.043 C 
ATOM     26  C   UNL     1      33.844 -14.009 -21.762  0.00  0.00    -0.006 C 
ATOM     27  C   UNL     1      34.016 -15.165 -23.876  0.00  0.00    -0.006 C 
ATOM     28  C   UNL     1      34.157 -15.192 -21.090  0.00  0.00    +0.004 C 
ATOM     29  C   UNL     1      34.329 -16.347 -23.205  0.00  0.00    +0.004 C 
ATOM     30  C   UNL     1      34.399 -16.360 -21.813  0.00  0.00    +0.054 C 
BRANCH  25  31
ATOM     31  C   UNL     1      33.441 -12.732 -23.873  0.00  0.00    -0.050 C 
BRANCH  31  32
ATOM     32  N   UNL     1      33.059 -11.666 -22.948  0.00  0.00    +0.387 N 
ATOM     33  N   UNL     1      31.391  -9.459 -22.108  0.00  0.00    +0.383 N 
ATOM     34  C   UNL     1      33.147 -10.354 -23.600  0.00  0.00    -0.100 C 
ATOM     35  C   UNL     1      31.706 -11.889 -22.427  0.00  0.00    -0.100 C 
ATOM     36  C   UNL     1      32.744  -9.236 -22.632  0.00  0.00    -0.101 C 
ATOM     37  C   UNL     1      31.304 -10.773 -21.457  0.00  0.00    -0.101 C 
ATOM     38  C   UNL     1      31.010  -8.395 -21.182  0.00  0.00    -0.101 C 
ATOM     39  H   UNL     1      33.713 -11.680 -22.165  0.00  0.00    -0.079 HD
ATOM     40  H   UNL     1      30.737  -9.444 -22.891  0.00  0.00    -0.080 HD
ENDBRANCH  31  32
ENDBRANCH  25  31
ENDBRANCH   3  30
TORSDOF 6
ENDMDL
