MODEL 1
REMARK VINA RESULT:     -12.5      0.000      0.000
REMARK  Name = 5326929
REMARK  3 active torsions:
REMARK  status: ('A' for Active; 'I' for Inactive)
REMARK    1  A    between atoms: C_7  and  C_21
REMARK    2  A    between atoms: C_21  and  C_22
REMARK    3  A    between atoms: C_22  and  C_23
REMARK                            x       y       z     vdW  Elec       q    Type
REMARK                         _______ _______ _______ _____ _____    ______ ____
ROOT
ATOM      1  O   UNL     1      34.077 -23.605 -11.924  0.00  0.00    -0.209 OA
ATOM      2  N   UNL     1      35.154 -23.305 -15.770  0.00  0.00    -0.275 N 
ATOM      3  N   UNL     1      29.780 -22.650 -14.793  0.00  0.00    -0.315 N 
ATOM      4  N   UNL     1      30.410 -22.487 -16.918  0.00  0.00    -0.316 N 
ATOM      5  N   UNL     1      35.745 -23.660 -13.492  0.00  0.00    -0.302 NA
ATOM      6  N   UNL     1      37.344 -23.685 -15.204  0.00  0.00    -0.320 N 
ATOM      7  C   UNL     1      32.859 -22.892 -16.481  0.00  0.00    +0.007 C 
ATOM      8  C   UNL     1      33.798 -23.146 -15.469  0.00  0.00    +0.060 C 
ATOM      9  C   UNL     1      31.507 -22.740 -16.126  0.00  0.00    +0.056 C 
ATOM     10  C   UNL     1      31.138 -22.845 -14.789  0.00  0.00    +0.060 C 
ATOM     11  C   UNL     1      33.387 -23.246 -14.130  0.00  0.00    +0.109 C 
ATOM     12  C   UNL     1      32.043 -23.098 -13.757  0.00  0.00    +0.029 C 
ATOM     13  C   UNL     1      34.427 -23.518 -13.097  0.00  0.00    +0.208 C 
ATOM     14  C   UNL     1      29.393 -22.441 -16.088  0.00  0.00    +0.182 C 
ATOM     15  C   UNL     1      36.053 -23.554 -14.758  0.00  0.00    +0.248 C 
ATOM     16  H   UNL     1      35.465 -23.240 -16.701  0.00  0.00    +0.156 HD
ATOM     17  H   UNL     1      29.190 -22.659 -14.006  0.00  0.00    +0.148 HD
ATOM     18  H   UNL     1      30.391 -22.369 -17.895  0.00  0.00    +0.148 HD
ATOM     19  H   UNL     1      37.544 -23.600 -16.165  0.00  0.00    +0.146 HD
ATOM     20  H   UNL     1      38.070 -23.865 -14.565  0.00  0.00    +0.146 HD
ENDROOT
BRANCH   7  21
ATOM     21  C   UNL     1      33.290 -22.784 -17.910  0.00  0.00    +0.034 C 
BRANCH  21  22
ATOM     22  C   UNL     1      32.641 -21.611 -18.668  0.00  0.00    +0.031 C 
BRANCH  22  23
ATOM     23  C   UNL     1      33.636 -20.775 -19.435  0.00  0.00    -0.022 C 
ATOM     24  C   UNL     1      33.177 -19.844 -20.355  0.00  0.00    -0.005 C 
ATOM     25  C   UNL     1      34.992 -20.951 -19.207  0.00  0.00    -0.005 C 
ATOM     26  C   UNL     1      35.465 -19.239 -20.844  0.00  0.00    -0.022 C 
ATOM     27  C   UNL     1      34.098 -19.072 -21.063  0.00  0.00    -0.005 C 
ATOM     28  C   UNL     1      35.912 -20.179 -19.915  0.00  0.00    -0.005 C 
ATOM     29  C   UNL     1      36.448 -18.413 -21.600  0.00  0.00    +0.031 C 
ENDBRANCH  22  23
ENDBRANCH  21  22
ENDBRANCH   7  21
TORSDOF 3
ENDMDL
MODEL 2
REMARK VINA RESULT:     -12.3      1.412      4.080
REMARK  Name = 5326929
REMARK  3 active torsions:
REMARK  status: ('A' for Active; 'I' for Inactive)
REMARK    1  A    between atoms: C_7  and  C_21
REMARK    2  A    between atoms: C_21  and  C_22
REMARK    3  A    between atoms: C_22  and  C_23
REMARK                            x       y       z     vdW  Elec       q    Type
REMARK                         _______ _______ _______ _____ _____    ______ ____
ROOT
ATOM      1  O   UNL     1      29.629 -24.573 -13.247  0.00  0.00    -0.209 OA
ATOM      2  N   UNL     1      29.849 -22.583 -16.716  0.00  0.00    -0.275 N 
ATOM      3  N   UNL     1      34.685 -23.603 -14.299  0.00  0.00    -0.315 N 
ATOM      4  N   UNL     1      34.774 -22.501 -16.226  0.00  0.00    -0.316 N 
ATOM      5  N   UNL     1      28.540 -23.638 -15.031  0.00  0.00    -0.302 NA
ATOM      6  N   UNL     1      27.565 -22.640 -16.913  0.00  0.00    -0.320 N 
ATOM      7  C   UNL     1      32.283 -22.466 -16.606  0.00  0.00    +0.007 C 
ATOM      8  C   UNL     1      31.052 -22.867 -16.062  0.00  0.00    +0.060 C 
ATOM      9  C   UNL     1      33.464 -22.777 -15.908  0.00  0.00    +0.056 C 
ATOM     10  C   UNL     1      33.381 -23.468 -14.704  0.00  0.00    +0.060 C 
ATOM     11  C   UNL     1      31.010 -23.563 -14.843  0.00  0.00    +0.109 C 
ATOM     12  C   UNL     1      32.177 -23.881 -14.132  0.00  0.00    +0.029 C 
ATOM     13  C   UNL     1      29.675 -23.964 -14.311  0.00  0.00    +0.208 C 
ATOM     14  C   UNL     1      35.478 -23.009 -15.241  0.00  0.00    +0.182 C 
ATOM     15  C   UNL     1      28.658 -22.988 -16.159  0.00  0.00    +0.248 C 
ATOM     16  H   UNL     1      29.855 -22.096 -17.571  0.00  0.00    +0.156 HD
ATOM     17  H   UNL     1      34.994 -24.047 -13.477  0.00  0.00    +0.148 HD
ATOM     18  H   UNL     1      35.110 -22.025 -17.019  0.00  0.00    +0.148 HD
ATOM     19  H   UNL     1      27.687 -22.149 -17.759  0.00  0.00    +0.146 HD
ATOM     20  H   UNL     1      26.661 -22.879 -16.609  0.00  0.00    +0.146 HD
ENDROOT
BRANCH   7  21
ATOM     21  C   UNL     1      32.335 -21.725 -17.904  0.00  0.00    +0.034 C 
BRANCH  21  22
ATOM     22  C   UNL     1      33.456 -22.200 -18.848  0.00  0.00    +0.031 C 
BRANCH  22  23
ATOM     23  C   UNL     1      34.145 -21.070 -19.572  0.00  0.00    -0.022 C 
ATOM     24  C   UNL     1      33.393 -20.199 -20.346  0.00  0.00    -0.005 C 
ATOM     25  C   UNL     1      35.517 -20.921 -19.450  0.00  0.00    -0.005 C 
ATOM     26  C   UNL     1      35.411 -18.994 -20.903  0.00  0.00    -0.022 C 
ATOM     27  C   UNL     1      34.031 -19.155 -21.016  0.00  0.00    -0.005 C 
ATOM     28  C   UNL     1      36.155 -19.877 -20.119  0.00  0.00    -0.005 C 
ATOM     29  C   UNL     1      36.092 -17.877 -21.617  0.00  0.00    +0.031 C 
ENDBRANCH  22  23
ENDBRANCH  21  22
ENDBRANCH   7  21
TORSDOF 3
ENDMDL
MODEL 3
REMARK VINA RESULT:     -11.8      1.136      4.043
REMARK  Name = 5326929
REMARK  3 active torsions:
REMARK  status: ('A' for Active; 'I' for Inactive)
REMARK    1  A    between atoms: C_7  and  C_21
REMARK    2  A    between atoms: C_21  and  C_22
REMARK    3  A    between atoms: C_22  and  C_23
REMARK                            x       y       z     vdW  Elec       q    Type
REMARK                         _______ _______ _______ _____ _____    ______ ____
ROOT
ATOM      1  O   UNL     1      30.369 -23.560 -12.416  0.00  0.00    -0.209 OA
ATOM      2  N   UNL     1      30.945 -22.684 -16.282  0.00  0.00    -0.275 N 
ATOM      3  N   UNL     1      35.506 -23.912 -13.461  0.00  0.00    -0.315 N 
ATOM      4  N   UNL     1      35.793 -23.423 -15.610  0.00  0.00    -0.316 N 
ATOM      5  N   UNL     1      29.470 -22.960 -14.435  0.00  0.00    -0.302 NA
ATOM      6  N   UNL     1      28.694 -22.351 -16.560  0.00  0.00    -0.320 N 
ATOM      7  C   UNL     1      33.355 -23.013 -16.097  0.00  0.00    +0.007 C 
ATOM      8  C   UNL     1      32.074 -23.003 -15.521  0.00  0.00    +0.060 C 
ATOM      9  C   UNL     1      34.457 -23.342 -15.289  0.00  0.00    +0.056 C 
ATOM     10  C   UNL     1      34.252 -23.645 -13.947  0.00  0.00    +0.060 C 
ATOM     11  C   UNL     1      31.907 -23.315 -14.163  0.00  0.00    +0.109 C 
ATOM     12  C   UNL     1      32.995 -23.644 -13.340  0.00  0.00    +0.029 C 
ATOM     13  C   UNL     1      30.525 -23.288 -13.603  0.00  0.00    +0.208 C 
ATOM     14  C   UNL     1      36.392 -23.765 -14.493  0.00  0.00    +0.182 C 
ATOM     15  C   UNL     1      29.703 -22.682 -15.691  0.00  0.00    +0.248 C 
ATOM     16  H   UNL     1      31.040 -22.461 -17.236  0.00  0.00    +0.156 HD
ATOM     17  H   UNL     1      35.729 -24.163 -12.537  0.00  0.00    +0.148 HD
ATOM     18  H   UNL     1      36.209 -23.258 -16.486  0.00  0.00    +0.148 HD
ATOM     19  H   UNL     1      28.901 -22.145 -17.501  0.00  0.00    +0.146 HD
ATOM     20  H   UNL     1      27.763 -22.318 -16.243  0.00  0.00    +0.146 HD
ENDROOT
BRANCH   7  21
ATOM     21  C   UNL     1      33.540 -22.683 -17.544  0.00  0.00    +0.034 C 
BRANCH  21  22
ATOM     22  C   UNL     1      34.811 -21.863 -17.838  0.00  0.00    +0.031 C 
BRANCH  22  23
ATOM     23  C   UNL     1      34.673 -20.961 -19.040  0.00  0.00    -0.022 C 
ATOM     24  C   UNL     1      35.807 -20.383 -19.590  0.00  0.00    -0.005 C 
ATOM     25  C   UNL     1      33.416 -20.727 -19.574  0.00  0.00    -0.005 C 
ATOM     26  C   UNL     1      34.420 -19.303 -21.248  0.00  0.00    -0.022 C 
ATOM     27  C   UNL     1      35.679 -19.549 -20.701  0.00  0.00    -0.005 C 
ATOM     28  C   UNL     1      33.288 -19.893 -20.684  0.00  0.00    -0.005 C 
ATOM     29  C   UNL     1      34.283 -18.414 -22.436  0.00  0.00    +0.031 C 
ENDBRANCH  22  23
ENDBRANCH  21  22
ENDBRANCH   7  21
TORSDOF 3
ENDMDL
MODEL 4
REMARK VINA RESULT:     -11.8      3.868      6.995
REMARK  Name = 5326929
REMARK  3 active torsions:
REMARK  status: ('A' for Active; 'I' for Inactive)
REMARK    1  A    between atoms: C_7  and  C_21
REMARK    2  A    between atoms: C_21  and  C_22
REMARK    3  A    between atoms: C_22  and  C_23
REMARK                            x       y       z     vdW  Elec       q    Type
REMARK                         _______ _______ _______ _____ _____    ______ ____
ROOT
ATOM      1  O   UNL     1      32.917 -18.781 -22.356  0.00  0.00    -0.209 OA
ATOM      2  N   UNL     1      36.307 -19.525 -20.357  0.00  0.00    -0.275 N 
ATOM      3  N   UNL     1      31.830 -22.033 -18.375  0.00  0.00    -0.315 N 
ATOM      4  N   UNL     1      33.727 -22.428 -17.288  0.00  0.00    -0.316 N 
ATOM      5  N   UNL     1      35.170 -18.434 -22.140  0.00  0.00    -0.302 NA
ATOM      6  N   UNL     1      37.473 -18.174 -21.797  0.00  0.00    -0.320 N 
ATOM      7  C   UNL     1      35.165 -20.982 -18.769  0.00  0.00    +0.007 C 
ATOM      8  C   UNL     1      35.140 -20.139 -19.892  0.00  0.00    +0.060 C 
ATOM      9  C   UNL     1      33.964 -21.576 -18.343  0.00  0.00    +0.056 C 
ATOM     10  C   UNL     1      32.789 -21.314 -19.040  0.00  0.00    +0.060 C 
ATOM     11  C   UNL     1      33.935 -19.899 -20.570  0.00  0.00    +0.109 C 
ATOM     12  C   UNL     1      32.726 -20.482 -20.159  0.00  0.00    +0.029 C 
ATOM     13  C   UNL     1      33.966 -18.996 -21.756  0.00  0.00    +0.208 C 
ATOM     14  C   UNL     1      32.439 -22.681 -17.336  0.00  0.00    +0.182 C 
ATOM     15  C   UNL     1      36.253 -18.704 -21.459  0.00  0.00    +0.248 C 
ATOM     16  H   UNL     1      37.163 -19.679 -19.896  0.00  0.00    +0.156 HD
ATOM     17  H   UNL     1      30.873 -22.075 -18.603  0.00  0.00    +0.148 HD
ATOM     18  H   UNL     1      34.381 -22.771 -16.638  0.00  0.00    +0.148 HD
ATOM     19  H   UNL     1      38.271 -18.397 -21.264  0.00  0.00    +0.146 HD
ATOM     20  H   UNL     1      37.551 -17.572 -22.571  0.00  0.00    +0.146 HD
ENDROOT
BRANCH   7  21
ATOM     21  C   UNL     1      36.446 -21.243 -18.042  0.00  0.00    +0.034 C 
BRANCH  21  22
ATOM     22  C   UNL     1      36.419 -20.820 -16.561  0.00  0.00    +0.031 C 
BRANCH  22  23
ATOM     23  C   UNL     1      36.770 -21.941 -15.615  0.00  0.00    -0.022 C 
ATOM     24  C   UNL     1      35.908 -22.247 -14.572  0.00  0.00    -0.005 C 
ATOM     25  C   UNL     1      37.947 -22.648 -15.804  0.00  0.00    -0.005 C 
ATOM     26  C   UNL     1      37.415 -24.002 -13.876  0.00  0.00    -0.022 C 
ATOM     27  C   UNL     1      36.233 -23.284 -13.698  0.00  0.00    -0.005 C 
ATOM     28  C   UNL     1      38.272 -23.684 -14.929  0.00  0.00    -0.005 C 
ATOM     29  C   UNL     1      37.761 -25.111 -12.942  0.00  0.00    +0.031 C 
ENDBRANCH  22  23
ENDBRANCH  21  22
ENDBRANCH   7  21
TORSDOF 3
ENDMDL
MODEL 5
REMARK VINA RESULT:     -11.3      1.465      2.029
REMARK  Name = 5326929
REMARK  3 active torsions:
REMARK  status: ('A' for Active; 'I' for Inactive)
REMARK    1  A    between atoms: C_7  and  C_21
REMARK    2  A    between atoms: C_21  and  C_22
REMARK    3  A    between atoms: C_22  and  C_23
REMARK                            x       y       z     vdW  Elec       q    Type
REMARK                         _______ _______ _______ _____ _____    ______ ____
ROOT
ATOM      1  O   UNL     1      36.283 -25.066 -11.283  0.00  0.00    -0.209 OA
ATOM      2  N   UNL     1      36.661 -24.122 -15.157  0.00  0.00    -0.275 N 
ATOM      3  N   UNL     1      31.696 -23.157 -12.994  0.00  0.00    -0.315 N 
ATOM      4  N   UNL     1      31.938 -22.643 -15.141  0.00  0.00    -0.316 N 
ATOM      5  N   UNL     1      37.610 -24.972 -13.146  0.00  0.00    -0.302 NA
ATOM      6  N   UNL     1      38.847 -24.815 -15.129  0.00  0.00    -0.320 N 
ATOM      7  C   UNL     1      34.349 -23.359 -15.296  0.00  0.00    +0.007 C 
ATOM      8  C   UNL     1      35.417 -23.896 -14.560  0.00  0.00    +0.060 C 
ATOM      9  C   UNL     1      33.119 -23.150 -14.649  0.00  0.00    +0.056 C 
ATOM     10  C   UNL     1      32.993 -23.479 -13.304  0.00  0.00    +0.060 C 
ATOM     11  C   UNL     1      35.251 -24.216 -13.203  0.00  0.00    +0.109 C 
ATOM     12  C   UNL     1      34.031 -24.015 -12.540  0.00  0.00    +0.029 C 
ATOM     13  C   UNL     1      36.419 -24.784 -12.469  0.00  0.00    +0.208 C 
ATOM     14  C   UNL     1      31.108 -22.662 -14.125  0.00  0.00    +0.182 C 
ATOM     15  C   UNL     1      37.690 -24.650 -14.411  0.00  0.00    +0.248 C 
ATOM     16  H   UNL     1      36.800 -23.906 -16.107  0.00  0.00    +0.156 HD
ATOM     17  H   UNL     1      31.266 -23.264 -12.115  0.00  0.00    +0.148 HD
ATOM     18  H   UNL     1      31.756 -22.333 -16.058  0.00  0.00    +0.148 HD
ATOM     19  H   UNL     1      38.876 -24.563 -16.082  0.00  0.00    +0.146 HD
ATOM     20  H   UNL     1      39.648 -25.186 -14.695  0.00  0.00    +0.146 HD
ENDROOT
BRANCH   7  21
ATOM     21  C   UNL     1      34.520 -23.014 -16.742  0.00  0.00    +0.034 C 
BRANCH  21  22
ATOM     22  C   UNL     1      33.272 -22.377 -17.382  0.00  0.00    +0.031 C 
BRANCH  22  23
ATOM     23  C   UNL     1      33.595 -21.468 -18.542  0.00  0.00    -0.022 C 
ATOM     24  C   UNL     1      32.562 -20.944 -19.304  0.00  0.00    -0.005 C 
ATOM     25  C   UNL     1      34.919 -21.173 -18.826  0.00  0.00    -0.005 C 
ATOM     26  C   UNL     1      34.190 -19.799 -20.674  0.00  0.00    -0.022 C 
ATOM     27  C   UNL     1      32.862 -20.104 -20.377  0.00  0.00    -0.005 C 
ATOM     28  C   UNL     1      35.219 -20.334 -19.898  0.00  0.00    -0.005 C 
ATOM     29  C   UNL     1      34.510 -18.901 -21.820  0.00  0.00    +0.031 C 
ENDBRANCH  22  23
ENDBRANCH  21  22
ENDBRANCH   7  21
TORSDOF 3
ENDMDL
MODEL 6
REMARK VINA RESULT:     -10.7      2.692      6.769
REMARK  Name = 5326929
REMARK  3 active torsions:
REMARK  status: ('A' for Active; 'I' for Inactive)
REMARK    1  A    between atoms: C_7  and  C_21
REMARK    2  A    between atoms: C_21  and  C_22
REMARK    3  A    between atoms: C_22  and  C_23
REMARK                            x       y       z     vdW  Elec       q    Type
REMARK                         _______ _______ _______ _____ _____    ______ ____
ROOT
ATOM      1  O   UNL     1      36.203 -19.831 -19.841  0.00  0.00    -0.209 OA
ATOM      2  N   UNL     1      33.010 -21.768 -18.394  0.00  0.00    -0.275 N 
ATOM      3  N   UNL     1      37.663 -22.489 -15.551  0.00  0.00    -0.315 N 
ATOM      4  N   UNL     1      35.873 -23.550 -14.772  0.00  0.00    -0.316 N 
ATOM      5  N   UNL     1      33.975 -20.329 -20.025  0.00  0.00    -0.302 NA
ATOM      6  N   UNL     1      31.710 -20.924 -20.085  0.00  0.00    -0.320 N 
ATOM      7  C   UNL     1      34.299 -22.720 -16.556  0.00  0.00    +0.007 C 
ATOM      8  C   UNL     1      34.218 -21.919 -17.707  0.00  0.00    +0.060 C 
ATOM      9  C   UNL     1      35.538 -22.839 -15.901  0.00  0.00    +0.056 C 
ATOM     10  C   UNL     1      36.643 -22.164 -16.407  0.00  0.00    +0.060 C 
ATOM     11  C   UNL     1      35.356 -21.254 -18.188  0.00  0.00    +0.109 C 
ATOM     12  C   UNL     1      36.601 -21.361 -17.548  0.00  0.00    +0.029 C 
ATOM     13  C   UNL     1      35.213 -20.417 -19.414  0.00  0.00    +0.208 C 
ATOM     14  C   UNL     1      37.153 -23.320 -14.591  0.00  0.00    +0.182 C 
ATOM     15  C   UNL     1      32.959 -20.977 -19.519  0.00  0.00    +0.248 C 
ATOM     16  H   UNL     1      32.199 -22.226 -18.075  0.00  0.00    +0.156 HD
ATOM     17  H   UNL     1      38.596 -22.181 -15.615  0.00  0.00    +0.148 HD
ATOM     18  H   UNL     1      35.282 -24.112 -14.220  0.00  0.00    +0.148 HD
ATOM     19  H   UNL     1      30.964 -21.425 -19.680  0.00  0.00    +0.146 HD
ATOM     20  H   UNL     1      31.559 -20.387 -20.895  0.00  0.00    +0.146 HD
ENDROOT
BRANCH   7  21
ATOM     21  C   UNL     1      33.090 -23.432 -16.037  0.00  0.00    +0.034 C 
BRANCH  21  22
ATOM     22  C   UNL     1      32.385 -22.700 -14.880  0.00  0.00    +0.031 C 
BRANCH  22  23
ATOM     23  C   UNL     1      30.901 -22.536 -15.094  0.00  0.00    -0.022 C 
ATOM     24  C   UNL     1      30.408 -22.418 -16.385  0.00  0.00    -0.005 C 
ATOM     25  C   UNL     1      30.055 -22.508 -13.997  0.00  0.00    -0.005 C 
ATOM     26  C   UNL     1      28.172 -22.235 -15.486  0.00  0.00    -0.022 C 
ATOM     27  C   UNL     1      29.035 -22.266 -16.581  0.00  0.00    -0.005 C 
ATOM     28  C   UNL     1      28.682 -22.357 -14.193  0.00  0.00    -0.005 C 
ATOM     29  C   UNL     1      26.706 -22.075 -15.697  0.00  0.00    +0.031 C 
ENDBRANCH  22  23
ENDBRANCH  21  22
ENDBRANCH   7  21
TORSDOF 3
ENDMDL
MODEL 7
REMARK VINA RESULT:     -10.6      3.107      6.455
REMARK  Name = 5326929
REMARK  3 active torsions:
REMARK  status: ('A' for Active; 'I' for Inactive)
REMARK    1  A    between atoms: C_7  and  C_21
REMARK    2  A    between atoms: C_21  and  C_22
REMARK    3  A    between atoms: C_22  and  C_23
REMARK                            x       y       z     vdW  Elec       q    Type
REMARK                         _______ _______ _______ _____ _____    ______ ____
ROOT
ATOM      1  O   UNL     1      37.014 -21.313 -16.787  0.00  0.00    -0.209 OA
ATOM      2  N   UNL     1      33.508 -23.092 -16.022  0.00  0.00    -0.275 N 
ATOM      3  N   UNL     1      37.018 -22.934 -11.789  0.00  0.00    -0.315 N 
ATOM      4  N   UNL     1      35.063 -23.914 -11.395  0.00  0.00    -0.316 N 
ATOM      5  N   UNL     1      34.954 -21.968 -17.542  0.00  0.00    -0.302 NA
ATOM      6  N   UNL     1      32.818 -22.695 -18.172  0.00  0.00    -0.320 N 
ATOM      7  C   UNL     1      34.141 -23.565 -13.715  0.00  0.00    +0.007 C 
ATOM      8  C   UNL     1      34.436 -23.027 -14.978  0.00  0.00    +0.060 C 
ATOM      9  C   UNL     1      35.108 -23.472 -12.698  0.00  0.00    +0.056 C 
ATOM     10  C   UNL     1      36.324 -22.854 -12.969  0.00  0.00    +0.060 C 
ATOM     11  C   UNL     1      35.674 -22.409 -15.213  0.00  0.00    +0.109 C 
ATOM     12  C   UNL     1      36.652 -22.308 -14.211  0.00  0.00    +0.029 C 
ATOM     13  C   UNL     1      35.934 -21.855 -16.573  0.00  0.00    +0.208 C 
ATOM     14  C   UNL     1      36.222 -23.576 -10.880  0.00  0.00    +0.182 C 
ATOM     15  C   UNL     1      33.824 -22.556 -17.249  0.00  0.00    +0.248 C 
ATOM     16  H   UNL     1      32.634 -23.521 -15.880  0.00  0.00    +0.156 HD
ATOM     17  H   UNL     1      37.926 -22.592 -11.625  0.00  0.00    +0.148 HD
ATOM     18  H   UNL     1      34.322 -24.382 -10.947  0.00  0.00    +0.148 HD
ATOM     19  H   UNL     1      31.977 -23.143 -17.921  0.00  0.00    +0.146 HD
ATOM     20  H   UNL     1      32.936 -22.347 -19.085  0.00  0.00    +0.146 HD
ENDROOT
BRANCH   7  21
ATOM     21  C   UNL     1      32.823 -24.224 -13.457  0.00  0.00    +0.034 C 
BRANCH  21  22
ATOM     22  C   UNL     1      31.686 -23.236 -13.135  0.00  0.00    +0.031 C 
BRANCH  22  23
ATOM     23  C   UNL     1      30.544 -23.301 -14.119  0.00  0.00    -0.022 C 
ATOM     24  C   UNL     1      29.661 -24.369 -14.068  0.00  0.00    -0.005 C 
ATOM     25  C   UNL     1      30.395 -22.291 -15.056  0.00  0.00    -0.005 C 
ATOM     26  C   UNL     1      28.445 -23.420 -15.927  0.00  0.00    -0.022 C 
ATOM     27  C   UNL     1      28.606 -24.429 -14.977  0.00  0.00    -0.005 C 
ATOM     28  C   UNL     1      29.340 -22.350 -15.966  0.00  0.00    -0.005 C 
ATOM     29  C   UNL     1      27.316 -23.483 -16.898  0.00  0.00    +0.031 C 
ENDBRANCH  22  23
ENDBRANCH  21  22
ENDBRANCH   7  21
TORSDOF 3
ENDMDL
MODEL 8
REMARK VINA RESULT:     -10.4      2.896      5.904
REMARK  Name = 5326929
REMARK  3 active torsions:
REMARK  status: ('A' for Active; 'I' for Inactive)
REMARK    1  A    between atoms: C_7  and  C_21
REMARK    2  A    between atoms: C_21  and  C_22
REMARK    3  A    between atoms: C_22  and  C_23
REMARK                            x       y       z     vdW  Elec       q    Type
REMARK                         _______ _______ _______ _____ _____    ______ ____
ROOT
ATOM      1  O   UNL     1      32.765 -22.303 -18.889  0.00  0.00    -0.209 OA
ATOM      2  N   UNL     1      35.093 -22.278 -15.631  0.00  0.00    -0.275 N 
ATOM      3  N   UNL     1      29.917 -23.940 -14.789  0.00  0.00    -0.315 N 
ATOM      4  N   UNL     1      31.234 -23.916 -13.000  0.00  0.00    -0.316 N 
ATOM      5  N   UNL     1      34.819 -21.893 -17.963  0.00  0.00    -0.302 NA
ATOM      6  N   UNL     1      36.861 -21.520 -16.879  0.00  0.00    -0.320 N 
ATOM      7  C   UNL     1      33.281 -23.083 -14.211  0.00  0.00    +0.007 C 
ATOM      8  C   UNL     1      33.768 -22.692 -15.469  0.00  0.00    +0.060 C 
ATOM      9  C   UNL     1      31.940 -23.492 -14.102  0.00  0.00    +0.056 C 
ATOM     10  C   UNL     1      31.136 -23.499 -15.237  0.00  0.00    +0.060 C 
ATOM     11  C   UNL     1      32.925 -22.713 -16.592  0.00  0.00    +0.109 C 
ATOM     12  C   UNL     1      31.584 -23.117 -16.503  0.00  0.00    +0.029 C 
ATOM     13  C   UNL     1      33.494 -22.287 -17.903  0.00  0.00    +0.208 C 
ATOM     14  C   UNL     1      30.027 -24.175 -13.446  0.00  0.00    +0.182 C 
ATOM     15  C   UNL     1      35.543 -21.900 -16.875  0.00  0.00    +0.248 C 
ATOM     16  H   UNL     1      35.701 -22.255 -14.857  0.00  0.00    +0.156 HD
ATOM     17  H   UNL     1      29.108 -24.064 -15.335  0.00  0.00    +0.148 HD
ATOM     18  H   UNL     1      31.563 -24.005 -12.076  0.00  0.00    +0.148 HD
ATOM     19  H   UNL     1      37.381 -21.536 -16.042  0.00  0.00    +0.146 HD
ATOM     20  H   UNL     1      37.288 -21.230 -17.716  0.00  0.00    +0.146 HD
ENDROOT
BRANCH   7  21
ATOM     21  C   UNL     1      34.174 -23.065 -13.011  0.00  0.00    +0.034 C 
BRANCH  21  22
ATOM     22  C   UNL     1      34.687 -24.456 -12.595  0.00  0.00    +0.031 C 
BRANCH  22  23
ATOM     23  C   UNL     1      36.094 -24.736 -13.062  0.00  0.00    -0.022 C 
ATOM     24  C   UNL     1      36.294 -25.523 -14.186  0.00  0.00    -0.005 C 
ATOM     25  C   UNL     1      37.162 -24.202 -12.359  0.00  0.00    -0.005 C 
ATOM     26  C   UNL     1      38.680 -25.251 -13.918  0.00  0.00    -0.022 C 
ATOM     27  C   UNL     1      37.595 -25.781 -14.616  0.00  0.00    -0.005 C 
ATOM     28  C   UNL     1      38.463 -24.460 -12.789  0.00  0.00    -0.005 C 
ATOM     29  C   UNL     1      40.070 -25.526 -14.379  0.00  0.00    +0.031 C 
ENDBRANCH  22  23
ENDBRANCH  21  22
ENDBRANCH   7  21
TORSDOF 3
ENDMDL
MODEL 9
REMARK VINA RESULT:     -10.2     12.042     15.016
REMARK  Name = 5326929
REMARK  3 active torsions:
REMARK  status: ('A' for Active; 'I' for Inactive)
REMARK    1  A    between atoms: C_7  and  C_21
REMARK    2  A    between atoms: C_21  and  C_22
REMARK    3  A    between atoms: C_22  and  C_23
REMARK                            x       y       z     vdW  Elec       q    Type
REMARK                         _______ _______ _______ _____ _____    ______ ____
ROOT
ATOM      1  O   UNL     1      31.435  -4.330 -21.688  0.00  0.00    -0.209 OA
ATOM      2  N   UNL     1      31.591  -7.596 -24.001  0.00  0.00    -0.275 N 
ATOM      3  N   UNL     1      31.471  -8.574 -18.589  0.00  0.00    -0.315 N 
ATOM      4  N   UNL     1      31.557 -10.366 -19.900  0.00  0.00    -0.316 N 
ATOM      5  N   UNL     1      31.518  -5.226 -23.793  0.00  0.00    -0.302 NA
ATOM      6  N   UNL     1      31.604  -6.284 -25.882  0.00  0.00    -0.320 N 
ATOM      7  C   UNL     1      31.581  -9.084 -22.069  0.00  0.00    +0.007 C 
ATOM      8  C   UNL     1      31.559  -7.791 -22.617  0.00  0.00    +0.060 C 
ATOM      9  C   UNL     1      31.546  -9.226 -20.671  0.00  0.00    +0.056 C 
ATOM     10  C   UNL     1      31.492  -8.089 -19.872  0.00  0.00    +0.060 C 
ATOM     11  C   UNL     1      31.504  -6.667 -21.778  0.00  0.00    +0.109 C 
ATOM     12  C   UNL     1      31.470  -6.789 -20.381  0.00  0.00    +0.029 C 
ATOM     13  C   UNL     1      31.484  -5.318 -22.414  0.00  0.00    +0.208 C 
ATOM     14  C   UNL     1      31.512  -9.939 -18.659  0.00  0.00    +0.182 C 
ATOM     15  C   UNL     1      31.568  -6.318 -24.511  0.00  0.00    +0.248 C 
ATOM     16  H   UNL     1      31.630  -8.369 -24.609  0.00  0.00    +0.156 HD
ATOM     17  H   UNL     1      31.435  -8.036 -17.766  0.00  0.00    +0.148 HD
ATOM     18  H   UNL     1      31.591 -11.299 -20.211  0.00  0.00    +0.148 HD
ATOM     19  H   UNL     1      31.642  -7.124 -26.395  0.00  0.00    +0.146 HD
ATOM     20  H   UNL     1      31.593  -5.420 -26.354  0.00  0.00    +0.146 HD
ENDROOT
BRANCH   7  21
ATOM     21  C   UNL     1      31.638 -10.286 -22.958  0.00  0.00    +0.034 C 
BRANCH  21  22
ATOM     22  C   UNL     1      33.067 -10.692 -23.365  0.00  0.00    +0.031 C 
BRANCH  22  23
ATOM     23  C   UNL     1      33.216 -12.172 -23.620  0.00  0.00    -0.022 C 
ATOM     24  C   UNL     1      32.877 -12.685 -24.863  0.00  0.00    -0.005 C 
ATOM     25  C   UNL     1      33.689 -12.992 -22.609  0.00  0.00    -0.005 C 
ATOM     26  C   UNL     1      33.489 -14.891 -24.089  0.00  0.00    -0.022 C 
ATOM     27  C   UNL     1      33.015 -14.053 -25.098  0.00  0.00    -0.005 C 
ATOM     28  C   UNL     1      33.827 -14.360 -22.844  0.00  0.00    -0.005 C 
ATOM     29  C   UNL     1      33.638 -16.352 -24.341  0.00  0.00    +0.031 C 
ENDBRANCH  22  23
ENDBRANCH  21  22
ENDBRANCH   7  21
TORSDOF 3
ENDMDL
