MODEL 1
REMARK VINA RESULT:     -11.2      0.000      0.000
REMARK  Name = 132999
REMARK  10 active torsions:
REMARK  status: ('A' for Active; 'I' for Inactive)
REMARK    1  A    between atoms: C_1  and  C_2
REMARK    2  A    between atoms: C_1  and  C_19
REMARK    3  A    between atoms: C_2  and  N_3
REMARK    4  A    between atoms: N_3  and  C_6
REMARK    5  A    between atoms: C_6  and  C_7
REMARK    6  A    between atoms: C_13  and  O_15
REMARK    7  A    between atoms: C_14  and  O_17
REMARK    8  A    between atoms: C_19  and  N_21
REMARK    9  A    between atoms: C_30  and  O_32
REMARK   10  A    between atoms: C_31  and  O_34
REMARK                            x       y       z     vdW  Elec       q    Type
REMARK                         _______ _______ _______ _____ _____    ______ ____
ROOT
ATOM      1  C   UNL     1      33.725 -19.511 -21.870  0.00  0.00    -0.001 C 
ENDROOT
BRANCH   1   2
ATOM      2  C   UNL     1      34.661 -18.590 -22.656  0.00  0.00    -0.076 C 
BRANCH   2   3
ATOM      3  N   UNL     1      35.485 -17.770 -21.775  0.00  0.00    +0.386 N 
ATOM      4  C   UNL     1      36.886 -18.188 -21.842  0.00  0.00    -0.101 C 
ATOM      5  H   UNL     1      35.153 -17.898 -20.819  0.00  0.00    -0.080 HD
BRANCH   3   6
ATOM      6  C   UNL     1      35.362 -16.353 -22.124  0.00  0.00    -0.073 C 
BRANCH   6   7
ATOM      7  C   UNL     1      33.981 -15.824 -21.767  0.00  0.00    +0.006 C 
ATOM      8  C   UNL     1      33.932 -14.905 -20.501  0.00  0.00    +0.028 C 
ATOM      9  C   UNL     1      33.602 -14.603 -22.551  0.00  0.00    -0.025 C 
ATOM     10  C   UNL     1      33.560 -13.795 -21.441  0.00  0.00    -0.023 C 
ATOM     11  C   UNL     1      33.333 -14.126 -23.812  0.00  0.00    +0.035 C 
ATOM     12  C   UNL     1      33.246 -12.459 -21.521  0.00  0.00    +0.035 C 
ATOM     13  C   UNL     1      33.011 -12.771 -23.927  0.00  0.00    +0.172 C 
ATOM     14  C   UNL     1      32.967 -11.943 -22.788  0.00  0.00    +0.172 C 
BRANCH  13  15
ATOM     15  O   UNL     1      32.736 -12.255 -25.158  0.00  0.00    -0.468 OA
ATOM     16  C   UNL     1      32.661 -13.177 -26.245  0.00  0.00    +0.253 C 
ENDBRANCH  13  15
BRANCH  14  17
ATOM     17  O   UNL     1      32.651 -10.622 -22.914  0.00  0.00    -0.468 OA
ATOM     18  C   UNL     1      31.510 -10.160 -22.194  0.00  0.00    +0.253 C 
ENDBRANCH  14  17
ENDBRANCH   6   7
ENDBRANCH   3   6
ENDBRANCH   2   3
ENDBRANCH   1   2
BRANCH   1  19
ATOM     19  C   UNL     1      33.855 -19.396 -20.353  0.00  0.00    +0.091 C 
BRANCH  19  21
ATOM     20  O   UNL     1      31.714 -20.649 -18.965  0.00  0.00    -0.275 OA
ATOM     21  N   UNL     1      33.920 -20.695 -19.697  0.00  0.00    -0.279 N 
ATOM     22  C   UNL     1      35.217 -21.366 -19.672  0.00  0.00    +0.098 C 
ATOM     23  C   UNL     1      35.876 -21.257 -18.299  0.00  0.00    +0.048 C 
ATOM     24  C   UNL     1      32.811 -21.207 -19.030  0.00  0.00    +0.230 C 
ATOM     25  C   UNL     1      35.186 -21.908 -17.118  0.00  0.00    -0.021 C 
ATOM     26  C   UNL     1      33.023 -22.547 -18.359  0.00  0.00    +0.111 C 
ATOM     27  C   UNL     1      33.892 -22.469 -17.128  0.00  0.00    -0.014 C 
ATOM     28  C   UNL     1      35.915 -21.910 -15.909  0.00  0.00    +0.036 C 
ATOM     29  C   UNL     1      33.384 -23.031 -15.940  0.00  0.00    +0.036 C 
ATOM     30  C   UNL     1      35.390 -22.464 -14.742  0.00  0.00    +0.172 C 
ATOM     31  C   UNL     1      34.123 -23.027 -14.758  0.00  0.00    +0.172 C 
BRANCH  30  32
ATOM     32  O   UNL     1      36.131 -22.444 -13.599  0.00  0.00    -0.468 OA
ATOM     33  C   UNL     1      37.089 -23.487 -13.428  0.00  0.00    +0.253 C 
ENDBRANCH  30  32
BRANCH  31  34
ATOM     34  O   UNL     1      33.593 -23.578 -13.631  0.00  0.00    -0.468 OA
ATOM     35  C   UNL     1      32.210 -23.929 -13.669  0.00  0.00    +0.253 C 
ENDBRANCH  31  34
ENDBRANCH  19  21
ENDBRANCH   1  19
TORSDOF 10
ENDMDL
MODEL 2
REMARK VINA RESULT:     -11.1      1.883      3.520
REMARK  Name = 132999
REMARK  10 active torsions:
REMARK  status: ('A' for Active; 'I' for Inactive)
REMARK    1  A    between atoms: C_1  and  C_2
REMARK    2  A    between atoms: C_1  and  C_19
REMARK    3  A    between atoms: C_2  and  N_3
REMARK    4  A    between atoms: N_3  and  C_6
REMARK    5  A    between atoms: C_6  and  C_7
REMARK    6  A    between atoms: C_13  and  O_15
REMARK    7  A    between atoms: C_14  and  O_17
REMARK    8  A    between atoms: C_19  and  N_21
REMARK    9  A    between atoms: C_30  and  O_32
REMARK   10  A    between atoms: C_31  and  O_34
REMARK                            x       y       z     vdW  Elec       q    Type
REMARK                         _______ _______ _______ _____ _____    ______ ____
ROOT
ATOM      1  C   UNL     1      33.319 -20.716 -19.822  0.00  0.00    -0.001 C 
ENDROOT
BRANCH   1   2
ATOM      2  C   UNL     1      34.314 -20.197 -20.863  0.00  0.00    -0.076 C 
BRANCH   2   3
ATOM      3  N   UNL     1      34.925 -18.939 -20.453  0.00  0.00    +0.386 N 
ATOM      4  C   UNL     1      36.306 -18.854 -20.933  0.00  0.00    -0.101 C 
ATOM      5  H   UNL     1      34.934 -18.906 -19.433  0.00  0.00    -0.080 HD
BRANCH   3   6
ATOM      6  C   UNL     1      34.146 -17.802 -20.948  0.00  0.00    -0.073 C 
BRANCH   6   7
ATOM      7  C   UNL     1      34.929 -17.020 -21.991  0.00  0.00    +0.006 C 
ATOM      8  C   UNL     1      34.621 -17.408 -23.476  0.00  0.00    +0.028 C 
ATOM      9  C   UNL     1      34.312 -15.691 -22.312  0.00  0.00    -0.025 C 
ATOM     10  C   UNL     1      34.040 -16.032 -23.614  0.00  0.00    -0.023 C 
ATOM     11  C   UNL     1      33.988 -14.458 -21.797  0.00  0.00    +0.035 C 
ATOM     12  C   UNL     1      33.430 -15.160 -24.485  0.00  0.00    +0.035 C 
ATOM     13  C   UNL     1      33.366 -13.549 -22.657  0.00  0.00    +0.172 C 
ATOM     14  C   UNL     1      33.089 -13.899 -23.993  0.00  0.00    +0.172 C 
BRANCH  13  15
ATOM     15  O   UNL     1      33.029 -12.314 -22.189  0.00  0.00    -0.468 OA
ATOM     16  C   UNL     1      31.957 -12.249 -21.250  0.00  0.00    +0.253 C 
ENDBRANCH  13  15
BRANCH  14  17
ATOM     17  O   UNL     1      32.481 -13.002 -24.822  0.00  0.00    -0.468 OA
ATOM     18  C   UNL     1      32.922 -12.975 -26.178  0.00  0.00    +0.253 C 
ENDBRANCH  14  17
ENDBRANCH   6   7
ENDBRANCH   3   6
ENDBRANCH   2   3
ENDBRANCH   1   2
BRANCH   1  19
ATOM     19  C   UNL     1      33.735 -22.022 -19.147  0.00  0.00    +0.091 C 
BRANCH  19  21
ATOM     20  O   UNL     1      36.439 -21.263 -18.713  0.00  0.00    -0.275 OA
ATOM     21  N   UNL     1      34.351 -21.806 -17.846  0.00  0.00    -0.279 N 
ATOM     22  C   UNL     1      33.540 -22.093 -16.666  0.00  0.00    +0.098 C 
ATOM     23  C   UNL     1      33.939 -23.417 -16.021  0.00  0.00    +0.048 C 
ATOM     24  C   UNL     1      35.694 -21.451 -17.749  0.00  0.00    +0.230 C 
ATOM     25  C   UNL     1      35.338 -23.546 -15.452  0.00  0.00    -0.021 C 
ATOM     26  C   UNL     1      36.221 -21.297 -16.340  0.00  0.00    +0.111 C 
ATOM     27  C   UNL     1      36.380 -22.609 -15.611  0.00  0.00    -0.014 C 
ATOM     28  C   UNL     1      35.599 -24.732 -14.733  0.00  0.00    +0.036 C 
ATOM     29  C   UNL     1      37.634 -22.878 -15.027  0.00  0.00    +0.036 C 
ATOM     30  C   UNL     1      36.849 -24.983 -14.170  0.00  0.00    +0.172 C 
ATOM     31  C   UNL     1      37.868 -24.054 -14.315  0.00  0.00    +0.172 C 
BRANCH  30  32
ATOM     32  O   UNL     1      37.055 -26.141 -13.482  0.00  0.00    -0.468 OA
ATOM     33  C   UNL     1      36.873 -26.098 -12.069  0.00  0.00    +0.253 C 
ENDBRANCH  30  32
BRANCH  31  34
ATOM     34  O   UNL     1      39.096 -24.276 -13.770  0.00  0.00    -0.468 OA
ATOM     35  C   UNL     1      40.008 -25.071 -14.527  0.00  0.00    +0.253 C 
ENDBRANCH  31  34
ENDBRANCH  19  21
ENDBRANCH   1  19
TORSDOF 10
ENDMDL
MODEL 3
REMARK VINA RESULT:     -10.7      1.276      2.301
REMARK  Name = 132999
REMARK  10 active torsions:
REMARK  status: ('A' for Active; 'I' for Inactive)
REMARK    1  A    between atoms: C_1  and  C_2
REMARK    2  A    between atoms: C_1  and  C_19
REMARK    3  A    between atoms: C_2  and  N_3
REMARK    4  A    between atoms: N_3  and  C_6
REMARK    5  A    between atoms: C_6  and  C_7
REMARK    6  A    between atoms: C_13  and  O_15
REMARK    7  A    between atoms: C_14  and  O_17
REMARK    8  A    between atoms: C_19  and  N_21
REMARK    9  A    between atoms: C_30  and  O_32
REMARK   10  A    between atoms: C_31  and  O_34
REMARK                            x       y       z     vdW  Elec       q    Type
REMARK                         _______ _______ _______ _____ _____    ______ ____
ROOT
ATOM      1  C   UNL     1      34.765 -18.864 -22.158  0.00  0.00    -0.001 C 
ENDROOT
BRANCH   1   2
ATOM      2  C   UNL     1      34.592 -17.528 -22.885  0.00  0.00    -0.076 C 
BRANCH   2   3
ATOM      3  N   UNL     1      34.062 -17.706 -24.231  0.00  0.00    +0.386 N 
ATOM      4  C   UNL     1      33.357 -18.984 -24.344  0.00  0.00    -0.101 C 
ATOM      5  H   UNL     1      34.846 -17.710 -24.884  0.00  0.00    -0.080 HD
BRANCH   3   6
ATOM      6  C   UNL     1      33.168 -16.601 -24.584  0.00  0.00    -0.073 C 
BRANCH   6   7
ATOM      7  C   UNL     1      33.914 -15.275 -24.574  0.00  0.00    +0.006 C 
ATOM      8  C   UNL     1      33.404 -14.222 -25.615  0.00  0.00    +0.028 C 
ATOM      9  C   UNL     1      33.416 -14.332 -23.520  0.00  0.00    -0.025 C 
ATOM     10  C   UNL     1      32.968 -13.408 -24.432  0.00  0.00    -0.023 C 
ATOM     11  C   UNL     1      33.290 -14.140 -22.164  0.00  0.00    +0.035 C 
ATOM     12  C   UNL     1      32.365 -12.234 -24.047  0.00  0.00    +0.035 C 
ATOM     13  C   UNL     1      32.682 -12.956 -21.740  0.00  0.00    +0.172 C 
ATOM     14  C   UNL     1      32.222 -12.009 -22.676  0.00  0.00    +0.172 C 
BRANCH  13  15
ATOM     15  O   UNL     1      32.537 -12.724 -20.405  0.00  0.00    -0.468 OA
ATOM     16  C   UNL     1      31.972 -13.775 -19.623  0.00  0.00    +0.253 C 
ENDBRANCH  13  15
BRANCH  14  17
ATOM     17  O   UNL     1      31.631 -10.857 -22.248  0.00  0.00    -0.468 OA
ATOM     18  C   UNL     1      31.947  -9.664 -22.963  0.00  0.00    +0.253 C 
ENDBRANCH  14  17
ENDBRANCH   6   7
ENDBRANCH   3   6
ENDBRANCH   2   3
ENDBRANCH   1   2
BRANCH   1  19
ATOM     19  C   UNL     1      34.155 -18.904 -20.758  0.00  0.00    +0.091 C 
BRANCH  19  21
ATOM     20  O   UNL     1      31.915 -20.175 -19.555  0.00  0.00    -0.275 OA
ATOM     21  N   UNL     1      34.151 -20.245 -20.189  0.00  0.00    -0.279 N 
ATOM     22  C   UNL     1      35.425 -20.958 -20.150  0.00  0.00    +0.098 C 
ATOM     23  C   UNL     1      36.022 -20.961 -18.746  0.00  0.00    +0.048 C 
ATOM     24  C   UNL     1      32.997 -20.763 -19.608  0.00  0.00    +0.230 C 
ATOM     25  C   UNL     1      35.258 -21.665 -17.642  0.00  0.00    -0.021 C 
ATOM     26  C   UNL     1      33.138 -22.150 -19.019  0.00  0.00    +0.111 C 
ATOM     27  C   UNL     1      33.950 -22.182 -17.748  0.00  0.00    -0.014 C 
ATOM     28  C   UNL     1      35.929 -21.770 -16.405  0.00  0.00    +0.036 C 
ATOM     29  C   UNL     1      33.370 -22.804 -16.624  0.00  0.00    +0.036 C 
ATOM     30  C   UNL     1      35.334 -22.382 -15.302  0.00  0.00    +0.172 C 
ATOM     31  C   UNL     1      34.053 -22.901 -15.412  0.00  0.00    +0.172 C 
BRANCH  30  32
ATOM     32  O   UNL     1      36.020 -22.461 -14.128  0.00  0.00    -0.468 OA
ATOM     33  C   UNL     1      36.992 -23.499 -14.013  0.00  0.00    +0.253 C 
ENDBRANCH  30  32
BRANCH  31  34
ATOM     34  O   UNL     1      33.454 -23.507 -14.350  0.00  0.00    -0.468 OA
ATOM     35  C   UNL     1      32.029 -23.462 -14.295  0.00  0.00    +0.253 C 
ENDBRANCH  31  34
ENDBRANCH  19  21
ENDBRANCH   1  19
TORSDOF 10
ENDMDL
MODEL 4
REMARK VINA RESULT:     -10.7      2.596     12.109
REMARK  Name = 132999
REMARK  10 active torsions:
REMARK  status: ('A' for Active; 'I' for Inactive)
REMARK    1  A    between atoms: C_1  and  C_2
REMARK    2  A    between atoms: C_1  and  C_19
REMARK    3  A    between atoms: C_2  and  N_3
REMARK    4  A    between atoms: N_3  and  C_6
REMARK    5  A    between atoms: C_6  and  C_7
REMARK    6  A    between atoms: C_13  and  O_15
REMARK    7  A    between atoms: C_14  and  O_17
REMARK    8  A    between atoms: C_19  and  N_21
REMARK    9  A    between atoms: C_30  and  O_32
REMARK   10  A    between atoms: C_31  and  O_34
REMARK                            x       y       z     vdW  Elec       q    Type
REMARK                         _______ _______ _______ _____ _____    ______ ____
ROOT
ATOM      1  C   UNL     1      33.577 -14.556 -21.126  0.00  0.00    -0.001 C 
ENDROOT
BRANCH   1   2
ATOM      2  C   UNL     1      34.197 -15.220 -22.358  0.00  0.00    -0.076 C 
BRANCH   2   3
ATOM      3  N   UNL     1      34.033 -16.668 -22.337  0.00  0.00    +0.386 N 
ATOM      4  C   UNL     1      34.595 -17.269 -23.548  0.00  0.00    -0.101 C 
ATOM      5  H   UNL     1      33.034 -16.875 -22.307  0.00  0.00    -0.080 HD
BRANCH   3   6
ATOM      6  C   UNL     1      34.664 -17.242 -21.147  0.00  0.00    -0.073 C 
BRANCH   6   7
ATOM      7  C   UNL     1      35.165 -18.652 -21.425  0.00  0.00    +0.006 C 
ATOM      8  C   UNL     1      36.501 -19.032 -20.703  0.00  0.00    +0.028 C 
ATOM      9  C   UNL     1      34.513 -19.686 -20.557  0.00  0.00    -0.025 C 
ATOM     10  C   UNL     1      35.685 -20.020 -19.922  0.00  0.00    -0.023 C 
ATOM     11  C   UNL     1      33.318 -20.295 -20.252  0.00  0.00    +0.035 C 
ATOM     12  C   UNL     1      35.736 -20.984 -18.943  0.00  0.00    +0.035 C 
ATOM     13  C   UNL     1      33.337 -21.279 -19.260  0.00  0.00    +0.172 C 
ATOM     14  C   UNL     1      34.539 -21.621 -18.610  0.00  0.00    +0.172 C 
BRANCH  13  15
ATOM     15  O   UNL     1      32.175 -21.909 -18.926  0.00  0.00    -0.468 OA
ATOM     16  C   UNL     1      31.671 -21.683 -17.611  0.00  0.00    +0.253 C 
ENDBRANCH  13  15
BRANCH  14  17
ATOM     17  O   UNL     1      34.544 -22.584 -17.644  0.00  0.00    -0.468 OA
ATOM     18  C   UNL     1      35.172 -22.254 -16.407  0.00  0.00    +0.253 C 
ENDBRANCH  14  17
ENDBRANCH   6   7
ENDBRANCH   3   6
ENDBRANCH   2   3
ENDBRANCH   1   2
BRANCH   1  19
ATOM     19  C   UNL     1      33.811 -13.050 -21.037  0.00  0.00    +0.091 C 
BRANCH  19  21
ATOM     20  O   UNL     1      33.707 -11.841 -23.607  0.00  0.00    -0.275 OA
ATOM     21  N   UNL     1      32.693 -12.278 -21.561  0.00  0.00    -0.279 N 
ATOM     22  C   UNL     1      31.573 -12.027 -20.658  0.00  0.00    +0.098 C 
ATOM     23  C   UNL     1      31.593 -10.597 -20.125  0.00  0.00    +0.048 C 
ATOM     24  C   UNL     1      32.756 -11.715 -22.833  0.00  0.00    +0.230 C 
ATOM     25  C   UNL     1      31.433  -9.460 -21.115  0.00  0.00    -0.021 C 
ATOM     26  C   UNL     1      31.545 -10.906 -23.241  0.00  0.00    +0.111 C 
ATOM     27  C   UNL     1      31.434  -9.585 -22.519  0.00  0.00    -0.014 C 
ATOM     28  C   UNL     1      31.303  -8.173 -20.550  0.00  0.00    +0.036 C 
ATOM     29  C   UNL     1      31.284  -8.426 -23.307  0.00  0.00    +0.036 C 
ATOM     30  C   UNL     1      31.164  -7.038 -21.348  0.00  0.00    +0.172 C 
ATOM     31  C   UNL     1      31.152  -7.165 -22.728  0.00  0.00    +0.172 C 
BRANCH  30  32
ATOM     32  O   UNL     1      31.040  -5.815 -20.759  0.00  0.00    -0.468 OA
ATOM     33  C   UNL     1      32.024  -5.459 -19.790  0.00  0.00    +0.253 C 
ENDBRANCH  30  32
BRANCH  31  34
ATOM     34  O   UNL     1      31.012  -6.070 -23.527  0.00  0.00    -0.468 OA
ATOM     35  C   UNL     1      31.483  -6.182 -24.869  0.00  0.00    +0.253 C 
ENDBRANCH  31  34
ENDBRANCH  19  21
ENDBRANCH   1  19
TORSDOF 10
ENDMDL
MODEL 5
REMARK VINA RESULT:     -10.6      1.416      2.065
REMARK  Name = 132999
REMARK  10 active torsions:
REMARK  status: ('A' for Active; 'I' for Inactive)
REMARK    1  A    between atoms: C_1  and  C_2
REMARK    2  A    between atoms: C_1  and  C_19
REMARK    3  A    between atoms: C_2  and  N_3
REMARK    4  A    between atoms: N_3  and  C_6
REMARK    5  A    between atoms: C_6  and  C_7
REMARK    6  A    between atoms: C_13  and  O_15
REMARK    7  A    between atoms: C_14  and  O_17
REMARK    8  A    between atoms: C_19  and  N_21
REMARK    9  A    between atoms: C_30  and  O_32
REMARK   10  A    between atoms: C_31  and  O_34
REMARK                            x       y       z     vdW  Elec       q    Type
REMARK                         _______ _______ _______ _____ _____    ______ ____
ROOT
ATOM      1  C   UNL     1      34.560 -18.210 -22.023  0.00  0.00    -0.001 C 
ENDROOT
BRANCH   1   2
ATOM      2  C   UNL     1      35.223 -16.831 -21.981  0.00  0.00    -0.076 C 
BRANCH   2   3
ATOM      3  N   UNL     1      34.882 -16.028 -23.149  0.00  0.00    +0.386 N 
ATOM      4  C   UNL     1      33.757 -16.621 -23.874  0.00  0.00    -0.101 C 
ATOM      5  H   UNL     1      35.692 -16.008 -23.769  0.00  0.00    -0.080 HD
BRANCH   3   6
ATOM      6  C   UNL     1      34.564 -14.654 -22.756  0.00  0.00    -0.073 C 
BRANCH   6   7
ATOM      7  C   UNL     1      33.127 -14.547 -22.269  0.00  0.00    +0.006 C 
ATOM      8  C   UNL     1      32.955 -14.535 -20.713  0.00  0.00    +0.028 C 
ATOM      9  C   UNL     1      32.622 -13.135 -22.240  0.00  0.00    -0.025 C 
ATOM     10  C   UNL     1      32.472 -13.123 -20.875  0.00  0.00    -0.023 C 
ATOM     11  C   UNL     1      32.319 -12.043 -23.018  0.00  0.00    +0.035 C 
ATOM     12  C   UNL     1      32.008 -12.019 -20.201  0.00  0.00    +0.035 C 
ATOM     13  C   UNL     1      31.846 -10.903 -22.363  0.00  0.00    +0.172 C 
ATOM     14  C   UNL     1      31.691 -10.892 -20.962  0.00  0.00    +0.172 C 
BRANCH  13  15
ATOM     15  O   UNL     1      31.532  -9.797 -23.094  0.00  0.00    -0.468 OA
ATOM     16  C   UNL     1      32.521  -8.772 -23.174  0.00  0.00    +0.253 C 
ENDBRANCH  13  15
BRANCH  14  17
ATOM     17  O   UNL     1      31.227  -9.773 -20.335  0.00  0.00    -0.468 OA
ATOM     18  C   UNL     1      31.297  -9.756 -18.910  0.00  0.00    +0.253 C 
ENDBRANCH  14  17
ENDBRANCH   6   7
ENDBRANCH   3   6
ENDBRANCH   2   3
ENDBRANCH   1   2
BRANCH   1  19
ATOM     19  C   UNL     1      33.696 -18.531 -20.805  0.00  0.00    +0.091 C 
BRANCH  19  21
ATOM     20  O   UNL     1      31.712 -20.073 -19.476  0.00  0.00    -0.275 OA
ATOM     21  N   UNL     1      33.859 -19.905 -20.351  0.00  0.00    -0.279 N 
ATOM     22  C   UNL     1      35.180 -20.509 -20.508  0.00  0.00    +0.098 C 
ATOM     23  C   UNL     1      35.932 -20.564 -19.182  0.00  0.00    +0.048 C 
ATOM     24  C   UNL     1      32.822 -20.561 -19.694  0.00  0.00    +0.230 C 
ATOM     25  C   UNL     1      35.355 -21.410 -18.064  0.00  0.00    -0.021 C 
ATOM     26  C   UNL     1      33.134 -21.971 -19.240  0.00  0.00    +0.111 C 
ATOM     27  C   UNL     1      34.087 -22.027 -18.070  0.00  0.00    -0.014 C 
ATOM     28  C   UNL     1      36.169 -21.548 -16.919  0.00  0.00    +0.036 C 
ATOM     29  C   UNL     1      33.688 -22.776 -16.946  0.00  0.00    +0.036 C 
ATOM     30  C   UNL     1      35.752 -22.287 -15.813  0.00  0.00    +0.172 C 
ATOM     31  C   UNL     1      34.510 -22.904 -15.827  0.00  0.00    +0.172 C 
BRANCH  30  32
ATOM     32  O   UNL     1      36.572 -22.394 -14.730  0.00  0.00    -0.468 OA
ATOM     33  C   UNL     1      37.449 -23.517 -14.689  0.00  0.00    +0.253 C 
ENDBRANCH  30  32
BRANCH  31  34
ATOM     34  O   UNL     1      34.084 -23.635 -14.759  0.00  0.00    -0.468 OA
ATOM     35  C   UNL     1      32.855 -23.241 -14.152  0.00  0.00    +0.253 C 
ENDBRANCH  31  34
ENDBRANCH  19  21
ENDBRANCH   1  19
TORSDOF 10
ENDMDL
MODEL 6
REMARK VINA RESULT:     -10.2      5.366     14.364
REMARK  Name = 132999
REMARK  10 active torsions:
REMARK  status: ('A' for Active; 'I' for Inactive)
REMARK    1  A    between atoms: C_1  and  C_2
REMARK    2  A    between atoms: C_1  and  C_19
REMARK    3  A    between atoms: C_2  and  N_3
REMARK    4  A    between atoms: N_3  and  C_6
REMARK    5  A    between atoms: C_6  and  C_7
REMARK    6  A    between atoms: C_13  and  O_15
REMARK    7  A    between atoms: C_14  and  O_17
REMARK    8  A    between atoms: C_19  and  N_21
REMARK    9  A    between atoms: C_30  and  O_32
REMARK   10  A    between atoms: C_31  and  O_34
REMARK                            x       y       z     vdW  Elec       q    Type
REMARK                         _______ _______ _______ _____ _____    ______ ____
ROOT
ATOM      1  C   UNL     1      31.227  -8.960 -22.236  0.00  0.00    -0.001 C 
ENDROOT
BRANCH   1   2
ATOM      2  C   UNL     1      31.291 -10.392 -21.698  0.00  0.00    -0.076 C 
BRANCH   2   3
ATOM      3  N   UNL     1      31.743 -11.336 -22.713  0.00  0.00    +0.386 N 
ATOM      4  C   UNL     1      32.983 -10.869 -23.336  0.00  0.00    -0.101 C 
ATOM      5  H   UNL     1      31.022 -11.399 -23.433  0.00  0.00    -0.080 HD
BRANCH   3   6
ATOM      6  C   UNL     1      31.938 -12.666 -22.132  0.00  0.00    -0.073 C 
BRANCH   6   7
ATOM      7  C   UNL     1      33.412 -13.038 -22.110  0.00  0.00    +0.006 C 
ATOM      8  C   UNL     1      33.935 -13.588 -20.741  0.00  0.00    +0.028 C 
ATOM      9  C   UNL     1      33.677 -14.410 -22.653  0.00  0.00    -0.025 C 
ATOM     10  C   UNL     1      34.135 -14.894 -21.452  0.00  0.00    -0.023 C 
ATOM     11  C   UNL     1      33.614 -15.196 -23.780  0.00  0.00    +0.035 C 
ATOM     12  C   UNL     1      34.559 -16.193 -21.301  0.00  0.00    +0.035 C 
ATOM     13  C   UNL     1      34.037 -16.522 -23.659  0.00  0.00    +0.172 C 
ATOM     14  C   UNL     1      34.507 -17.017 -22.426  0.00  0.00    +0.172 C 
BRANCH  13  15
ATOM     15  O   UNL     1      33.992 -17.337 -24.751  0.00  0.00    -0.468 OA
ATOM     16  C   UNL     1      32.901 -18.252 -24.831  0.00  0.00    +0.253 C 
ENDBRANCH  13  15
BRANCH  14  17
ATOM     17  O   UNL     1      34.918 -18.314 -22.322  0.00  0.00    -0.468 OA
ATOM     18  C   UNL     1      34.177 -19.157 -21.444  0.00  0.00    +0.253 C 
ENDBRANCH  14  17
ENDBRANCH   6   7
ENDBRANCH   3   6
ENDBRANCH   2   3
ENDBRANCH   1   2
BRANCH   1  19
ATOM     19  C   UNL     1      31.268  -7.880 -21.157  0.00  0.00    +0.091 C 
BRANCH  19  21
ATOM     20  O   UNL     1      29.961  -5.551 -22.133  0.00  0.00    -0.275 OA
ATOM     21  N   UNL     1      31.933  -6.666 -21.609  0.00  0.00    -0.279 N 
ATOM     22  C   UNL     1      33.393  -6.680 -21.651  0.00  0.00    +0.098 C 
ATOM     23  C   UNL     1      33.910  -6.835 -23.078  0.00  0.00    +0.048 C 
ATOM     24  C   UNL     1      31.192  -5.587 -22.084  0.00  0.00    +0.230 C 
ATOM     25  C   UNL     1      33.600  -5.738 -24.077  0.00  0.00    -0.021 C 
ATOM     26  C   UNL     1      32.006  -4.403 -22.559  0.00  0.00    +0.111 C 
ATOM     27  C   UNL     1      32.725  -4.653 -23.862  0.00  0.00    -0.014 C 
ATOM     28  C   UNL     1      34.232  -5.858 -25.333  0.00  0.00    +0.036 C 
ATOM     29  C   UNL     1      32.532  -3.717 -24.898  0.00  0.00    +0.036 C 
ATOM     30  C   UNL     1      34.021  -4.926 -26.348  0.00  0.00    +0.172 C 
ATOM     31  C   UNL     1      33.171  -3.852 -26.130  0.00  0.00    +0.172 C 
BRANCH  30  32
ATOM     32  O   UNL     1      34.655  -5.082 -27.544  0.00  0.00    -0.468 OA
ATOM     33  C   UNL     1      35.998  -4.611 -27.634  0.00  0.00    +0.253 C 
ENDBRANCH  30  32
BRANCH  31  34
ATOM     34  O   UNL     1      32.954  -2.927 -27.105  0.00  0.00    -0.468 OA
ATOM     35  C   UNL     1      31.684  -2.277 -27.112  0.00  0.00    +0.253 C 
ENDBRANCH  31  34
ENDBRANCH  19  21
ENDBRANCH   1  19
TORSDOF 10
ENDMDL
MODEL 7
REMARK VINA RESULT:     -10.1      1.253      2.073
REMARK  Name = 132999
REMARK  10 active torsions:
REMARK  status: ('A' for Active; 'I' for Inactive)
REMARK    1  A    between atoms: C_1  and  C_2
REMARK    2  A    between atoms: C_1  and  C_19
REMARK    3  A    between atoms: C_2  and  N_3
REMARK    4  A    between atoms: N_3  and  C_6
REMARK    5  A    between atoms: C_6  and  C_7
REMARK    6  A    between atoms: C_13  and  O_15
REMARK    7  A    between atoms: C_14  and  O_17
REMARK    8  A    between atoms: C_19  and  N_21
REMARK    9  A    between atoms: C_30  and  O_32
REMARK   10  A    between atoms: C_31  and  O_34
REMARK                            x       y       z     vdW  Elec       q    Type
REMARK                         _______ _______ _______ _____ _____    ______ ____
ROOT
ATOM      1  C   UNL     1      33.293 -19.919 -20.867  0.00  0.00    -0.001 C 
ENDROOT
BRANCH   1   2
ATOM      2  C   UNL     1      34.803 -19.670 -20.826  0.00  0.00    -0.076 C 
BRANCH   2   3
ATOM      3  N   UNL     1      35.132 -18.273 -21.079  0.00  0.00    +0.386 N 
ATOM      4  C   UNL     1      36.518 -18.142 -21.533  0.00  0.00    -0.101 C 
ATOM      5  H   UNL     1      35.028 -17.757 -20.205  0.00  0.00    -0.080 HD
BRANCH   3   6
ATOM      6  C   UNL     1      34.219 -17.698 -22.070  0.00  0.00    -0.073 C 
BRANCH   6   7
ATOM      7  C   UNL     1      34.850 -16.497 -22.758  0.00  0.00    +0.006 C 
ATOM      8  C   UNL     1      34.347 -16.230 -24.216  0.00  0.00    +0.028 C 
ATOM      9  C   UNL     1      34.188 -15.201 -22.395  0.00  0.00    -0.025 C 
ATOM     10  C   UNL     1      33.745 -14.967 -23.674  0.00  0.00    -0.023 C 
ATOM     11  C   UNL     1      33.931 -14.330 -21.362  0.00  0.00    +0.035 C 
ATOM     12  C   UNL     1      33.018 -13.847 -24.002  0.00  0.00    +0.035 C 
ATOM     13  C   UNL     1      33.194 -13.182 -21.663  0.00  0.00    +0.172 C 
ATOM     14  C   UNL     1      32.740 -12.942 -22.975  0.00  0.00    +0.172 C 
BRANCH  13  15
ATOM     15  O   UNL     1      32.917 -12.291 -20.670  0.00  0.00    -0.468 OA
ATOM     16  C   UNL     1      31.565 -12.224 -20.218  0.00  0.00    +0.253 C 
ENDBRANCH  13  15
BRANCH  14  17
ATOM     17  O   UNL     1      32.022 -11.817 -23.255  0.00  0.00    -0.468 OA
ATOM     18  C   UNL     1      32.761 -10.622 -23.495  0.00  0.00    +0.253 C 
ENDBRANCH  14  17
ENDBRANCH   6   7
ENDBRANCH   3   6
ENDBRANCH   2   3
ENDBRANCH   1   2
BRANCH   1  19
ATOM     19  C   UNL     1      32.656 -20.158 -19.500  0.00  0.00    +0.091 C 
BRANCH  19  21
ATOM     20  O   UNL     1      31.193 -21.667 -17.587  0.00  0.00    -0.275 OA
ATOM     21  N   UNL     1      33.103 -21.399 -18.885  0.00  0.00    -0.279 N 
ATOM     22  C   UNL     1      34.452 -21.857 -19.207  0.00  0.00    +0.098 C 
ATOM     23  C   UNL     1      35.424 -21.584 -18.062  0.00  0.00    +0.048 C 
ATOM     24  C   UNL     1      32.309 -22.048 -17.943  0.00  0.00    +0.230 C 
ATOM     25  C   UNL     1      35.187 -22.281 -16.737  0.00  0.00    -0.021 C 
ATOM     26  C   UNL     1      32.907 -23.306 -17.352  0.00  0.00    +0.111 C 
ATOM     27  C   UNL     1      34.047 -23.038 -16.399  0.00  0.00    -0.014 C 
ATOM     28  C   UNL     1      36.200 -22.114 -15.769  0.00  0.00    +0.036 C 
ATOM     29  C   UNL     1      33.969 -23.619 -15.117  0.00  0.00    +0.036 C 
ATOM     30  C   UNL     1      36.101 -22.690 -14.503  0.00  0.00    +0.172 C 
ATOM     31  C   UNL     1      34.984 -23.445 -14.177  0.00  0.00    +0.172 C 
BRANCH  30  32
ATOM     32  O   UNL     1      37.104 -22.502 -13.600  0.00  0.00    -0.468 OA
ATOM     33  C   UNL     1      38.029 -23.573 -13.427  0.00  0.00    +0.253 C 
ENDBRANCH  30  32
BRANCH  31  34
ATOM     34  O   UNL     1      34.868 -24.021 -12.948  0.00  0.00    -0.468 OA
ATOM     35  C   UNL     1      33.687 -23.727 -12.203  0.00  0.00    +0.253 C 
ENDBRANCH  31  34
ENDBRANCH  19  21
ENDBRANCH   1  19
TORSDOF 10
ENDMDL
MODEL 8
REMARK VINA RESULT:     -10.0      6.919     14.457
REMARK  Name = 132999
REMARK  10 active torsions:
REMARK  status: ('A' for Active; 'I' for Inactive)
REMARK    1  A    between atoms: C_1  and  C_2
REMARK    2  A    between atoms: C_1  and  C_19
REMARK    3  A    between atoms: C_2  and  N_3
REMARK    4  A    between atoms: N_3  and  C_6
REMARK    5  A    between atoms: C_6  and  C_7
REMARK    6  A    between atoms: C_13  and  O_15
REMARK    7  A    between atoms: C_14  and  O_17
REMARK    8  A    between atoms: C_19  and  N_21
REMARK    9  A    between atoms: C_30  and  O_32
REMARK   10  A    between atoms: C_31  and  O_34
REMARK                            x       y       z     vdW  Elec       q    Type
REMARK                         _______ _______ _______ _____ _____    ______ ____
ROOT
ATOM      1  C   UNL     1      30.588  -9.377 -21.946  0.00  0.00    -0.001 C 
ENDROOT
BRANCH   1   2
ATOM      2  C   UNL     1      30.748 -10.872 -21.659  0.00  0.00    -0.076 C 
BRANCH   2   3
ATOM      3  N   UNL     1      31.832 -11.133 -20.719  0.00  0.00    +0.386 N 
ATOM      4  C   UNL     1      31.552 -10.511 -19.423  0.00  0.00    -0.101 C 
ATOM      5  H   UNL     1      32.686 -10.724 -21.097  0.00  0.00    -0.080 HD
BRANCH   3   6
ATOM      6  C   UNL     1      32.038 -12.574 -20.556  0.00  0.00    -0.073 C 
BRANCH   6   7
ATOM      7  C   UNL     1      33.424 -12.981 -21.031  0.00  0.00    +0.006 C 
ATOM      8  C   UNL     1      33.939 -14.350 -20.473  0.00  0.00    +0.028 C 
ATOM      9  C   UNL     1      33.410 -13.644 -22.377  0.00  0.00    -0.025 C 
ATOM     10  C   UNL     1      33.860 -14.846 -21.888  0.00  0.00    -0.023 C 
ATOM     11  C   UNL     1      33.133 -13.455 -23.710  0.00  0.00    +0.035 C 
ATOM     12  C   UNL     1      34.063 -15.935 -22.701  0.00  0.00    +0.035 C 
ATOM     13  C   UNL     1      33.329 -14.544 -24.564  0.00  0.00    +0.172 C 
ATOM     14  C   UNL     1      33.791 -15.777 -24.062  0.00  0.00    +0.172 C 
BRANCH  13  15
ATOM     15  O   UNL     1      33.068 -14.402 -25.894  0.00  0.00    -0.468 OA
ATOM     16  C   UNL     1      32.675 -13.106 -26.341  0.00  0.00    +0.253 C 
ENDBRANCH  13  15
BRANCH  14  17
ATOM     17  O   UNL     1      33.979 -16.832 -24.906  0.00  0.00    -0.468 OA
ATOM     18  C   UNL     1      33.510 -18.104 -24.463  0.00  0.00    +0.253 C 
ENDBRANCH  14  17
ENDBRANCH   6   7
ENDBRANCH   3   6
ENDBRANCH   2   3
ENDBRANCH   1   2
BRANCH   1  19
ATOM     19  C   UNL     1      31.579  -8.821 -22.967  0.00  0.00    +0.091 C 
BRANCH  19  21
ATOM     20  O   UNL     1      29.777  -6.962 -24.140  0.00  0.00    -0.275 OA
ATOM     21  N   UNL     1      31.698  -7.372 -22.896  0.00  0.00    -0.279 N 
ATOM     22  C   UNL     1      32.891  -6.830 -22.250  0.00  0.00    +0.098 C 
ATOM     23  C   UNL     1      33.896  -6.311 -23.275  0.00  0.00    +0.048 C 
ATOM     24  C   UNL     1      30.764  -6.553 -23.524  0.00  0.00    +0.230 C 
ATOM     25  C   UNL     1      33.487  -5.148 -24.156  0.00  0.00    -0.021 C 
ATOM     26  C   UNL     1      31.025  -5.067 -23.408  0.00  0.00    +0.111 C 
ATOM     27  C   UNL     1      32.192  -4.597 -24.242  0.00  0.00    -0.014 C 
ATOM     28  C   UNL     1      34.506  -4.612 -24.972  0.00  0.00    +0.036 C 
ATOM     29  C   UNL     1      31.967  -3.518 -25.120  0.00  0.00    +0.036 C 
ATOM     30  C   UNL     1      34.261  -3.549 -25.841  0.00  0.00    +0.172 C 
ATOM     31  C   UNL     1      32.990  -3.000 -25.914  0.00  0.00    +0.172 C 
BRANCH  30  32
ATOM     32  O   UNL     1      35.276  -3.063 -26.609  0.00  0.00    -0.468 OA
ATOM     33  C   UNL     1      36.479  -3.826 -26.653  0.00  0.00    +0.253 C 
ENDBRANCH  30  32
BRANCH  31  34
ATOM     34  O   UNL     1      32.728  -1.959 -26.752  0.00  0.00    -0.468 OA
ATOM     35  C   UNL     1      31.782  -2.187 -27.795  0.00  0.00    +0.253 C 
ENDBRANCH  31  34
ENDBRANCH  19  21
ENDBRANCH   1  19
TORSDOF 10
ENDMDL
MODEL 9
REMARK VINA RESULT:      -9.9      2.250     11.354
REMARK  Name = 132999
REMARK  10 active torsions:
REMARK  status: ('A' for Active; 'I' for Inactive)
REMARK    1  A    between atoms: C_1  and  C_2
REMARK    2  A    between atoms: C_1  and  C_19
REMARK    3  A    between atoms: C_2  and  N_3
REMARK    4  A    between atoms: N_3  and  C_6
REMARK    5  A    between atoms: C_6  and  C_7
REMARK    6  A    between atoms: C_13  and  O_15
REMARK    7  A    between atoms: C_14  and  O_17
REMARK    8  A    between atoms: C_19  and  N_21
REMARK    9  A    between atoms: C_30  and  O_32
REMARK   10  A    between atoms: C_31  and  O_34
REMARK                            x       y       z     vdW  Elec       q    Type
REMARK                         _______ _______ _______ _____ _____    ______ ____
ROOT
ATOM      1  C   UNL     1      34.216 -15.636 -22.934  0.00  0.00    -0.001 C 
ENDROOT
BRANCH   1   2
ATOM      2  C   UNL     1      34.716 -16.998 -22.447  0.00  0.00    -0.076 C 
BRANCH   2   3
ATOM      3  N   UNL     1      33.886 -18.091 -22.938  0.00  0.00    +0.386 N 
ATOM      4  C   UNL     1      34.165 -18.357 -24.351  0.00  0.00    -0.101 C 
ATOM      5  H   UNL     1      32.909 -17.814 -22.848  0.00  0.00    -0.080 HD
BRANCH   3   6
ATOM      6  C   UNL     1      34.102 -19.301 -22.142  0.00  0.00    -0.073 C 
BRANCH   6   7
ATOM      7  C   UNL     1      33.556 -19.129 -20.733  0.00  0.00    +0.006 C 
ATOM      8  C   UNL     1      32.185 -19.837 -20.464  0.00  0.00    +0.028 C 
ATOM      9  C   UNL     1      34.142 -20.103 -19.755  0.00  0.00    -0.025 C 
ATOM     10  C   UNL     1      32.940 -20.726 -19.520  0.00  0.00    -0.023 C 
ATOM     11  C   UNL     1      35.303 -20.498 -19.134  0.00  0.00    +0.035 C 
ATOM     12  C   UNL     1      32.823 -21.782 -18.647  0.00  0.00    +0.035 C 
ATOM     13  C   UNL     1      35.218 -21.569 -18.241  0.00  0.00    +0.172 C 
ATOM     14  C   UNL     1      33.985 -22.207 -17.999  0.00  0.00    +0.172 C 
BRANCH  13  15
ATOM     15  O   UNL     1      36.344 -21.993 -17.601  0.00  0.00    -0.468 OA
ATOM     16  C   UNL     1      36.821 -21.187 -16.526  0.00  0.00    +0.253 C 
ENDBRANCH  13  15
BRANCH  14  17
ATOM     17  O   UNL     1      33.915 -23.251 -17.124  0.00  0.00    -0.468 OA
ATOM     18  C   UNL     1      33.019 -23.113 -16.024  0.00  0.00    +0.253 C 
ENDBRANCH  14  17
ENDBRANCH   6   7
ENDBRANCH   3   6
ENDBRANCH   2   3
ENDBRANCH   1   2
BRANCH   1  19
ATOM     19  C   UNL     1      34.151 -14.563 -21.849  0.00  0.00    +0.091 C 
BRANCH  19  21
ATOM     20  O   UNL     1      33.477 -12.796 -23.971  0.00  0.00    -0.275 OA
ATOM     21  N   UNL     1      32.936 -13.763 -21.927  0.00  0.00    -0.279 N 
ATOM     22  C   UNL     1      32.036 -13.802 -20.778  0.00  0.00    +0.098 C 
ATOM     23  C   UNL     1      32.155 -12.538 -19.931  0.00  0.00    +0.048 C 
ATOM     24  C   UNL     1      32.715 -12.916 -23.009  0.00  0.00    +0.230 C 
ATOM     25  C   UNL     1      31.770 -11.214 -20.560  0.00  0.00    -0.021 C 
ATOM     26  C   UNL     1      31.435 -12.112 -22.949  0.00  0.00    +0.111 C 
ATOM     27  C   UNL     1      31.468 -11.007 -21.922  0.00  0.00    -0.014 C 
ATOM     28  C   UNL     1      31.751 -10.105 -19.687  0.00  0.00    +0.036 C 
ATOM     29  C   UNL     1      31.137  -9.708 -22.356  0.00  0.00    +0.036 C 
ATOM     30  C   UNL     1      31.428  -8.826 -20.138  0.00  0.00    +0.172 C 
ATOM     31  C   UNL     1      31.119  -8.627 -21.475  0.00  0.00    +0.172 C 
BRANCH  30  32
ATOM     32  O   UNL     1      31.421  -7.786 -19.259  0.00  0.00    -0.468 OA
ATOM     33  C   UNL     1      32.259  -6.673 -19.563  0.00  0.00    +0.253 C 
ENDBRANCH  30  32
BRANCH  31  34
ATOM     34  O   UNL     1      30.796  -7.388 -21.938  0.00  0.00    -0.468 OA
ATOM     35  C   UNL     1      30.322  -7.299 -23.281  0.00  0.00    +0.253 C 
ENDBRANCH  31  34
ENDBRANCH  19  21
ENDBRANCH   1  19
TORSDOF 10
ENDMDL
