MODEL 1
REMARK VINA RESULT:     -13.1      0.000      0.000
REMARK  Name = 25184541
REMARK  4 active torsions:
REMARK  status: ('A' for Active; 'I' for Inactive)
REMARK    1  A    between atoms: C_4  and  N_19
REMARK    2  A    between atoms: C_5  and  N_11
REMARK    3  A    between atoms: C_20  and  C_23
REMARK    4  A    between atoms: C_23  and  N_25
REMARK                            x       y       z     vdW  Elec       q    Type
REMARK                         _______ _______ _______ _____ _____    ______ ____
ROOT
ATOM      1  F   UNL     1      36.808 -20.474 -18.168  0.00  0.00    -0.200 F 
ATOM      2  F   UNL     1      37.383 -21.849 -15.897  0.00  0.00    -0.200 F 
ATOM      3  F   UNL     1      33.017 -23.722 -15.928  0.00  0.00    -0.203 F 
ATOM      4  C   UNL     1      34.618 -21.392 -18.214  0.00  0.00    +0.089 C 
ATOM      5  C   UNL     1      35.208 -22.803 -15.881  0.00  0.00    +0.110 C 
ATOM      6  C   UNL     1      35.875 -21.268 -17.623  0.00  0.00    +0.182 C 
ATOM      7  C   UNL     1      33.656 -22.222 -17.639  0.00  0.00    +0.048 C 
ATOM      8  C   UNL     1      36.170 -21.974 -16.456  0.00  0.00    +0.184 C 
ATOM      9  C   UNL     1      33.951 -22.927 -16.473  0.00  0.00    +0.157 C 
ENDROOT
BRANCH   5  11
ATOM     10  O   UNL     1      36.419 -25.510 -11.257  0.00  0.00    -0.291 OA
ATOM     11  N   UNL     1      35.506 -23.519 -14.693  0.00  0.00    -0.282 N 
ATOM     12  C   UNL     1      34.987 -22.978 -13.424  0.00  0.00    +0.104 C 
ATOM     13  C   UNL     1      35.875 -23.389 -12.251  0.00  0.00    +0.091 C 
ATOM     14  C   UNL     1      36.096 -24.775 -14.688  0.00  0.00    +0.068 C 
ATOM     15  C   UNL     1      36.226 -24.862 -12.283  0.00  0.00    +0.176 C 
ATOM     16  C   UNL     1      36.429 -25.489 -13.609  0.00  0.00    +0.054 C 
ENDBRANCH   5  11
BRANCH   4  19
ATOM     17  O   UNL     1      33.203 -19.597 -21.048  0.00  0.00    -0.434 OA
ATOM     18  O   UNL     1      31.962 -20.428 -19.341  0.00  0.00    -0.226 OA
ATOM     19  N   UNL     1      34.315 -20.673 -19.405  0.00  0.00    -0.219 N 
ATOM     20  C   UNL     1      34.596 -19.368 -21.296  0.00  0.00    +0.210 C 
ATOM     21  C   UNL     1      35.305 -20.363 -20.402  0.00  0.00    +0.147 C 
ATOM     22  C   UNL     1      33.062 -20.257 -19.848  0.00  0.00    +0.409 C 
BRANCH  20  23
ATOM     23  C   UNL     1      34.924 -17.919 -20.958  0.00  0.00    +0.134 C 
BRANCH  23  25
ATOM     24  O   UNL     1      33.879 -13.752 -21.381  0.00  0.00    -0.349 OA
ATOM     25  N   UNL     1      34.723 -17.088 -22.117  0.00  0.00    -0.312 N 
ATOM     26  N   UNL     1      34.198 -15.030 -20.941  0.00  0.00    -0.062 NA
ATOM     27  C   UNL     1      34.385 -15.744 -22.055  0.00  0.00    +0.171 C 
ATOM     28  C   UNL     1      34.199 -14.976 -23.217  0.00  0.00    +0.081 C 
ATOM     29  C   UNL     1      33.884 -13.732 -22.739  0.00  0.00    +0.215 C 
ATOM     30  H   UNL     1      34.831 -17.498 -23.006  0.00  0.00    +0.148 HD
ENDBRANCH  23  25
ENDBRANCH  20  23
ENDBRANCH   4  19
TORSDOF 4
ENDMDL
MODEL 2
REMARK VINA RESULT:     -13.0      3.274      9.077
REMARK  Name = 25184541
REMARK  4 active torsions:
REMARK  status: ('A' for Active; 'I' for Inactive)
REMARK    1  A    between atoms: C_4  and  N_19
REMARK    2  A    between atoms: C_5  and  N_11
REMARK    3  A    between atoms: C_20  and  C_23
REMARK    4  A    between atoms: C_23  and  N_25
REMARK                            x       y       z     vdW  Elec       q    Type
REMARK                         _______ _______ _______ _____ _____    ______ ____
ROOT
ATOM      1  F   UNL     1      31.913 -21.284 -18.866  0.00  0.00    -0.200 F 
ATOM      2  F   UNL     1      31.901 -19.575 -20.977  0.00  0.00    -0.200 F 
ATOM      3  F   UNL     1      36.640 -19.307 -20.786  0.00  0.00    -0.203 F 
ATOM      4  C   UNL     1      34.282 -21.173 -18.742  0.00  0.00    +0.089 C 
ATOM      5  C   UNL     1      34.270 -19.417 -20.909  0.00  0.00    +0.110 C 
ATOM      6  C   UNL     1      33.074 -20.802 -19.332  0.00  0.00    +0.182 C 
ATOM      7  C   UNL     1      35.485 -20.667 -19.237  0.00  0.00    +0.048 C 
ATOM      8  C   UNL     1      33.068 -19.924 -20.416  0.00  0.00    +0.184 C 
ATOM      9  C   UNL     1      35.478 -19.789 -20.320  0.00  0.00    +0.157 C 
ENDROOT
BRANCH   5  11
ATOM     10  O   UNL     1      34.193 -15.896 -25.126  0.00  0.00    -0.291 OA
ATOM     11  N   UNL     1      34.264 -18.521 -22.011  0.00  0.00    -0.282 N 
ATOM     12  C   UNL     1      34.991 -17.250 -21.856  0.00  0.00    +0.104 C 
ATOM     13  C   UNL     1      34.386 -16.163 -22.743  0.00  0.00    +0.091 C 
ATOM     14  C   UNL     1      33.770 -18.858 -23.263  0.00  0.00    +0.068 C 
ATOM     15  C   UNL     1      34.132 -16.648 -24.155  0.00  0.00    +0.176 C 
ATOM     16  C   UNL     1      33.709 -18.056 -24.331  0.00  0.00    +0.054 C 
ENDBRANCH   5  11
BRANCH   4  19
ATOM     17  O   UNL     1      34.899 -23.178 -15.766  0.00  0.00    -0.434 OA
ATOM     18  O   UNL     1      36.323 -21.584 -16.524  0.00  0.00    -0.226 OA
ATOM     19  N   UNL     1      34.292 -22.070 -17.636  0.00  0.00    -0.219 N 
ATOM     20  C   UNL     1      33.545 -23.566 -16.036  0.00  0.00    +0.210 C 
ATOM     21  C   UNL     1      33.292 -23.087 -17.450  0.00  0.00    +0.147 C 
ATOM     22  C   UNL     1      35.268 -22.190 -16.651  0.00  0.00    +0.409 C 
BRANCH  20  23
ATOM     23  C   UNL     1      32.632 -22.910 -15.008  0.00  0.00    +0.134 C 
BRANCH  23  25
ATOM     24  O   UNL     1      28.775 -22.235 -16.826  0.00  0.00    -0.349 OA
ATOM     25  N   UNL     1      31.388 -23.631 -14.926  0.00  0.00    -0.312 N 
ATOM     26  N   UNL     1      30.095 -22.195 -16.396  0.00  0.00    -0.062 NA
ATOM     27  C   UNL     1      30.232 -23.255 -15.594  0.00  0.00    +0.171 C 
ATOM     28  C   UNL     1      29.042 -23.994 -15.481  0.00  0.00    +0.081 C 
ATOM     29  C   UNL     1      28.157 -23.312 -16.274  0.00  0.00    +0.215 C 
ATOM     30  H   UNL     1      31.356 -24.438 -14.362  0.00  0.00    +0.148 HD
ENDBRANCH  23  25
ENDBRANCH  20  23
ENDBRANCH   4  19
TORSDOF 4
ENDMDL
MODEL 3
REMARK VINA RESULT:     -12.8      0.534      1.766
REMARK  Name = 25184541
REMARK  4 active torsions:
REMARK  status: ('A' for Active; 'I' for Inactive)
REMARK    1  A    between atoms: C_4  and  N_19
REMARK    2  A    between atoms: C_5  and  N_11
REMARK    3  A    between atoms: C_20  and  C_23
REMARK    4  A    between atoms: C_23  and  N_25
REMARK                            x       y       z     vdW  Elec       q    Type
REMARK                         _______ _______ _______ _____ _____    ______ ____
ROOT
ATOM      1  F   UNL     1      32.548 -22.286 -18.256  0.00  0.00    -0.200 F 
ATOM      2  F   UNL     1      33.106 -23.653 -15.976  0.00  0.00    -0.200 F 
ATOM      3  F   UNL     1      37.510 -21.872 -15.987  0.00  0.00    -0.203 F 
ATOM      4  C   UNL     1      34.742 -21.376 -18.292  0.00  0.00    +0.089 C 
ATOM      5  C   UNL     1      35.315 -22.781 -15.951  0.00  0.00    +0.110 C 
ATOM      6  C   UNL     1      33.766 -22.181 -17.704  0.00  0.00    +0.182 C 
ATOM      7  C   UNL     1      36.005 -21.274 -17.708  0.00  0.00    +0.048 C 
ATOM      8  C   UNL     1      34.053 -22.884 -16.534  0.00  0.00    +0.184 C 
ATOM      9  C   UNL     1      36.291 -21.977 -16.539  0.00  0.00    +0.157 C 
ENDROOT
BRANCH   5  11
ATOM     10  O   UNL     1      36.510 -25.494 -11.326  0.00  0.00    -0.291 OA
ATOM     11  N   UNL     1      35.609 -23.499 -14.762  0.00  0.00    -0.282 N 
ATOM     12  C   UNL     1      35.149 -22.919 -13.488  0.00  0.00    +0.104 C 
ATOM     13  C   UNL     1      36.046 -23.360 -12.332  0.00  0.00    +0.091 C 
ATOM     14  C   UNL     1      36.136 -24.782 -14.757  0.00  0.00    +0.068 C 
ATOM     15  C   UNL     1      36.323 -24.848 -12.355  0.00  0.00    +0.176 C 
ATOM     16  C   UNL     1      36.460 -25.500 -13.677  0.00  0.00    +0.054 C 
ENDBRANCH   5  11
BRANCH   4  19
ATOM     17  O   UNL     1      33.361 -19.568 -21.134  0.00  0.00    -0.434 OA
ATOM     18  O   UNL     1      32.105 -20.369 -19.424  0.00  0.00    -0.226 OA
ATOM     19  N   UNL     1      34.452 -20.657 -19.486  0.00  0.00    -0.219 N 
ATOM     20  C   UNL     1      34.759 -19.366 -21.382  0.00  0.00    +0.210 C 
ATOM     21  C   UNL     1      35.449 -20.369 -20.483  0.00  0.00    +0.147 C 
ATOM     22  C   UNL     1      33.208 -20.221 -19.932  0.00  0.00    +0.409 C 
BRANCH  20  23
ATOM     23  C   UNL     1      35.112 -17.921 -21.050  0.00  0.00    +0.134 C 
BRANCH  23  25
ATOM     24  O   UNL     1      33.850 -13.808 -21.400  0.00  0.00    -0.349 OA
ATOM     25  N   UNL     1      34.869 -17.081 -22.194  0.00  0.00    -0.312 N 
ATOM     26  N   UNL     1      34.235 -15.076 -20.982  0.00  0.00    -0.062 NA
ATOM     27  C   UNL     1      34.460 -15.758 -22.109  0.00  0.00    +0.171 C 
ATOM     28  C   UNL     1      34.235 -14.981 -23.257  0.00  0.00    +0.081 C 
ATOM     29  C   UNL     1      33.854 -13.764 -22.758  0.00  0.00    +0.215 C 
ATOM     30  H   UNL     1      34.999 -17.469 -23.090  0.00  0.00    +0.148 HD
ENDBRANCH  23  25
ENDBRANCH  20  23
ENDBRANCH   4  19
TORSDOF 4
ENDMDL
MODEL 4
REMARK VINA RESULT:     -12.7      3.309      8.902
REMARK  Name = 25184541
REMARK  4 active torsions:
REMARK  status: ('A' for Active; 'I' for Inactive)
REMARK    1  A    between atoms: C_4  and  N_19
REMARK    2  A    between atoms: C_5  and  N_11
REMARK    3  A    between atoms: C_20  and  C_23
REMARK    4  A    between atoms: C_23  and  N_25
REMARK                            x       y       z     vdW  Elec       q    Type
REMARK                         _______ _______ _______ _____ _____    ______ ____
ROOT
ATOM      1  F   UNL     1      36.413 -21.195 -18.602  0.00  0.00    -0.200 F 
ATOM      2  F   UNL     1      36.501 -19.471 -20.699  0.00  0.00    -0.200 F 
ATOM      3  F   UNL     1      31.761 -19.571 -20.980  0.00  0.00    -0.203 F 
ATOM      4  C   UNL     1      34.042 -21.268 -18.714  0.00  0.00    +0.089 C 
ATOM      5  C   UNL     1      34.133 -19.499 -20.868  0.00  0.00    +0.110 C 
ATOM      6  C   UNL     1      35.270 -20.801 -19.182  0.00  0.00    +0.182 C 
ATOM      7  C   UNL     1      32.859 -20.850 -19.323  0.00  0.00    +0.048 C 
ATOM      8  C   UNL     1      35.315 -19.916 -20.259  0.00  0.00    +0.184 C 
ATOM      9  C   UNL     1      32.905 -19.966 -20.401  0.00  0.00    +0.157 C 
ENDROOT
BRANCH   5  11
ATOM     10  O   UNL     1      34.257 -15.966 -25.074  0.00  0.00    -0.291 OA
ATOM     11  N   UNL     1      34.178 -18.600 -21.967  0.00  0.00    -0.282 N 
ATOM     12  C   UNL     1      34.942 -17.352 -21.793  0.00  0.00    +0.104 C 
ATOM     13  C   UNL     1      34.389 -16.245 -22.689  0.00  0.00    +0.091 C 
ATOM     14  C   UNL     1      33.702 -18.918 -23.230  0.00  0.00    +0.068 C 
ATOM     15  C   UNL     1      34.152 -16.719 -24.108  0.00  0.00    +0.176 C 
ATOM     16  C   UNL     1      33.689 -18.112 -24.296  0.00  0.00    +0.054 C 
ENDBRANCH   5  11
BRANCH   4  19
ATOM     17  O   UNL     1      34.499 -23.290 -15.721  0.00  0.00    -0.434 OA
ATOM     18  O   UNL     1      35.963 -21.695 -16.394  0.00  0.00    -0.226 OA
ATOM     19  N   UNL     1      33.992 -22.171 -17.614  0.00  0.00    -0.219 N 
ATOM     20  C   UNL     1      33.160 -23.674 -16.063  0.00  0.00    +0.210 C 
ATOM     21  C   UNL     1      32.982 -23.187 -17.486  0.00  0.00    +0.147 C 
ATOM     22  C   UNL     1      34.915 -22.298 -16.579  0.00  0.00    +0.409 C 
BRANCH  20  23
ATOM     23  C   UNL     1      32.196 -23.022 -15.081  0.00  0.00    +0.134 C 
BRANCH  23  25
ATOM     24  O   UNL     1      28.394 -22.125 -16.920  0.00  0.00    -0.349 OA
ATOM     25  N   UNL     1      30.938 -23.725 -15.089  0.00  0.00    -0.312 N 
ATOM     26  N   UNL     1      29.705 -22.146 -16.460  0.00  0.00    -0.062 NA
ATOM     27  C   UNL     1      29.804 -23.272 -15.748  0.00  0.00    +0.171 C 
ATOM     28  C   UNL     1      28.600 -23.996 -15.725  0.00  0.00    +0.081 C 
ATOM     29  C   UNL     1      27.746 -23.233 -16.476  0.00  0.00    +0.215 C 
ATOM     30  H   UNL     1      30.880 -24.576 -14.596  0.00  0.00    +0.148 HD
ENDBRANCH  23  25
ENDBRANCH  20  23
ENDBRANCH   4  19
TORSDOF 4
ENDMDL
MODEL 5
REMARK VINA RESULT:     -12.5      2.644      9.662
REMARK  Name = 25184541
REMARK  4 active torsions:
REMARK  status: ('A' for Active; 'I' for Inactive)
REMARK    1  A    between atoms: C_4  and  N_19
REMARK    2  A    between atoms: C_5  and  N_11
REMARK    3  A    between atoms: C_20  and  C_23
REMARK    4  A    between atoms: C_23  and  N_25
REMARK                            x       y       z     vdW  Elec       q    Type
REMARK                         _______ _______ _______ _____ _____    ______ ____
ROOT
ATOM      1  F   UNL     1      32.386 -21.491 -18.672  0.00  0.00    -0.200 F 
ATOM      2  F   UNL     1      32.151 -19.805 -20.789  0.00  0.00    -0.200 F 
ATOM      3  F   UNL     1      36.854 -19.140 -20.781  0.00  0.00    -0.203 F 
ATOM      4  C   UNL     1      34.741 -21.181 -18.640  0.00  0.00    +0.089 C 
ATOM      5  C   UNL     1      34.499 -19.449 -20.813  0.00  0.00    +0.110 C 
ATOM      6  C   UNL     1      33.484 -20.917 -19.185  0.00  0.00    +0.182 C 
ATOM      7  C   UNL     1      35.876 -20.580 -19.182  0.00  0.00    +0.048 C 
ATOM      8  C   UNL     1      33.364 -20.050 -20.272  0.00  0.00    +0.184 C 
ATOM      9  C   UNL     1      35.755 -19.713 -20.268  0.00  0.00    +0.157 C 
ENDROOT
BRANCH   5  11
ATOM     10  O   UNL     1      33.970 -15.976 -25.036  0.00  0.00    -0.291 OA
ATOM     11  N   UNL     1      34.376 -18.565 -21.917  0.00  0.00    -0.282 N 
ATOM     12  C   UNL     1      35.043 -17.255 -21.816  0.00  0.00    +0.104 C 
ATOM     13  C   UNL     1      34.326 -16.210 -22.670  0.00  0.00    +0.091 C 
ATOM     14  C   UNL     1      33.823 -18.938 -23.133  0.00  0.00    +0.068 C 
ATOM     15  C   UNL     1      34.010 -16.721 -24.060  0.00  0.00    +0.176 C 
ATOM     16  C   UNL     1      33.652 -18.151 -24.199  0.00  0.00    +0.054 C 
ENDBRANCH   5  11
BRANCH   4  19
ATOM     17  O   UNL     1      35.703 -23.224 -15.784  0.00  0.00    -0.434 OA
ATOM     18  O   UNL     1      37.119 -21.809 -16.850  0.00  0.00    -0.226 OA
ATOM     19  N   UNL     1      34.867 -22.066 -17.531  0.00  0.00    -0.219 N 
ATOM     20  C   UNL     1      34.288 -23.455 -15.774  0.00  0.00    +0.210 C 
ATOM     21  C   UNL     1      33.817 -22.960 -17.125  0.00  0.00    +0.147 C 
ATOM     22  C   UNL     1      35.998 -22.290 -16.751  0.00  0.00    +0.409 C 
BRANCH  20  23
ATOM     23  C   UNL     1      33.673 -22.692 -14.608  0.00  0.00    +0.134 C 
BRANCH  23  25
ATOM     24  O   UNL     1      34.551 -24.590 -10.831  0.00  0.00    -0.349 OA
ATOM     25  N   UNL     1      34.677 -22.432 -13.607  0.00  0.00    -0.312 N 
ATOM     26  N   UNL     1      34.043 -24.192 -12.061  0.00  0.00    -0.062 NA
ATOM     27  C   UNL     1      34.807 -23.162 -12.435  0.00  0.00    +0.171 C 
ATOM     28  C   UNL     1      35.804 -22.867 -11.491  0.00  0.00    +0.081 C 
ATOM     29  C   UNL     1      35.601 -23.793 -10.502  0.00  0.00    +0.215 C 
ATOM     30  H   UNL     1      35.307 -21.691 -13.765  0.00  0.00    +0.148 HD
ENDBRANCH  23  25
ENDBRANCH  20  23
ENDBRANCH   4  19
TORSDOF 4
ENDMDL
MODEL 6
REMARK VINA RESULT:     -12.4      5.874      9.040
REMARK  Name = 25184541
REMARK  4 active torsions:
REMARK  status: ('A' for Active; 'I' for Inactive)
REMARK    1  A    between atoms: C_4  and  N_19
REMARK    2  A    between atoms: C_5  and  N_11
REMARK    3  A    between atoms: C_20  and  C_23
REMARK    4  A    between atoms: C_23  and  N_25
REMARK                            x       y       z     vdW  Elec       q    Type
REMARK                         _______ _______ _______ _____ _____    ______ ____
ROOT
ATOM      1  F   UNL     1      34.883 -22.600 -17.016  0.00  0.00    -0.200 F 
ATOM      2  F   UNL     1      32.197 -22.216 -17.144  0.00  0.00    -0.200 F 
ATOM      3  F   UNL     1      31.679 -24.461 -12.991  0.00  0.00    -0.203 F 
ATOM      4  C   UNL     1      34.660 -23.728 -14.938  0.00  0.00    +0.089 C 
ATOM      5  C   UNL     1      31.902 -23.334 -15.070  0.00  0.00    +0.110 C 
ATOM      6  C   UNL     1      34.102 -23.059 -16.027  0.00  0.00    +0.182 C 
ATOM      7  C   UNL     1      33.838 -24.199 -13.914  0.00  0.00    +0.048 C 
ATOM      8  C   UNL     1      32.723 -22.862 -16.093  0.00  0.00    +0.184 C 
ATOM      9  C   UNL     1      32.460 -24.003 -13.981  0.00  0.00    +0.157 C 
ENDROOT
BRANCH   5  11
ATOM     10  O   UNL     1      26.473 -22.572 -15.423  0.00  0.00    -0.291 OA
ATOM     11  N   UNL     1      30.497 -23.136 -15.138  0.00  0.00    -0.282 N 
ATOM     12  C   UNL     1      29.671 -24.277 -15.572  0.00  0.00    +0.104 C 
ATOM     13  C   UNL     1      28.379 -23.796 -16.231  0.00  0.00    +0.091 C 
ATOM     14  C   UNL     1      29.864 -22.002 -14.653  0.00  0.00    +0.068 C 
ATOM     15  C   UNL     1      27.694 -22.709 -15.428  0.00  0.00    +0.176 C 
ATOM     16  C   UNL     1      28.554 -21.741 -14.710  0.00  0.00    +0.054 C 
ENDBRANCH   5  11
BRANCH   4  19
ATOM     17  O   UNL     1      38.294 -23.571 -14.794  0.00  0.00    -0.434 OA
ATOM     18  O   UNL     1      36.964 -21.742 -14.959  0.00  0.00    -0.226 OA
ATOM     19  N   UNL     1      36.068 -23.929 -14.867  0.00  0.00    -0.219 N 
ATOM     20  C   UNL     1      38.106 -24.961 -14.499  0.00  0.00    +0.210 C 
ATOM     21  C   UNL     1      36.669 -25.236 -14.888  0.00  0.00    +0.147 C 
ATOM     22  C   UNL     1      37.065 -22.958 -14.873  0.00  0.00    +0.409 C 
BRANCH  20  23
ATOM     23  C   UNL     1      38.382 -25.192 -13.019  0.00  0.00    +0.134 C 
BRANCH  23  25
ATOM     24  O   UNL     1      35.076 -24.925 -10.256  0.00  0.00    -0.349 OA
ATOM     25  N   UNL     1      37.858 -24.096 -12.245  0.00  0.00    -0.312 N 
ATOM     26  N   UNL     1      36.051 -25.308 -11.168  0.00  0.00    -0.062 NA
ATOM     27  C   UNL     1      36.767 -24.202 -11.395  0.00  0.00    +0.171 C 
ATOM     28  C   UNL     1      36.294 -23.102 -10.662  0.00  0.00    +0.081 C 
ATOM     29  C   UNL     1      35.231 -23.608  -9.962  0.00  0.00    +0.215 C 
ATOM     30  H   UNL     1      38.300 -23.219 -12.325  0.00  0.00    +0.148 HD
ENDBRANCH  23  25
ENDBRANCH  20  23
ENDBRANCH   4  19
TORSDOF 4
ENDMDL
MODEL 7
REMARK VINA RESULT:     -12.0      2.647      9.345
REMARK  Name = 25184541
REMARK  4 active torsions:
REMARK  status: ('A' for Active; 'I' for Inactive)
REMARK    1  A    between atoms: C_4  and  N_19
REMARK    2  A    between atoms: C_5  and  N_11
REMARK    3  A    between atoms: C_20  and  C_23
REMARK    4  A    between atoms: C_23  and  N_25
REMARK                            x       y       z     vdW  Elec       q    Type
REMARK                         _______ _______ _______ _____ _____    ______ ____
ROOT
ATOM      1  F   UNL     1      36.477 -21.491 -18.081  0.00  0.00    -0.200 F 
ATOM      2  F   UNL     1      36.563 -19.888 -20.272  0.00  0.00    -0.200 F 
ATOM      3  F   UNL     1      31.816 -19.847 -20.427  0.00  0.00    -0.203 F 
ATOM      4  C   UNL     1      34.103 -21.491 -18.128  0.00  0.00    +0.089 C 
ATOM      5  C   UNL     1      34.191 -19.847 -20.380  0.00  0.00    +0.110 C 
ATOM      6  C   UNL     1      35.332 -21.091 -18.652  0.00  0.00    +0.182 C 
ATOM      7  C   UNL     1      32.918 -21.068 -18.730  0.00  0.00    +0.048 C 
ATOM      8  C   UNL     1      35.376 -20.269 -19.778  0.00  0.00    +0.184 C 
ATOM      9  C   UNL     1      32.962 -20.246 -19.856  0.00  0.00    +0.157 C 
ENDROOT
BRANCH   5  11
ATOM     10  O   UNL     1      34.310 -16.559 -24.779  0.00  0.00    -0.291 OA
ATOM     11  N   UNL     1      34.236 -19.012 -21.527  0.00  0.00    -0.282 N 
ATOM     12  C   UNL     1      35.002 -17.758 -21.426  0.00  0.00    +0.104 C 
ATOM     13  C   UNL     1      34.449 -16.702 -22.383  0.00  0.00    +0.091 C 
ATOM     14  C   UNL     1      33.755 -19.400 -22.769  0.00  0.00    +0.068 C 
ATOM     15  C   UNL     1      34.206 -17.255 -23.772  0.00  0.00    +0.176 C 
ATOM     16  C   UNL     1      33.740 -18.656 -23.880  0.00  0.00    +0.054 C 
ENDBRANCH   5  11
BRANCH   4  19
ATOM     17  O   UNL     1      33.421 -23.887 -15.473  0.00  0.00    -0.434 OA
ATOM     18  O   UNL     1      32.118 -23.647 -17.314  0.00  0.00    -0.226 OA
ATOM     19  N   UNL     1      34.055 -22.330 -16.978  0.00  0.00    -0.219 N 
ATOM     20  C   UNL     1      34.724 -23.447 -15.066  0.00  0.00    +0.210 C 
ATOM     21  C   UNL     1      34.966 -22.190 -15.874  0.00  0.00    +0.147 C 
ATOM     22  C   UNL     1      33.109 -23.308 -16.682  0.00  0.00    +0.409 C 
BRANCH  20  23
ATOM     23  C   UNL     1      35.730 -24.553 -15.360  0.00  0.00    +0.134 C 
BRANCH  23  25
ATOM     24  O   UNL     1      39.364 -26.633 -14.309  0.00  0.00    -0.349 OA
ATOM     25  N   UNL     1      37.066 -24.085 -15.090  0.00  0.00    -0.312 N 
ATOM     26  N   UNL     1      38.073 -26.249 -14.649  0.00  0.00    -0.062 NA
ATOM     27  C   UNL     1      38.124 -24.919 -14.762  0.00  0.00    +0.171 C 
ATOM     28  C   UNL     1      39.410 -24.412 -14.507  0.00  0.00    +0.081 C 
ATOM     29  C   UNL     1      40.152 -25.529 -14.228  0.00  0.00    +0.215 C 
ATOM     30  H   UNL     1      37.236 -23.116 -15.140  0.00  0.00    +0.148 HD
ENDBRANCH  23  25
ENDBRANCH  20  23
ENDBRANCH   4  19
TORSDOF 4
ENDMDL
MODEL 8
REMARK VINA RESULT:     -11.7      4.078     10.854
REMARK  Name = 25184541
REMARK  4 active torsions:
REMARK  status: ('A' for Active; 'I' for Inactive)
REMARK    1  A    between atoms: C_4  and  N_19
REMARK    2  A    between atoms: C_5  and  N_11
REMARK    3  A    between atoms: C_20  and  C_23
REMARK    4  A    between atoms: C_23  and  N_25
REMARK                            x       y       z     vdW  Elec       q    Type
REMARK                         _______ _______ _______ _____ _____    ______ ____
ROOT
ATOM      1  F   UNL     1      34.062 -17.028 -24.310  0.00  0.00    -0.200 F 
ATOM      2  F   UNL     1      33.176 -14.497 -24.743  0.00  0.00    -0.200 F 
ATOM      3  F   UNL     1      33.733 -13.514 -20.129  0.00  0.00    -0.203 F 
ATOM      4  C   UNL     1      34.353 -16.570 -21.998  0.00  0.00    +0.089 C 
ATOM      5  C   UNL     1      33.441 -13.972 -22.442  0.00  0.00    +0.110 C 
ATOM      6  C   UNL     1      33.983 -16.171 -23.282  0.00  0.00    +0.182 C 
ATOM      7  C   UNL     1      34.268 -15.670 -20.936  0.00  0.00    +0.048 C 
ATOM      8  C   UNL     1      33.527 -14.871 -23.504  0.00  0.00    +0.184 C 
ATOM      9  C   UNL     1      33.812 -14.371 -21.158  0.00  0.00    +0.157 C 
ENDROOT
BRANCH   5  11
ATOM     10  O   UNL     1      31.716  -8.825 -23.286  0.00  0.00    -0.291 OA
ATOM     11  N   UNL     1      32.975 -12.650 -22.667  0.00  0.00    -0.282 N 
ATOM     12  C   UNL     1      33.525 -11.923 -23.824  0.00  0.00    +0.104 C 
ATOM     13  C   UNL     1      33.496 -10.414 -23.585  0.00  0.00    +0.091 C 
ATOM     14  C   UNL     1      31.915 -12.089 -21.970  0.00  0.00    +0.068 C 
ATOM     15  C   UNL     1      32.163  -9.943 -23.041  0.00  0.00    +0.176 C 
ATOM     16  C   UNL     1      31.445 -10.845 -22.113  0.00  0.00    +0.054 C 
ENDBRANCH   5  11
BRANCH   4  19
ATOM     17  O   UNL     1      36.143 -19.665 -21.308  0.00  0.00    -0.434 OA
ATOM     18  O   UNL     1      37.121 -17.619 -21.297  0.00  0.00    -0.226 OA
ATOM     19  N   UNL     1      34.819 -17.896 -21.768  0.00  0.00    -0.219 N 
ATOM     20  C   UNL     1      34.800 -20.167 -21.324  0.00  0.00    +0.210 C 
ATOM     21  C   UNL     1      33.991 -19.057 -21.960  0.00  0.00    +0.147 C 
ATOM     22  C   UNL     1      36.112 -18.295 -21.439  0.00  0.00    +0.409 C 
BRANCH  20  23
ATOM     23  C   UNL     1      34.374 -20.477 -19.895  0.00  0.00    +0.134 C 
BRANCH  23  25
ATOM     24  O   UNL     1      35.204 -22.716 -16.299  0.00  0.00    -0.349 OA
ATOM     25  N   UNL     1      35.531 -20.533 -19.039  0.00  0.00    -0.312 N 
ATOM     26  N   UNL     1      34.663 -22.142 -17.442  0.00  0.00    -0.062 NA
ATOM     27  C   UNL     1      35.616 -21.327 -17.905  0.00  0.00    +0.171 C 
ATOM     28  C   UNL     1      36.768 -21.346 -17.102  0.00  0.00    +0.081 C 
ATOM     29  C   UNL     1      36.459 -22.234 -16.107  0.00  0.00    +0.215 C 
ATOM     30  H   UNL     1      36.308 -19.974 -19.272  0.00  0.00    +0.148 HD
ENDBRANCH  23  25
ENDBRANCH  20  23
ENDBRANCH   4  19
TORSDOF 4
ENDMDL
MODEL 9
REMARK VINA RESULT:     -11.7      2.333      9.404
REMARK  Name = 25184541
REMARK  4 active torsions:
REMARK  status: ('A' for Active; 'I' for Inactive)
REMARK    1  A    between atoms: C_4  and  N_19
REMARK    2  A    between atoms: C_5  and  N_11
REMARK    3  A    between atoms: C_20  and  C_23
REMARK    4  A    between atoms: C_23  and  N_25
REMARK                            x       y       z     vdW  Elec       q    Type
REMARK                         _______ _______ _______ _____ _____    ______ ____
ROOT
ATOM      1  F   UNL     1      36.396 -21.272 -18.387  0.00  0.00    -0.200 F 
ATOM      2  F   UNL     1      36.499 -19.556 -20.490  0.00  0.00    -0.200 F 
ATOM      3  F   UNL     1      31.765 -19.716 -20.852  0.00  0.00    -0.203 F 
ATOM      4  C   UNL     1      34.028 -21.374 -18.540  0.00  0.00    +0.089 C 
ATOM      5  C   UNL     1      34.134 -19.613 -20.700  0.00  0.00    +0.110 C 
ATOM      6  C   UNL     1      35.258 -20.894 -18.988  0.00  0.00    +0.182 C 
ATOM      7  C   UNL     1      32.850 -20.973 -19.171  0.00  0.00    +0.048 C 
ATOM      8  C   UNL     1      35.311 -20.013 -20.069  0.00  0.00    +0.184 C 
ATOM      9  C   UNL     1      32.904 -20.094 -20.251  0.00  0.00    +0.157 C 
ENDROOT
BRANCH   5  11
ATOM     10  O   UNL     1      34.288 -16.098 -24.919  0.00  0.00    -0.291 OA
ATOM     11  N   UNL     1      34.188 -18.719 -21.802  0.00  0.00    -0.282 N 
ATOM     12  C   UNL     1      34.953 -17.472 -21.628  0.00  0.00    +0.104 C 
ATOM     13  C   UNL     1      34.408 -16.367 -22.532  0.00  0.00    +0.091 C 
ATOM     14  C   UNL     1      33.716 -19.041 -23.066  0.00  0.00    +0.068 C 
ATOM     15  C   UNL     1      34.176 -16.846 -23.950  0.00  0.00    +0.176 C 
ATOM     16  C   UNL     1      33.711 -18.239 -24.136  0.00  0.00    +0.054 C 
ENDBRANCH   5  11
BRANCH   4  19
ATOM     17  O   UNL     1      33.637 -24.111 -16.170  0.00  0.00    -0.434 OA
ATOM     18  O   UNL     1      33.102 -24.267 -18.368  0.00  0.00    -0.226 OA
ATOM     19  N   UNL     1      33.970 -22.273 -17.436  0.00  0.00    -0.219 N 
ATOM     20  C   UNL     1      34.362 -23.187 -15.347  0.00  0.00    +0.210 C 
ATOM     21  C   UNL     1      34.268 -21.870 -16.088  0.00  0.00    +0.147 C 
ATOM     22  C   UNL     1      33.539 -23.596 -17.443  0.00  0.00    +0.409 C 
BRANCH  20  23
ATOM     23  C   UNL     1      35.792 -23.687 -15.190  0.00  0.00    +0.134 C 
BRANCH  23  25
ATOM     24  O   UNL     1      34.839 -24.395 -11.039  0.00  0.00    -0.349 OA
ATOM     25  N   UNL     1      36.360 -23.175 -13.968  0.00  0.00    -0.312 N 
ATOM     26  N   UNL     1      34.913 -24.367 -12.426  0.00  0.00    -0.062 NA
ATOM     27  C   UNL     1      35.912 -23.524 -12.703  0.00  0.00    +0.171 C 
ATOM     28  C   UNL     1      36.500 -22.995 -11.542  0.00  0.00    +0.081 C 
ATOM     29  C   UNL     1      35.790 -23.574 -10.523  0.00  0.00    +0.215 C 
ATOM     30  H   UNL     1      37.109 -22.538 -14.037  0.00  0.00    +0.148 HD
ENDBRANCH  23  25
ENDBRANCH  20  23
ENDBRANCH   4  19
TORSDOF 4
ENDMDL
