MODEL 1
REMARK VINA RESULT:     -12.5      0.000      0.000
REMARK  Name = 46937054
REMARK  4 active torsions:
REMARK  status: ('A' for Active; 'I' for Inactive)
REMARK    1  A    between atoms: C_5  and  C_18
REMARK    2  A    between atoms: C_11  and  O_19
REMARK    3  A    between atoms: O_19  and  C_20
REMARK    4  A    between atoms: C_20  and  C_22
REMARK                            x       y       z     vdW  Elec       q    Type
REMARK                         _______ _______ _______ _____ _____    ______ ____
ROOT
ATOM      1 CL   UNL     1      29.762 -22.862 -15.972  0.00  0.00    -0.047 Cl
ATOM      2  O   UNL     1      35.332 -22.361 -17.235  0.00  0.00    -0.263 OA
ATOM      3  N   UNL     1      33.718 -22.937 -15.652  0.00  0.00    -0.240 N 
ATOM      4  N   UNL     1      31.788 -22.445 -17.604  0.00  0.00    -0.351 NA
ATOM      5  C   UNL     1      34.530 -23.205 -14.464  0.00  0.00    +0.161 C 
ATOM      6  C   UNL     1      33.469 -23.433 -13.425  0.00  0.00    +0.057 C 
ATOM      7  C   UNL     1      32.373 -23.019 -15.361  0.00  0.00    +0.091 C 
ATOM      8  C   UNL     1      32.244 -23.339 -13.964  0.00  0.00    -0.005 C 
ATOM      9  C   UNL     1      34.176 -22.538 -16.885  0.00  0.00    +0.320 C 
ATOM     10  C   UNL     1      31.458 -22.781 -16.311  0.00  0.00    +0.206 C 
ATOM     11  C   UNL     1      33.050 -22.326 -17.869  0.00  0.00    +0.335 C 
ENDROOT
BRANCH   5  18
ATOM     12  O   UNL     1      34.811 -25.401 -15.341  0.00  0.00    -0.273 OA
ATOM     13  N   UNL     1      36.511 -24.569 -14.016  0.00  0.00    -0.278 N 
ATOM     14  C   UNL     1      37.131 -23.533 -13.197  0.00  0.00    +0.094 C 
ATOM     15  C   UNL     1      37.360 -25.748 -14.099  0.00  0.00    +0.094 C 
ATOM     16  C   UNL     1      38.306 -24.231 -12.527  0.00  0.00    +0.023 C 
ATOM     17  C   UNL     1      38.702 -25.290 -13.549  0.00  0.00    +0.023 C 
ATOM     18  C   UNL     1      35.287 -24.494 -14.656  0.00  0.00    +0.244 C 
ENDBRANCH   5  18
BRANCH  11  19
ATOM     19  O   UNL     1      33.487 -21.997 -19.093  0.00  0.00    -0.444 OA
BRANCH  19  20
ATOM     20  C   UNL     1      32.947 -20.779 -19.593  0.00  0.00    +0.235 C 
BRANCH  20  22
ATOM     21  F   UNL     1      37.060 -17.815 -22.040  0.00  0.00    -0.204 F 
ATOM     22  C   UNL     1      34.043 -19.989 -20.245  0.00  0.00    +0.021 C 
ATOM     23  C   UNL     1      35.355 -20.104 -19.785  0.00  0.00    +0.002 C 
ATOM     24  C   UNL     1      33.751 -19.140 -21.312  0.00  0.00    +0.002 C 
ATOM     25  C   UNL     1      36.374 -19.369 -20.390  0.00  0.00    +0.029 C 
ATOM     26  C   UNL     1      34.770 -18.405 -21.919  0.00  0.00    +0.029 C 
ATOM     27  C   UNL     1      36.082 -18.520 -21.458  0.00  0.00    +0.140 C 
ENDBRANCH  20  22
ENDBRANCH  19  20
ENDBRANCH  11  19
TORSDOF 4
ENDMDL
MODEL 2
REMARK VINA RESULT:     -11.9      2.638      5.000
REMARK  Name = 46937054
REMARK  4 active torsions:
REMARK  status: ('A' for Active; 'I' for Inactive)
REMARK    1  A    between atoms: C_5  and  C_18
REMARK    2  A    between atoms: C_11  and  O_19
REMARK    3  A    between atoms: O_19  and  C_20
REMARK    4  A    between atoms: C_20  and  C_22
REMARK                            x       y       z     vdW  Elec       q    Type
REMARK                         _______ _______ _______ _____ _____    ______ ____
ROOT
ATOM      1 CL   UNL     1      36.943 -22.633 -14.588  0.00  0.00    -0.047 Cl
ATOM      2  O   UNL     1      32.207 -22.581 -17.818  0.00  0.00    -0.263 OA
ATOM      3  N   UNL     1      33.171 -23.062 -15.749  0.00  0.00    -0.240 N 
ATOM      4  N   UNL     1      35.561 -22.029 -16.749  0.00  0.00    -0.351 NA
ATOM      5  C   UNL     1      32.063 -23.689 -15.027  0.00  0.00    +0.161 C 
ATOM      6  C   UNL     1      32.740 -24.118 -13.757  0.00  0.00    +0.057 C 
ATOM      7  C   UNL     1      34.329 -23.095 -15.002  0.00  0.00    +0.091 C 
ATOM      8  C   UNL     1      34.031 -23.753 -13.757  0.00  0.00    -0.005 C 
ATOM      9  C   UNL     1      33.148 -22.594 -17.042  0.00  0.00    +0.320 C 
ATOM     10  C   UNL     1      35.469 -22.593 -15.496  0.00  0.00    +0.206 C 
ATOM     11  C   UNL     1      34.485 -22.035 -17.468  0.00  0.00    +0.335 C 
ENDROOT
BRANCH   5  18
ATOM     12  O   UNL     1      31.332 -21.688 -13.964  0.00  0.00    -0.273 OA
ATOM     13  N   UNL     1      29.776 -22.843 -15.221  0.00  0.00    -0.278 N 
ATOM     14  C   UNL     1      29.360 -23.947 -16.081  0.00  0.00    +0.094 C 
ATOM     15  C   UNL     1      28.672 -21.926 -14.978  0.00  0.00    +0.094 C 
ATOM     16  C   UNL     1      27.844 -23.829 -16.144  0.00  0.00    +0.023 C 
ATOM     17  C   UNL     1      27.611 -22.331 -15.989  0.00  0.00    +0.023 C 
ATOM     18  C   UNL     1      31.035 -22.642 -14.684  0.00  0.00    +0.244 C 
ENDBRANCH   5  18
BRANCH  11  19
ATOM     19  O   UNL     1      34.459 -21.519 -18.706  0.00  0.00    -0.444 OA
BRANCH  19  20
ATOM     20  C   UNL     1      35.684 -20.918 -19.108  0.00  0.00    +0.235 C 
BRANCH  20  22
ATOM     21  F   UNL     1      34.647 -17.210 -23.215  0.00  0.00    -0.204 F 
ATOM     22  C   UNL     1      35.408 -19.929 -20.203  0.00  0.00    +0.021 C 
ATOM     23  C   UNL     1      34.169 -19.926 -20.844  0.00  0.00    +0.002 C 
ATOM     24  C   UNL     1      36.390 -19.014 -20.580  0.00  0.00    +0.002 C 
ATOM     25  C   UNL     1      33.912 -19.008 -21.862  0.00  0.00    +0.029 C 
ATOM     26  C   UNL     1      36.133 -18.095 -21.598  0.00  0.00    +0.029 C 
ATOM     27  C   UNL     1      34.893 -18.092 -22.239  0.00  0.00    +0.140 C 
ENDBRANCH  20  22
ENDBRANCH  19  20
ENDBRANCH  11  19
TORSDOF 4
ENDMDL
MODEL 3
REMARK VINA RESULT:     -11.4      6.717     11.514
REMARK  Name = 46937054
REMARK  4 active torsions:
REMARK  status: ('A' for Active; 'I' for Inactive)
REMARK    1  A    between atoms: C_5  and  C_18
REMARK    2  A    between atoms: C_11  and  O_19
REMARK    3  A    between atoms: O_19  and  C_20
REMARK    4  A    between atoms: C_20  and  C_22
REMARK                            x       y       z     vdW  Elec       q    Type
REMARK                         _______ _______ _______ _____ _____    ______ ____
ROOT
ATOM      1 CL   UNL     1      33.448 -17.116 -25.411  0.00  0.00    -0.047 Cl
ATOM      2  O   UNL     1      34.452 -14.381 -20.473  0.00  0.00    -0.263 OA
ATOM      3  N   UNL     1      33.628 -14.267 -22.652  0.00  0.00    -0.240 N 
ATOM      4  N   UNL     1      34.148 -16.998 -22.873  0.00  0.00    -0.351 NA
ATOM      5  C   UNL     1      33.317 -12.844 -22.793  0.00  0.00    +0.161 C 
ATOM      6  C   UNL     1      32.925 -12.767 -24.241  0.00  0.00    +0.057 C 
ATOM      7  C   UNL     1      33.425 -14.937 -23.840  0.00  0.00    +0.091 C 
ATOM      8  C   UNL     1      32.978 -13.978 -24.815  0.00  0.00    -0.005 C 
ATOM      9  C   UNL     1      34.164 -14.884 -21.546  0.00  0.00    +0.320 C 
ATOM     10  C   UNL     1      33.679 -16.250 -23.929  0.00  0.00    +0.206 C 
ATOM     11  C   UNL     1      34.379 -16.362 -21.769  0.00  0.00    +0.335 C 
ENDROOT
BRANCH   5  18
ATOM     12  O   UNL     1      31.551 -13.386 -21.290  0.00  0.00    -0.273 OA
ATOM     13  N   UNL     1      31.687 -11.195 -22.012  0.00  0.00    -0.278 N 
ATOM     14  C   UNL     1      32.300 -10.115 -22.778  0.00  0.00    +0.094 C 
ATOM     15  C   UNL     1      30.531 -10.717 -21.268  0.00  0.00    +0.094 C 
ATOM     16  C   UNL     1      31.294  -8.975 -22.699  0.00  0.00    +0.023 C 
ATOM     17  C   UNL     1      30.626  -9.202 -21.349  0.00  0.00    +0.023 C 
ATOM     18  C   UNL     1      32.107 -12.512 -21.958  0.00  0.00    +0.244 C 
ENDBRANCH   5  18
BRANCH  11  19
ATOM     19  O   UNL     1      34.843 -16.988 -20.677  0.00  0.00    -0.444 OA
BRANCH  19  20
ATOM     20  C   UNL     1      35.635 -18.135 -20.959  0.00  0.00    +0.235 C 
BRANCH  20  22
ATOM     21  F   UNL     1      33.195 -22.660 -18.667  0.00  0.00    -0.204 F 
ATOM     22  C   UNL     1      34.985 -19.341 -20.348  0.00  0.00    +0.021 C 
ATOM     23  C   UNL     1      35.754 -20.266 -19.643  0.00  0.00    +0.002 C 
ATOM     24  C   UNL     1      33.611 -19.538 -20.487  0.00  0.00    +0.002 C 
ATOM     25  C   UNL     1      35.150 -21.388 -19.075  0.00  0.00    +0.029 C 
ATOM     26  C   UNL     1      33.006 -20.659 -19.918  0.00  0.00    +0.029 C 
ATOM     27  C   UNL     1      33.776 -21.585 -19.212  0.00  0.00    +0.140 C 
ENDBRANCH  20  22
ENDBRANCH  19  20
ENDBRANCH  11  19
TORSDOF 4
ENDMDL
MODEL 4
REMARK VINA RESULT:     -11.0      1.708      2.639
REMARK  Name = 46937054
REMARK  4 active torsions:
REMARK  status: ('A' for Active; 'I' for Inactive)
REMARK    1  A    between atoms: C_5  and  C_18
REMARK    2  A    between atoms: C_11  and  O_19
REMARK    3  A    between atoms: O_19  and  C_20
REMARK    4  A    between atoms: C_20  and  C_22
REMARK                            x       y       z     vdW  Elec       q    Type
REMARK                         _______ _______ _______ _____ _____    ______ ____
ROOT
ATOM      1 CL   UNL     1      31.162 -23.408 -12.802  0.00  0.00    -0.047 Cl
ATOM      2  O   UNL     1      36.052 -23.398 -15.795  0.00  0.00    -0.263 OA
ATOM      3  N   UNL     1      35.023 -23.579 -13.709  0.00  0.00    -0.240 N 
ATOM      4  N   UNL     1      32.572 -23.409 -15.028  0.00  0.00    -0.351 NA
ATOM      5  C   UNL     1      36.169 -23.636 -12.800  0.00  0.00    +0.161 C 
ATOM      6  C   UNL     1      35.488 -23.608 -11.462  0.00  0.00    +0.057 C 
ATOM      7  C   UNL     1      33.837 -23.546 -13.007  0.00  0.00    +0.091 C 
ATOM      8  C   UNL     1      34.155 -23.574 -11.604  0.00  0.00    -0.005 C 
ATOM      9  C   UNL     1      35.067 -23.454 -15.078  0.00  0.00    +0.320 C 
ATOM     10  C   UNL     1      32.667 -23.466 -13.657  0.00  0.00    +0.206 C 
ATOM     11  C   UNL     1      33.686 -23.397 -15.688  0.00  0.00    +0.335 C 
ENDROOT
BRANCH   5  18
ATOM     12  O   UNL     1      36.337 -25.994 -12.515  0.00  0.00    -0.273 OA
ATOM     13  N   UNL     1      38.086 -24.934 -13.589  0.00  0.00    -0.278 N 
ATOM     14  C   UNL     1      38.757 -23.756 -14.130  0.00  0.00    +0.094 C 
ATOM     15  C   UNL     1      38.881 -26.134 -13.808  0.00  0.00    +0.094 C 
ATOM     16  C   UNL     1      40.164 -24.237 -14.458  0.00  0.00    +0.023 C 
ATOM     17  C   UNL     1      39.951 -25.707 -14.800  0.00  0.00    +0.023 C 
ATOM     18  C   UNL     1      36.859 -24.967 -12.951  0.00  0.00    +0.244 C 
ENDBRANCH   5  18
BRANCH  11  19
ATOM     19  O   UNL     1      33.714 -23.338 -17.027  0.00  0.00    -0.444 OA
BRANCH  19  20
ATOM     20  C   UNL     1      32.757 -22.447 -17.588  0.00  0.00    +0.235 C 
BRANCH  20  22
ATOM     21  F   UNL     1      35.309 -19.161 -21.379  0.00  0.00    -0.204 F 
ATOM     22  C   UNL     1      33.437 -21.571 -18.598  0.00  0.00    +0.021 C 
ATOM     23  C   UNL     1      32.678 -20.758 -19.440  0.00  0.00    +0.002 C 
ATOM     24  C   UNL     1      34.828 -21.571 -18.697  0.00  0.00    +0.002 C 
ATOM     25  C   UNL     1      33.310 -19.944 -20.380  0.00  0.00    +0.029 C 
ATOM     26  C   UNL     1      35.461 -20.756 -19.637  0.00  0.00    +0.029 C 
ATOM     27  C   UNL     1      34.702 -19.942 -20.478  0.00  0.00    +0.140 C 
ENDBRANCH  20  22
ENDBRANCH  19  20
ENDBRANCH  11  19
TORSDOF 4
ENDMDL
MODEL 5
REMARK VINA RESULT:     -11.0     10.972     15.371
REMARK  Name = 46937054
REMARK  4 active torsions:
REMARK  status: ('A' for Active; 'I' for Inactive)
REMARK    1  A    between atoms: C_5  and  C_18
REMARK    2  A    between atoms: C_11  and  O_19
REMARK    3  A    between atoms: O_19  and  C_20
REMARK    4  A    between atoms: C_20  and  C_22
REMARK                            x       y       z     vdW  Elec       q    Type
REMARK                         _______ _______ _______ _____ _____    ______ ____
ROOT
ATOM      1 CL   UNL     1      31.233  -9.673 -18.005  0.00  0.00    -0.047 Cl
ATOM      2  O   UNL     1      31.627  -9.414 -23.718  0.00  0.00    -0.263 OA
ATOM      3  N   UNL     1      31.530  -8.250 -21.698  0.00  0.00    -0.240 N 
ATOM      4  N   UNL     1      31.530 -10.721 -20.404  0.00  0.00    -0.351 NA
ATOM      5  C   UNL     1      31.469  -6.857 -22.144  0.00  0.00    +0.161 C 
ATOM      6  C   UNL     1      31.264  -6.137 -20.842  0.00  0.00    +0.057 C 
ATOM      7  C   UNL     1      31.402  -8.337 -20.328  0.00  0.00    +0.091 C 
ATOM      8  C   UNL     1      31.245  -7.001 -19.816  0.00  0.00    -0.005 C 
ATOM      9  C   UNL     1      31.586  -9.366 -22.500  0.00  0.00    +0.320 C 
ATOM     10  C   UNL     1      31.406  -9.532 -19.722  0.00  0.00    +0.206 C 
ATOM     11  C   UNL     1      31.608 -10.644 -21.694  0.00  0.00    +0.335 C 
ENDROOT
BRANCH   5  18
ATOM     12  O   UNL     1      33.804  -6.421 -21.973  0.00  0.00    -0.273 OA
ATOM     13  N   UNL     1      32.824  -6.126 -24.045  0.00  0.00    -0.278 N 
ATOM     14  C   UNL     1      31.687  -6.146 -24.960  0.00  0.00    +0.094 C 
ATOM     15  C   UNL     1      34.039  -5.709 -24.731  0.00  0.00    +0.094 C 
ATOM     16  C   UNL     1      32.194  -5.443 -26.211  0.00  0.00    +0.023 C 
ATOM     17  C   UNL     1      33.682  -5.770 -26.208  0.00  0.00    +0.023 C 
ATOM     18  C   UNL     1      32.810  -6.453 -22.701  0.00  0.00    +0.244 C 
ENDBRANCH   5  18
BRANCH  11  19
ATOM     19  O   UNL     1      31.725 -11.738 -22.461  0.00  0.00    -0.444 OA
BRANCH  19  20
ATOM     20  C   UNL     1      33.049 -11.984 -22.922  0.00  0.00    +0.235 C 
BRANCH  20  22
ATOM     21  F   UNL     1      34.796 -16.946 -20.921  0.00  0.00    -0.204 F 
ATOM     22  C   UNL     1      33.514 -13.306 -22.388  0.00  0.00    +0.021 C 
ATOM     23  C   UNL     1      33.495 -13.551 -21.016  0.00  0.00    +0.002 C 
ATOM     24  C   UNL     1      33.967 -14.291 -23.266  0.00  0.00    +0.002 C 
ATOM     25  C   UNL     1      33.929 -14.780 -20.519  0.00  0.00    +0.029 C 
ATOM     26  C   UNL     1      34.400 -15.522 -22.770  0.00  0.00    +0.029 C 
ATOM     27  C   UNL     1      34.381 -15.766 -21.396  0.00  0.00    +0.140 C 
ENDBRANCH  20  22
ENDBRANCH  19  20
ENDBRANCH  11  19
TORSDOF 4
ENDMDL
MODEL 6
REMARK VINA RESULT:     -10.8      5.378     10.334
REMARK  Name = 46937054
REMARK  4 active torsions:
REMARK  status: ('A' for Active; 'I' for Inactive)
REMARK    1  A    between atoms: C_5  and  C_18
REMARK    2  A    between atoms: C_11  and  O_19
REMARK    3  A    between atoms: O_19  and  C_20
REMARK    4  A    between atoms: C_20  and  C_22
REMARK                            x       y       z     vdW  Elec       q    Type
REMARK                         _______ _______ _______ _____ _____    ______ ____
ROOT
ATOM      1 CL   UNL     1      33.301 -19.293 -24.994  0.00  0.00    -0.047 Cl
ATOM      2  O   UNL     1      35.302 -16.741 -20.266  0.00  0.00    -0.263 OA
ATOM      3  N   UNL     1      34.403 -16.494 -22.405  0.00  0.00    -0.240 N 
ATOM      4  N   UNL     1      34.165 -19.270 -22.505  0.00  0.00    -0.351 NA
ATOM      5  C   UNL     1      34.473 -15.045 -22.606  0.00  0.00    +0.161 C 
ATOM      6  C   UNL     1      34.025 -14.922 -24.034  0.00  0.00    +0.057 C 
ATOM      7  C   UNL     1      33.956 -17.130 -23.543  0.00  0.00    +0.091 C 
ATOM      8  C   UNL     1      33.719 -16.124 -24.545  0.00  0.00    -0.005 C 
ATOM      9  C   UNL     1      34.824 -17.189 -21.296  0.00  0.00    +0.320 C 
ATOM     10  C   UNL     1      33.846 -18.465 -23.574  0.00  0.00    +0.206 C 
ATOM     11  C   UNL     1      34.624 -18.678 -21.449  0.00  0.00    +0.335 C 
ENDROOT
BRANCH   5  18
ATOM     12  O   UNL     1      33.056 -14.913 -20.696  0.00  0.00    -0.273 OA
ATOM     13  N   UNL     1      33.001 -13.139 -22.176  0.00  0.00    -0.278 N 
ATOM     14  C   UNL     1      33.426 -12.442 -23.386  0.00  0.00    +0.094 C 
ATOM     15  C   UNL     1      32.009 -12.363 -21.448  0.00  0.00    +0.094 C 
ATOM     16  C   UNL     1      32.434 -11.297 -23.532  0.00  0.00    +0.023 C 
ATOM     17  C   UNL     1      32.056 -10.986 -22.090  0.00  0.00    +0.023 C 
ATOM     18  C   UNL     1      33.449 -14.370 -21.730  0.00  0.00    +0.244 C 
ENDBRANCH   5  18
BRANCH  11  19
ATOM     19  O   UNL     1      34.973 -19.363 -20.350  0.00  0.00    -0.444 OA
BRANCH  19  20
ATOM     20  C   UNL     1      34.439 -20.680 -20.294  0.00  0.00    +0.235 C 
BRANCH  20  22
ATOM     21  F   UNL     1      35.393 -22.832 -15.181  0.00  0.00    -0.204 F 
ATOM     22  C   UNL     1      34.693 -21.254 -18.931  0.00  0.00    +0.021 C 
ATOM     23  C   UNL     1      35.946 -21.109 -18.336  0.00  0.00    +0.002 C 
ATOM     24  C   UNL     1      33.677 -21.932 -18.259  0.00  0.00    +0.002 C 
ATOM     25  C   UNL     1      36.184 -21.643 -17.069  0.00  0.00    +0.029 C 
ATOM     26  C   UNL     1      33.913 -22.466 -16.992  0.00  0.00    +0.029 C 
ATOM     27  C   UNL     1      35.167 -22.321 -16.397  0.00  0.00    +0.140 C 
ENDBRANCH  20  22
ENDBRANCH  19  20
ENDBRANCH  11  19
TORSDOF 4
ENDMDL
MODEL 7
REMARK VINA RESULT:     -10.0      8.822     13.467
REMARK  Name = 46937054
REMARK  4 active torsions:
REMARK  status: ('A' for Active; 'I' for Inactive)
REMARK    1  A    between atoms: C_5  and  C_18
REMARK    2  A    between atoms: C_11  and  O_19
REMARK    3  A    between atoms: O_19  and  C_20
REMARK    4  A    between atoms: C_20  and  C_22
REMARK                            x       y       z     vdW  Elec       q    Type
REMARK                         _______ _______ _______ _____ _____    ______ ____
ROOT
ATOM      1 CL   UNL     1      31.891 -13.829 -19.502  0.00  0.00    -0.047 Cl
ATOM      2  O   UNL     1      33.325 -12.040 -24.757  0.00  0.00    -0.263 OA
ATOM      3  N   UNL     1      32.216 -11.580 -22.757  0.00  0.00    -0.240 N 
ATOM      4  N   UNL     1      33.191 -14.006 -21.787  0.00  0.00    -0.351 NA
ATOM      5  C   UNL     1      31.555 -10.308 -23.053  0.00  0.00    +0.161 C 
ATOM      6  C   UNL     1      30.736 -10.102 -21.811  0.00  0.00    +0.057 C 
ATOM      7  C   UNL     1      31.857 -12.045 -21.509  0.00  0.00    +0.091 C 
ATOM      8  C   UNL     1      30.937 -11.098 -20.935  0.00  0.00    -0.005 C 
ATOM      9  C   UNL     1      33.003 -12.314 -23.612  0.00  0.00    +0.320 C 
ATOM     10  C   UNL     1      32.336 -13.212 -21.058  0.00  0.00    +0.206 C 
ATOM     11  C   UNL     1      33.496 -13.592 -22.975  0.00  0.00    +0.335 C 
ENDROOT
BRANCH   5  18
ATOM     12  O   UNL     1      33.787  -9.480 -23.037  0.00  0.00    -0.273 OA
ATOM     13  N   UNL     1      32.090  -7.932 -23.283  0.00  0.00    -0.278 N 
ATOM     14  C   UNL     1      30.686  -7.550 -23.396  0.00  0.00    +0.094 C 
ATOM     15  C   UNL     1      32.956  -6.766 -23.363  0.00  0.00    +0.094 C 
ATOM     16  C   UNL     1      30.694  -6.033 -23.270  0.00  0.00    +0.023 C 
ATOM     17  C   UNL     1      32.048  -5.649 -23.853  0.00  0.00    +0.023 C 
ATOM     18  C   UNL     1      32.588  -9.213 -23.125  0.00  0.00    +0.244 C 
ENDBRANCH   5  18
BRANCH  11  19
ATOM     19  O   UNL     1      34.315 -14.288 -23.777  0.00  0.00    -0.444 OA
BRANCH  19  20
ATOM     20  C   UNL     1      33.737 -15.473 -24.310  0.00  0.00    +0.235 C 
BRANCH  20  22
ATOM     21  F   UNL     1      35.239 -19.851 -21.108  0.00  0.00    -0.204 F 
ATOM     22  C   UNL     1      34.137 -16.640 -23.457  0.00  0.00    +0.021 C 
ATOM     23  C   UNL     1      33.734 -17.929 -23.804  0.00  0.00    +0.002 C 
ATOM     24  C   UNL     1      34.912 -16.436 -22.316  0.00  0.00    +0.002 C 
ATOM     25  C   UNL     1      34.106 -19.014 -23.011  0.00  0.00    +0.029 C 
ATOM     26  C   UNL     1      35.285 -17.521 -21.522  0.00  0.00    +0.029 C 
ATOM     27  C   UNL     1      34.882 -18.811 -21.870  0.00  0.00    +0.140 C 
ENDBRANCH  20  22
ENDBRANCH  19  20
ENDBRANCH  11  19
TORSDOF 4
ENDMDL
MODEL 8
REMARK VINA RESULT:      -9.9     10.450     15.089
REMARK  Name = 46937054
REMARK  4 active torsions:
REMARK  status: ('A' for Active; 'I' for Inactive)
REMARK    1  A    between atoms: C_5  and  C_18
REMARK    2  A    between atoms: C_11  and  O_19
REMARK    3  A    between atoms: O_19  and  C_20
REMARK    4  A    between atoms: C_20  and  C_22
REMARK                            x       y       z     vdW  Elec       q    Type
REMARK                         _______ _______ _______ _____ _____    ______ ____
ROOT
ATOM      1 CL   UNL     1      30.911  -9.832 -18.709  0.00  0.00    -0.047 Cl
ATOM      2  O   UNL     1      32.502 -10.696 -24.148  0.00  0.00    -0.263 OA
ATOM      3  N   UNL     1      31.773  -9.183 -22.529  0.00  0.00    -0.240 N 
ATOM      4  N   UNL     1      31.896 -11.271 -20.684  0.00  0.00    -0.351 NA
ATOM      5  C   UNL     1      31.584  -7.959 -23.309  0.00  0.00    +0.161 C 
ATOM      6  C   UNL     1      30.982  -7.043 -22.282  0.00  0.00    +0.057 C 
ATOM      7  C   UNL     1      31.364  -9.006 -21.224  0.00  0.00    +0.091 C 
ATOM      8  C   UNL     1      30.881  -7.657 -21.094  0.00  0.00    -0.005 C 
ATOM      9  C   UNL     1      32.187 -10.404 -23.006  0.00  0.00    +0.320 C 
ATOM     10  C   UNL     1      31.431 -10.020 -20.350  0.00  0.00    +0.206 C 
ATOM     11  C   UNL     1      32.242 -11.451 -21.919  0.00  0.00    +0.335 C 
ENDROOT
BRANCH   5  18
ATOM     12  O   UNL     1      33.935  -7.685 -23.050  0.00  0.00    -0.273 OA
ATOM     13  N   UNL     1      32.932  -6.585 -24.818  0.00  0.00    -0.278 N 
ATOM     14  C   UNL     1      31.780  -6.220 -25.636  0.00  0.00    +0.094 C 
ATOM     15  C   UNL     1      34.149  -5.968 -25.324  0.00  0.00    +0.094 C 
ATOM     16  C   UNL     1      32.291  -5.101 -26.533  0.00  0.00    +0.023 C 
ATOM     17  C   UNL     1      33.767  -5.443 -26.699  0.00  0.00    +0.023 C 
ATOM     18  C   UNL     1      32.929  -7.406 -23.705  0.00  0.00    +0.244 C 
ENDBRANCH   5  18
BRANCH  11  19
ATOM     19  O   UNL     1      32.703 -12.631 -22.358  0.00  0.00    -0.444 OA
BRANCH  19  20
ATOM     20  C   UNL     1      33.732 -13.189 -21.549  0.00  0.00    +0.235 C 
BRANCH  20  22
ATOM     21  F   UNL     1      34.758 -18.454 -23.256  0.00  0.00    -0.204 F 
ATOM     22  C   UNL     1      34.005 -14.593 -22.004  0.00  0.00    +0.021 C 
ATOM     23  C   UNL     1      34.023 -14.894 -23.366  0.00  0.00    +0.002 C 
ATOM     24  C   UNL     1      34.241 -15.596 -21.065  0.00  0.00    +0.002 C 
ATOM     25  C   UNL     1      34.276 -16.198 -23.789  0.00  0.00    +0.029 C 
ATOM     26  C   UNL     1      34.496 -16.902 -21.488  0.00  0.00    +0.029 C 
ATOM     27  C   UNL     1      34.514 -17.202 -22.850  0.00  0.00    +0.140 C 
ENDBRANCH  20  22
ENDBRANCH  19  20
ENDBRANCH  11  19
TORSDOF 4
ENDMDL
MODEL 9
REMARK VINA RESULT:      -9.7      6.761      9.663
REMARK  Name = 46937054
REMARK  4 active torsions:
REMARK  status: ('A' for Active; 'I' for Inactive)
REMARK    1  A    between atoms: C_5  and  C_18
REMARK    2  A    between atoms: C_11  and  O_19
REMARK    3  A    between atoms: O_19  and  C_20
REMARK    4  A    between atoms: C_20  and  C_22
REMARK                            x       y       z     vdW  Elec       q    Type
REMARK                         _______ _______ _______ _____ _____    ______ ____
ROOT
ATOM      1 CL   UNL     1      33.709 -14.558 -25.672  0.00  0.00    -0.047 Cl
ATOM      2  O   UNL     1      33.864 -15.753 -20.067  0.00  0.00    -0.263 OA
ATOM      3  N   UNL     1      33.956 -16.561 -22.254  0.00  0.00    -0.240 N 
ATOM      4  N   UNL     1      33.809 -13.914 -23.119  0.00  0.00    -0.351 NA
ATOM      5  C   UNL     1      33.992 -18.010 -22.049  0.00  0.00    +0.161 C 
ATOM      6  C   UNL     1      33.907 -18.512 -23.462  0.00  0.00    +0.057 C 
ATOM      7  C   UNL     1      33.884 -16.253 -23.596  0.00  0.00    +0.091 C 
ATOM      8  C   UNL     1      33.863 -17.490 -24.330  0.00  0.00    -0.005 C 
ATOM      9  C   UNL     1      33.883 -15.596 -21.277  0.00  0.00    +0.320 C 
ATOM     10  C   UNL     1      33.815 -14.975 -23.995  0.00  0.00    +0.206 C 
ATOM     11  C   UNL     1      33.834 -14.203 -21.857  0.00  0.00    +0.335 C 
ENDROOT
BRANCH   5  18
ATOM     12  O   UNL     1      36.357 -17.814 -21.849  0.00  0.00    -0.273 OA
ATOM     13  N   UNL     1      35.322 -19.443 -20.578  0.00  0.00    -0.278 N 
ATOM     14  C   UNL     1      34.150 -20.176 -20.109  0.00  0.00    +0.094 C 
ATOM     15  C   UNL     1      36.536 -19.943 -19.952  0.00  0.00    +0.094 C 
ATOM     16  C   UNL     1      34.725 -21.367 -19.354  0.00  0.00    +0.023 C 
ATOM     17  C   UNL     1      36.044 -20.826 -18.816  0.00  0.00    +0.023 C 
ATOM     18  C   UNL     1      35.335 -18.402 -21.489  0.00  0.00    +0.244 C 
ENDBRANCH   5  18
BRANCH  11  19
ATOM     19  O   UNL     1      33.825 -13.249 -20.914  0.00  0.00    -0.444 OA
BRANCH  19  20
ATOM     20  C   UNL     1      32.548 -13.026 -20.327  0.00  0.00    +0.235 C 
BRANCH  20  22
ATOM     21  F   UNL     1      30.689  -7.938 -21.859  0.00  0.00    -0.204 F 
ATOM     22  C   UNL     1      32.052 -11.670 -20.736  0.00  0.00    +0.021 C 
ATOM     23  C   UNL     1      31.599 -10.773 -19.769  0.00  0.00    +0.002 C 
ATOM     24  C   UNL     1      32.044 -11.307 -22.082  0.00  0.00    +0.002 C 
ATOM     25  C   UNL     1      31.138  -9.512 -20.148  0.00  0.00    +0.029 C 
ATOM     26  C   UNL     1      31.584 -10.046 -22.462  0.00  0.00    +0.029 C 
ATOM     27  C   UNL     1      31.131  -9.148 -21.494  0.00  0.00    +0.140 C 
ENDBRANCH  20  22
ENDBRANCH  19  20
ENDBRANCH  11  19
TORSDOF 4
ENDMDL
