MODEL 1
REMARK VINA RESULT:     -11.6      0.000      0.000
REMARK  Name = 24778473
REMARK  2 active torsions:
REMARK  status: ('A' for Active; 'I' for Inactive)
REMARK    1  A    between atoms: C_11  and  C_22
REMARK    2  A    between atoms: C_17  and  N_29
REMARK                            x       y       z     vdW  Elec       q    Type
REMARK                         _______ _______ _______ _____ _____    ______ ____
ROOT
ATOM      1  O   UNL     1      32.356 -21.957 -17.834  0.00  0.00    -0.270 OA
ATOM      2  O   UNL     1      36.511 -22.464 -15.925  0.00  0.00    -0.270 OA
ATOM      3  N   UNL     1      30.896 -24.414 -13.408  0.00  0.00    -0.353 N 
ATOM      4  N   UNL     1      34.591 -22.039 -17.178  0.00  0.00    -0.248 N 
ATOM      5  C   UNL     1      31.910 -23.408 -15.128  0.00  0.00    +0.022 A 
ATOM      6  C   UNL     1      33.062 -22.941 -15.774  0.00  0.00    +0.060 C 
ATOM      7  C   UNL     1      32.124 -24.025 -13.885  0.00  0.00    +0.057 A 
ATOM      8  C   UNL     1      30.498 -23.444 -15.380  0.00  0.00    +0.018 A 
ATOM      9  C   UNL     1      34.323 -23.090 -15.200  0.00  0.00    +0.058 C 
ATOM     10  C   UNL     1      29.899 -24.076 -14.288  0.00  0.00    +0.057 A 
ATOM     11  C   UNL     1      34.521 -23.698 -13.981  0.00  0.00    +0.007 C 
ATOM     12  C   UNL     1      33.401 -24.179 -13.300  0.00  0.00    +0.017 C 
ATOM     13  C   UNL     1      33.238 -22.259 -17.055  0.00  0.00    +0.252 C 
ATOM     14  C   UNL     1      35.310 -22.508 -16.108  0.00  0.00    +0.252 C 
ATOM     15  C   UNL     1      29.657 -23.004 -16.425  0.00  0.00    +0.016 C 
ATOM     16  C   UNL     1      28.517 -24.289 -14.190  0.00  0.00    +0.018 C 
ATOM     17  C   UNL     1      28.274 -23.208 -16.343  0.00  0.00    +0.051 C 
ATOM     18  C   UNL     1      27.713 -23.842 -15.239  0.00  0.00    +0.016 C 
ATOM     19  H   UNL     1      30.752 -24.873 -12.549  0.00  0.00    +0.166 HD
ATOM     20  H   UNL     1      35.000 -21.591 -17.953  0.00  0.00    +0.158 HD
ENDROOT
BRANCH  11  22
ATOM     21 CL   UNL     1      36.202 -26.129 -14.856  0.00  0.00    -0.082 Cl
ATOM     22  C   UNL     1      35.832 -23.850 -13.387  0.00  0.00    +0.011 C 
ATOM     23  C   UNL     1      36.670 -24.915 -13.717  0.00  0.00    +0.058 C 
ATOM     24  C   UNL     1      36.251 -22.894 -12.462  0.00  0.00    +0.001 C 
ATOM     25  C   UNL     1      37.927 -25.025 -13.122  0.00  0.00    +0.011 C 
ATOM     26  C   UNL     1      37.507 -23.004 -11.867  0.00  0.00    +0.000 C 
ATOM     27  C   UNL     1      38.345 -24.068 -12.197  0.00  0.00    +0.001 C 
ENDBRANCH  11  22
BRANCH  17  29
ATOM     28  O   UNL     1      25.915 -21.300 -16.338  0.00  0.00    -0.265 OA
ATOM     29  N   UNL     1      27.449 -22.771 -17.381  0.00  0.00    -0.277 N 
ATOM     30  C   UNL     1      26.377 -21.887 -17.306  0.00  0.00    +0.303 C 
ATOM     31  H   UNL     1      27.651 -23.131 -18.274  0.00  0.00    +0.155 HD
ENDBRANCH  17  29
TORSDOF 2
ENDMDL
MODEL 2
REMARK VINA RESULT:     -11.3      2.342      7.563
REMARK  Name = 24778473
REMARK  2 active torsions:
REMARK  status: ('A' for Active; 'I' for Inactive)
REMARK    1  A    between atoms: C_11  and  C_22
REMARK    2  A    between atoms: C_17  and  N_29
REMARK                            x       y       z     vdW  Elec       q    Type
REMARK                         _______ _______ _______ _____ _____    ______ ____
ROOT
ATOM      1  O   UNL     1      35.607 -22.621 -16.875  0.00  0.00    -0.270 OA
ATOM      2  O   UNL     1      31.099 -22.058 -17.601  0.00  0.00    -0.270 OA
ATOM      3  N   UNL     1      33.835 -24.366 -12.230  0.00  0.00    -0.353 N 
ATOM      4  N   UNL     1      33.427 -22.205 -17.584  0.00  0.00    -0.248 N 
ATOM      5  C   UNL     1      34.175 -23.565 -14.289  0.00  0.00    +0.022 A 
ATOM      6  C   UNL     1      33.699 -23.052 -15.503  0.00  0.00    +0.060 C 
ATOM      7  C   UNL     1      33.189 -23.884 -13.341  0.00  0.00    +0.057 A 
ATOM      8  C   UNL     1      35.445 -23.875 -13.699  0.00  0.00    +0.018 A 
ATOM      9  C   UNL     1      32.334 -22.880 -15.729  0.00  0.00    +0.058 C 
ATOM     10  C   UNL     1      35.195 -24.372 -12.417  0.00  0.00    +0.057 A 
ATOM     11  C   UNL     1      31.377 -23.196 -14.792  0.00  0.00    +0.007 C 
ATOM     12  C   UNL     1      31.805 -23.711 -13.566  0.00  0.00    +0.017 C 
ATOM     13  C   UNL     1      34.404 -22.614 -16.706  0.00  0.00    +0.252 C 
ATOM     14  C   UNL     1      32.159 -22.333 -17.073  0.00  0.00    +0.252 C 
ATOM     15  C   UNL     1      36.791 -23.786 -14.117  0.00  0.00    +0.016 C 
ATOM     16  C   UNL     1      36.212 -24.779 -11.543  0.00  0.00    +0.018 C 
ATOM     17  C   UNL     1      37.819 -24.190 -13.255  0.00  0.00    +0.051 C 
ATOM     18  C   UNL     1      37.531 -24.680 -11.986  0.00  0.00    +0.016 C 
ATOM     19  H   UNL     1      33.384 -24.668 -11.409  0.00  0.00    +0.166 HD
ATOM     20  H   UNL     1      33.616 -21.857 -18.485  0.00  0.00    +0.158 HD
ENDROOT
BRANCH  11  22
ATOM     21 CL   UNL     1      29.776 -25.655 -15.739  0.00  0.00    -0.082 Cl
ATOM     22  C   UNL     1      29.960 -23.018 -15.030  0.00  0.00    +0.011 C 
ATOM     23  C   UNL     1      29.149 -24.068 -15.459  0.00  0.00    +0.058 C 
ATOM     24  C   UNL     1      29.411 -21.754 -14.816  0.00  0.00    +0.001 C 
ATOM     25  C   UNL     1      27.787 -23.855 -15.675  0.00  0.00    +0.011 C 
ATOM     26  C   UNL     1      28.050 -21.540 -15.033  0.00  0.00    +0.000 C 
ATOM     27  C   UNL     1      27.238 -22.590 -15.462  0.00  0.00    +0.001 C 
ENDBRANCH  11  22
BRANCH  17  29
ATOM     28  O   UNL     1      39.663 -26.266 -14.477  0.00  0.00    -0.265 OA
ATOM     29  N   UNL     1      39.147 -24.099 -13.676  0.00  0.00    -0.277 N 
ATOM     30  C   UNL     1      39.937 -25.099 -14.232  0.00  0.00    +0.303 C 
ATOM     31  H   UNL     1      39.575 -23.220 -13.566  0.00  0.00    +0.155 HD
ENDBRANCH  17  29
TORSDOF 2
ENDMDL
MODEL 3
REMARK VINA RESULT:     -10.7      3.094      5.617
REMARK  Name = 24778473
REMARK  2 active torsions:
REMARK  status: ('A' for Active; 'I' for Inactive)
REMARK    1  A    between atoms: C_11  and  C_22
REMARK    2  A    between atoms: C_17  and  N_29
REMARK                            x       y       z     vdW  Elec       q    Type
REMARK                         _______ _______ _______ _____ _____    ______ ____
ROOT
ATOM      1  O   UNL     1      31.613 -22.283 -17.714  0.00  0.00    -0.270 OA
ATOM      2  O   UNL     1      32.807 -24.319 -13.765  0.00  0.00    -0.270 OA
ATOM      3  N   UNL     1      36.746 -21.093 -17.733  0.00  0.00    -0.353 N 
ATOM      4  N   UNL     1      31.852 -23.411 -15.689  0.00  0.00    -0.248 N 
ATOM      5  C   UNL     1      34.656 -21.792 -17.356  0.00  0.00    +0.022 A 
ATOM      6  C   UNL     1      33.707 -22.466 -16.577  0.00  0.00    +0.060 C 
ATOM      7  C   UNL     1      35.965 -21.792 -16.846  0.00  0.00    +0.057 A 
ATOM      8  C   UNL     1      34.683 -21.061 -18.591  0.00  0.00    +0.018 A 
ATOM      9  C   UNL     1      34.063 -23.086 -15.380  0.00  0.00    +0.058 C 
ATOM     10  C   UNL     1      36.001 -20.641 -18.793  0.00  0.00    +0.057 A 
ATOM     11  C   UNL     1      35.348 -23.078 -14.889  0.00  0.00    +0.007 C 
ATOM     12  C   UNL     1      36.329 -22.418 -15.633  0.00  0.00    +0.017 C 
ATOM     13  C   UNL     1      32.274 -22.679 -16.775  0.00  0.00    +0.252 C 
ATOM     14  C   UNL     1      32.864 -23.695 -14.808  0.00  0.00    +0.252 C 
ATOM     15  C   UNL     1      33.725 -20.708 -19.565  0.00  0.00    +0.016 C 
ATOM     16  C   UNL     1      36.402 -19.894 -19.908  0.00  0.00    +0.018 C 
ATOM     17  C   UNL     1      34.110 -19.961 -20.686  0.00  0.00    +0.051 C 
ATOM     18  C   UNL     1      35.432 -19.561 -20.854  0.00  0.00    +0.016 C 
ATOM     19  H   UNL     1      37.711 -20.937 -17.622  0.00  0.00    +0.166 HD
ATOM     20  H   UNL     1      30.921 -23.701 -15.558  0.00  0.00    +0.158 HD
ENDROOT
BRANCH  11  22
ATOM     21 CL   UNL     1      36.397 -25.973 -15.049  0.00  0.00    -0.082 Cl
ATOM     22  C   UNL     1      35.715 -23.724 -13.647  0.00  0.00    +0.011 C 
ATOM     23  C   UNL     1      36.201 -25.031 -13.612  0.00  0.00    +0.058 C 
ATOM     24  C   UNL     1      35.574 -23.000 -12.463  0.00  0.00    +0.001 C 
ATOM     25  C   UNL     1      36.545 -25.615 -12.393  0.00  0.00    +0.011 C 
ATOM     26  C   UNL     1      35.917 -23.585 -11.244  0.00  0.00    +0.000 C 
ATOM     27  C   UNL     1      36.403 -24.892 -11.209  0.00  0.00    +0.001 C 
ENDBRANCH  11  22
BRANCH  17  29
ATOM     28  O   UNL     1      34.384 -18.469 -23.313  0.00  0.00    -0.265 OA
ATOM     29  N   UNL     1      33.157 -19.615 -21.645  0.00  0.00    -0.277 N 
ATOM     30  C   UNL     1      33.355 -18.925 -22.836  0.00  0.00    +0.303 C 
ATOM     31  H   UNL     1      32.233 -19.895 -21.456  0.00  0.00    +0.155 HD
ENDBRANCH  17  29
TORSDOF 2
ENDMDL
MODEL 4
REMARK VINA RESULT:     -10.0     14.165     16.369
REMARK  Name = 24778473
REMARK  2 active torsions:
REMARK  status: ('A' for Active; 'I' for Inactive)
REMARK    1  A    between atoms: C_11  and  C_22
REMARK    2  A    between atoms: C_17  and  N_29
REMARK                            x       y       z     vdW  Elec       q    Type
REMARK                         _______ _______ _______ _____ _____    ______ ____
ROOT
ATOM      1  O   UNL     1      30.621  -9.155 -20.161  0.00  0.00    -0.270 OA
ATOM      2  O   UNL     1      31.522 -13.563 -21.123  0.00  0.00    -0.270 OA
ATOM      3  N   UNL     1      34.053  -8.419 -24.090  0.00  0.00    -0.353 N 
ATOM      4  N   UNL     1      30.835 -11.466 -20.367  0.00  0.00    -0.248 N 
ATOM      5  C   UNL     1      32.666  -9.146 -22.494  0.00  0.00    +0.022 A 
ATOM      6  C   UNL     1      32.051 -10.180 -21.777  0.00  0.00    +0.060 C 
ATOM      7  C   UNL     1      33.553  -9.556 -23.503  0.00  0.00    +0.057 A 
ATOM      8  C   UNL     1      32.655  -7.711 -22.499  0.00  0.00    +0.018 A 
ATOM      9  C   UNL     1      32.319 -11.517 -22.065  0.00  0.00    +0.058 C 
ATOM     10  C   UNL     1      33.529  -7.293 -23.506  0.00  0.00    +0.057 A 
ATOM     11  C   UNL     1      33.191 -11.907 -23.056  0.00  0.00    +0.007 C 
ATOM     12  C   UNL     1      33.828 -10.910 -23.798  0.00  0.00    +0.017 C 
ATOM     13  C   UNL     1      31.089 -10.150 -20.677  0.00  0.00    +0.252 C 
ATOM     14  C   UNL     1      31.533 -12.346 -21.154  0.00  0.00    +0.252 C 
ATOM     15  C   UNL     1      31.991  -6.713 -21.752  0.00  0.00    +0.016 C 
ATOM     16  C   UNL     1      33.771  -5.945 -23.798  0.00  0.00    +0.018 C 
ATOM     17  C   UNL     1      32.221  -5.360 -22.032  0.00  0.00    +0.051 C 
ATOM     18  C   UNL     1      33.100  -4.983 -23.042  0.00  0.00    +0.016 C 
ATOM     19  H   UNL     1      34.701  -8.413 -24.832  0.00  0.00    +0.166 HD
ATOM     20  H   UNL     1      30.215 -11.747 -19.656  0.00  0.00    +0.158 HD
ENDROOT
BRANCH  11  22
ATOM     21 CL   UNL     1      32.361 -12.956 -25.833  0.00  0.00    -0.082 Cl
ATOM     22  C   UNL     1      33.467 -13.297 -23.353  0.00  0.00    +0.011 C 
ATOM     23  C   UNL     1      33.131 -13.867 -24.581  0.00  0.00    +0.058 C 
ATOM     24  C   UNL     1      34.088 -14.069 -22.372  0.00  0.00    +0.001 C 
ATOM     25  C   UNL     1      33.416 -15.210 -24.828  0.00  0.00    +0.011 C 
ATOM     26  C   UNL     1      34.372 -15.412 -22.618  0.00  0.00    +0.000 C 
ATOM     27  C   UNL     1      34.036 -15.982 -23.846  0.00  0.00    +0.001 C 
ENDBRANCH  11  22
BRANCH  17  29
ATOM     28  O   UNL     1      29.347  -4.396 -22.121  0.00  0.00    -0.265 OA
ATOM     29  N   UNL     1      31.562  -4.380 -21.288  0.00  0.00    -0.277 N 
ATOM     30  C   UNL     1      30.231  -3.987 -21.383  0.00  0.00    +0.303 C 
ATOM     31  H   UNL     1      32.105  -3.911 -20.615  0.00  0.00    +0.155 HD
ENDBRANCH  17  29
TORSDOF 2
ENDMDL
MODEL 5
REMARK VINA RESULT:      -9.7      3.469      6.942
REMARK  Name = 24778473
REMARK  2 active torsions:
REMARK  status: ('A' for Active; 'I' for Inactive)
REMARK    1  A    between atoms: C_11  and  C_22
REMARK    2  A    between atoms: C_17  and  N_29
REMARK                            x       y       z     vdW  Elec       q    Type
REMARK                         _______ _______ _______ _____ _____    ______ ____
ROOT
ATOM      1  O   UNL     1      36.342 -22.148 -16.865  0.00  0.00    -0.270 OA
ATOM      2  O   UNL     1      33.603 -24.269 -13.838  0.00  0.00    -0.270 OA
ATOM      3  N   UNL     1      31.693 -20.978 -19.052  0.00  0.00    -0.353 N 
ATOM      4  N   UNL     1      35.277 -23.320 -15.157  0.00  0.00    -0.248 N 
ATOM      5  C   UNL     1      33.431 -21.678 -17.833  0.00  0.00    +0.022 A 
ATOM      6  C   UNL     1      33.966 -22.364 -16.734  0.00  0.00    +0.060 C 
ATOM      7  C   UNL     1      32.030 -21.691 -17.928  0.00  0.00    +0.057 A 
ATOM      8  C   UNL     1      33.924 -20.926 -18.951  0.00  0.00    +0.018 A 
ATOM      9  C   UNL     1      33.141 -23.007 -15.813  0.00  0.00    +0.058 C 
ATOM     10  C   UNL     1      32.814 -20.506 -19.688  0.00  0.00    +0.057 A 
ATOM     11  C   UNL     1      31.769 -23.014 -15.917  0.00  0.00    +0.007 C 
ATOM     12  C   UNL     1      31.191 -22.342 -16.997  0.00  0.00    +0.017 C 
ATOM     13  C   UNL     1      35.349 -22.568 -16.306  0.00  0.00    +0.252 C 
ATOM     14  C   UNL     1      33.989 -23.625 -14.795  0.00  0.00    +0.252 C 
ATOM     15  C   UNL     1      35.203 -20.554 -19.421  0.00  0.00    +0.016 C 
ATOM     16  C   UNL     1      32.918 -19.741 -20.858  0.00  0.00    +0.018 C 
ATOM     17  C   UNL     1      35.323 -19.789 -20.588  0.00  0.00    +0.051 C 
ATOM     18  C   UNL     1      34.195 -19.389 -21.296  0.00  0.00    +0.016 C 
ATOM     19  H   UNL     1      30.771 -20.827 -19.361  0.00  0.00    +0.166 HD
ATOM     20  H   UNL     1      36.067 -23.609 -14.646  0.00  0.00    +0.158 HD
ENDROOT
BRANCH  11  22
ATOM     21 CL   UNL     1      31.535 -21.762 -13.110  0.00  0.00    -0.082 Cl
ATOM     22  C   UNL     1      30.915 -23.682 -14.958  0.00  0.00    +0.011 C 
ATOM     23  C   UNL     1      30.741 -23.195 -13.663  0.00  0.00    +0.058 C 
ATOM     24  C   UNL     1      30.254 -24.842 -15.362  0.00  0.00    +0.001 C 
ATOM     25  C   UNL     1      29.908 -23.868 -12.770  0.00  0.00    +0.011 C 
ATOM     26  C   UNL     1      29.421 -25.516 -14.469  0.00  0.00    +0.000 C 
ATOM     27  C   UNL     1      29.248 -25.029 -13.174  0.00  0.00    +0.001 C 
ENDBRANCH  11  22
BRANCH  17  29
ATOM     28  O   UNL     1      36.250 -17.362 -22.154  0.00  0.00    -0.265 OA
ATOM     29  N   UNL     1      36.591 -19.426 -21.047  0.00  0.00    -0.277 N 
ATOM     30  C   UNL     1      36.946 -18.289 -21.764  0.00  0.00    +0.303 C 
ATOM     31  H   UNL     1      37.322 -20.050 -20.836  0.00  0.00    +0.155 HD
ENDBRANCH  17  29
TORSDOF 2
ENDMDL
MODEL 6
REMARK VINA RESULT:      -9.5      4.401      6.861
REMARK  Name = 24778473
REMARK  2 active torsions:
REMARK  status: ('A' for Active; 'I' for Inactive)
REMARK    1  A    between atoms: C_11  and  C_22
REMARK    2  A    between atoms: C_17  and  N_29
REMARK                            x       y       z     vdW  Elec       q    Type
REMARK                         _______ _______ _______ _____ _____    ______ ____
ROOT
ATOM      1  O   UNL     1      32.273 -21.914 -19.932  0.00  0.00    -0.270 OA
ATOM      2  O   UNL     1      33.674 -23.889 -16.021  0.00  0.00    -0.270 OA
ATOM      3  N   UNL     1      36.847 -19.364 -19.355  0.00  0.00    -0.353 N 
ATOM      4  N   UNL     1      32.658 -23.110 -17.970  0.00  0.00    -0.248 N 
ATOM      5  C   UNL     1      35.016 -20.641 -19.237  0.00  0.00    +0.022 A 
ATOM      6  C   UNL     1      34.236 -21.617 -18.603  0.00  0.00    +0.060 C 
ATOM      7  C   UNL     1      36.227 -20.327 -18.598  0.00  0.00    +0.057 A 
ATOM      8  C   UNL     1      34.934 -19.823 -20.413  0.00  0.00    +0.018 A 
ATOM      9  C   UNL     1      34.656 -22.220 -17.418  0.00  0.00    +0.058 C 
ATOM     10  C   UNL     1      36.092 -19.041 -20.455  0.00  0.00    +0.057 A 
ATOM     11  C   UNL     1      35.844 -21.903 -16.800  0.00  0.00    +0.007 C 
ATOM     12  C   UNL     1      36.656 -20.935 -17.397  0.00  0.00    +0.017 C 
ATOM     13  C   UNL     1      32.941 -22.196 -18.958  0.00  0.00    +0.252 C 
ATOM     14  C   UNL     1      33.636 -23.183 -17.010  0.00  0.00    +0.252 C 
ATOM     15  C   UNL     1      33.996 -19.660 -21.456  0.00  0.00    +0.016 C 
ATOM     16  C   UNL     1      36.353 -18.115 -21.473  0.00  0.00    +0.018 C 
ATOM     17  C   UNL     1      34.243 -18.739 -22.482  0.00  0.00    +0.051 C 
ATOM     18  C   UNL     1      35.407 -17.978 -22.489  0.00  0.00    +0.016 C 
ATOM     19  H   UNL     1      37.718 -18.959 -19.138  0.00  0.00    +0.166 HD
ATOM     20  H   UNL     1      31.839 -23.655 -17.953  0.00  0.00    +0.158 HD
ENDROOT
BRANCH  11  22
ATOM     21 CL   UNL     1      33.986 -21.668 -14.352  0.00  0.00    -0.082 Cl
ATOM     22  C   UNL     1      36.278 -22.532 -15.571  0.00  0.00    +0.011 C 
ATOM     23  C   UNL     1      35.509 -22.483 -14.409  0.00  0.00    +0.058 C 
ATOM     24  C   UNL     1      37.502 -23.202 -15.571  0.00  0.00    +0.001 C 
ATOM     25  C   UNL     1      35.964 -23.104 -13.245  0.00  0.00    +0.011 C 
ATOM     26  C   UNL     1      37.957 -23.822 -14.407  0.00  0.00    +0.000 C 
ATOM     27  C   UNL     1      37.188 -23.773 -13.245  0.00  0.00    +0.001 C 
ENDBRANCH  11  22
BRANCH  17  29
ATOM     28  O   UNL     1      34.025 -16.649 -24.670  0.00  0.00    -0.265 OA
ATOM     29  N   UNL     1      33.310 -18.584 -23.508  0.00  0.00    -0.277 N 
ATOM     30  C   UNL     1      33.271 -17.594 -24.485  0.00  0.00    +0.303 C 
ATOM     31  H   UNL     1      32.593 -19.257 -23.546  0.00  0.00    +0.155 HD
ENDBRANCH  17  29
TORSDOF 2
ENDMDL
MODEL 7
REMARK VINA RESULT:      -9.3      4.685      8.547
REMARK  Name = 24778473
REMARK  2 active torsions:
REMARK  status: ('A' for Active; 'I' for Inactive)
REMARK    1  A    between atoms: C_11  and  C_22
REMARK    2  A    between atoms: C_17  and  N_29
REMARK                            x       y       z     vdW  Elec       q    Type
REMARK                         _______ _______ _______ _____ _____    ______ ____
ROOT
ATOM      1  O   UNL     1      31.960 -22.351 -17.444  0.00  0.00    -0.270 OA
ATOM      2  O   UNL     1      31.654 -19.874 -21.309  0.00  0.00    -0.270 OA
ATOM      3  N   UNL     1      37.028 -20.985 -17.909  0.00  0.00    -0.353 N 
ATOM      4  N   UNL     1      31.435 -21.183 -19.391  0.00  0.00    -0.248 N 
ATOM      5  C   UNL     1      34.826 -21.341 -18.071  0.00  0.00    +0.022 A 
ATOM      6  C   UNL     1      33.597 -21.170 -18.721  0.00  0.00    +0.060 C 
ATOM      7  C   UNL     1      35.924 -20.710 -18.679  0.00  0.00    +0.057 A 
ATOM      8  C   UNL     1      35.318 -22.010 -16.901  0.00  0.00    +0.018 A 
ATOM      9  C   UNL     1      33.498 -20.419 -19.892  0.00  0.00    +0.058 C 
ATOM     10  C   UNL     1      36.692 -21.767 -16.832  0.00  0.00    +0.057 A 
ATOM     11  C   UNL     1      34.581 -19.806 -20.480  0.00  0.00    +0.007 C 
ATOM     12  C   UNL     1      35.828 -19.949 -19.865  0.00  0.00    +0.017 C 
ATOM     13  C   UNL     1      32.259 -21.663 -18.399  0.00  0.00    +0.252 C 
ATOM     14  C   UNL     1      32.102 -20.429 -20.324  0.00  0.00    +0.252 C 
ATOM     15  C   UNL     1      34.741 -22.803 -15.885  0.00  0.00    +0.016 C 
ATOM     16  C   UNL     1      37.507 -22.271 -15.810  0.00  0.00    +0.018 C 
ATOM     17  C   UNL     1      35.542 -23.313 -14.856  0.00  0.00    +0.051 C 
ATOM     18  C   UNL     1      36.907 -23.050 -14.821  0.00  0.00    +0.016 C 
ATOM     19  H   UNL     1      37.937 -20.665 -18.105  0.00  0.00    +0.166 HD
ATOM     20  H   UNL     1      30.468 -21.361 -19.428  0.00  0.00    +0.158 HD
ENDROOT
BRANCH  11  22
ATOM     21 CL   UNL     1      34.688 -16.737 -20.211  0.00  0.00    -0.082 Cl
ATOM     22  C   UNL     1      34.475 -19.026 -21.694  0.00  0.00    +0.011 C 
ATOM     23  C   UNL     1      34.514 -17.632 -21.680  0.00  0.00    +0.058 C 
ATOM     24  C   UNL     1      34.334 -19.708 -22.903  0.00  0.00    +0.001 C 
ATOM     25  C   UNL     1      34.410 -16.918 -22.874  0.00  0.00    +0.011 C 
ATOM     26  C   UNL     1      34.229 -18.994 -24.097  0.00  0.00    +0.000 C 
ATOM     27  C   UNL     1      34.267 -17.600 -24.082  0.00  0.00    +0.001 C 
ENDBRANCH  11  22
BRANCH  17  29
ATOM     28  O   UNL     1      35.371 -22.896 -11.856  0.00  0.00    -0.265 OA
ATOM     29  N   UNL     1      34.964 -24.096 -13.855  0.00  0.00    -0.277 N 
ATOM     30  C   UNL     1      34.922 -23.842 -12.489  0.00  0.00    +0.303 C 
ATOM     31  H   UNL     1      34.533 -24.929 -14.153  0.00  0.00    +0.155 HD
ENDBRANCH  17  29
TORSDOF 2
ENDMDL
MODEL 8
REMARK VINA RESULT:      -9.3      5.146      8.299
REMARK  Name = 24778473
REMARK  2 active torsions:
REMARK  status: ('A' for Active; 'I' for Inactive)
REMARK    1  A    between atoms: C_11  and  C_22
REMARK    2  A    between atoms: C_17  and  N_29
REMARK                            x       y       z     vdW  Elec       q    Type
REMARK                         _______ _______ _______ _____ _____    ______ ____
ROOT
ATOM      1  O   UNL     1      36.690 -21.251 -17.780  0.00  0.00    -0.270 OA
ATOM      2  O   UNL     1      36.670 -18.619 -21.553  0.00  0.00    -0.270 OA
ATOM      3  N   UNL     1      31.515 -21.324 -18.765  0.00  0.00    -0.353 N 
ATOM      4  N   UNL     1      37.055 -19.897 -19.640  0.00  0.00    -0.248 N 
ATOM      5  C   UNL     1      33.732 -21.047 -18.694  0.00  0.00    +0.022 A 
ATOM      6  C   UNL     1      34.922 -20.514 -19.207  0.00  0.00    +0.060 C 
ATOM      7  C   UNL     1      32.567 -20.721 -19.408  0.00  0.00    +0.057 A 
ATOM      8  C   UNL     1      33.334 -21.873 -17.590  0.00  0.00    +0.018 A 
ATOM      9  C   UNL     1      34.922 -19.717 -20.351  0.00  0.00    +0.058 C 
ATOM     10  C   UNL     1      31.947 -22.025 -17.667  0.00  0.00    +0.057 A 
ATOM     11  C   UNL     1      33.774 -19.403 -21.042  0.00  0.00    +0.007 C 
ATOM     12  C   UNL     1      32.563 -19.913 -20.567  0.00  0.00    +0.017 C 
ATOM     13  C   UNL     1      36.305 -20.629 -18.749  0.00  0.00    +0.252 C 
ATOM     14  C   UNL     1      36.300 -19.318 -20.629  0.00  0.00    +0.252 C 
ATOM     15  C   UNL     1      34.006 -22.514 -16.526  0.00  0.00    +0.016 C 
ATOM     16  C   UNL     1      31.208 -22.776 -16.743  0.00  0.00    +0.018 C 
ATOM     17  C   UNL     1      33.282 -23.269 -15.595  0.00  0.00    +0.051 C 
ATOM     18  C   UNL     1      31.902 -23.397 -15.704  0.00  0.00    +0.016 C 
ATOM     19  H   UNL     1      30.576 -21.263 -19.053  0.00  0.00    +0.166 HD
ATOM     20  H   UNL     1      38.032 -19.798 -19.576  0.00  0.00    +0.158 HD
ENDROOT
BRANCH  11  22
ATOM     21 CL   UNL     1      34.477 -16.421 -20.694  0.00  0.00    -0.082 Cl
ATOM     22  C   UNL     1      33.777 -18.576 -22.230  0.00  0.00    +0.011 C 
ATOM     23  C   UNL     1      34.083 -17.216 -22.179  0.00  0.00    +0.058 C 
ATOM     24  C   UNL     1      33.466 -19.176 -23.450  0.00  0.00    +0.001 C 
ATOM     25  C   UNL     1      34.076 -16.455 -23.348  0.00  0.00    +0.011 C 
ATOM     26  C   UNL     1      33.458 -18.415 -24.619  0.00  0.00    +0.000 C 
ATOM     27  C   UNL     1      33.764 -17.055 -24.568  0.00  0.00    +0.001 C 
ENDBRANCH  11  22
BRANCH  17  29
ATOM     28  O   UNL     1      35.236 -25.589 -15.595  0.00  0.00    -0.265 OA
ATOM     29  N   UNL     1      33.954 -23.898 -14.546  0.00  0.00    -0.277 N 
ATOM     30  C   UNL     1      34.843 -24.965 -14.619  0.00  0.00    +0.303 C 
ATOM     31  H   UNL     1      33.777 -23.544 -13.645  0.00  0.00    +0.155 HD
ENDBRANCH  17  29
TORSDOF 2
ENDMDL
MODEL 9
REMARK VINA RESULT:      -9.2     15.422     17.828
REMARK  Name = 24778473
REMARK  2 active torsions:
REMARK  status: ('A' for Active; 'I' for Inactive)
REMARK    1  A    between atoms: C_11  and  C_22
REMARK    2  A    between atoms: C_17  and  N_29
REMARK                            x       y       z     vdW  Elec       q    Type
REMARK                         _______ _______ _______ _____ _____    ______ ____
ROOT
ATOM      1  O   UNL     1      31.718  -9.133 -18.866  0.00  0.00    -0.270 OA
ATOM      2  O   UNL     1      31.314  -4.806 -20.377  0.00  0.00    -0.270 OA
ATOM      3  N   UNL     1      32.125 -10.062 -24.036  0.00  0.00    -0.353 N 
ATOM      4  N   UNL     1      31.480  -6.850 -19.264  0.00  0.00    -0.248 N 
ATOM      5  C   UNL     1      31.912  -9.260 -21.960  0.00  0.00    +0.022 A 
ATOM      6  C   UNL     1      31.739  -8.197 -21.064  0.00  0.00    +0.060 C 
ATOM      7  C   UNL     1      31.952  -8.904 -23.318  0.00  0.00    +0.057 A 
ATOM      8  C   UNL     1      32.067 -10.685 -21.892  0.00  0.00    +0.018 A 
ATOM      9  C   UNL     1      31.618  -6.884 -21.516  0.00  0.00    +0.058 C 
ATOM     10  C   UNL     1      32.198 -11.150 -23.203  0.00  0.00    +0.057 A 
ATOM     11  C   UNL     1      31.657  -6.547 -22.850  0.00  0.00    +0.007 C 
ATOM     12  C   UNL     1      31.829  -7.575 -23.780  0.00  0.00    +0.017 C 
ATOM     13  C   UNL     1      31.650  -8.172 -19.605  0.00  0.00    +0.252 C 
ATOM     14  C   UNL     1      31.450  -6.015 -20.353  0.00  0.00    +0.252 C 
ATOM     15  C   UNL     1      32.112 -11.638 -20.851  0.00  0.00    +0.016 C 
ATOM     16  C   UNL     1      32.368 -12.504 -23.521  0.00  0.00    +0.018 C 
ATOM     17  C   UNL     1      32.282 -12.995 -21.152  0.00  0.00    +0.051 C 
ATOM     18  C   UNL     1      32.408 -13.420 -22.470  0.00  0.00    +0.016 C 
ATOM     19  H   UNL     1      32.189 -10.105 -25.017  0.00  0.00    +0.166 HD
ATOM     20  H   UNL     1      31.390  -6.535 -18.336  0.00  0.00    +0.158 HD
ENDROOT
BRANCH  11  22
ATOM     21 CL   UNL     1      34.211  -5.158 -23.877  0.00  0.00    -0.082 Cl
ATOM     22  C   UNL     1      31.532  -5.182 -23.316  0.00  0.00    +0.011 C 
ATOM     23  C   UNL     1      32.627  -4.467 -23.801  0.00  0.00    +0.058 C 
ATOM     24  C   UNL     1      30.272  -4.586 -23.273  0.00  0.00    +0.001 C 
ATOM     25  C   UNL     1      32.463  -3.154 -24.242  0.00  0.00    +0.011 C 
ATOM     26  C   UNL     1      30.108  -3.272 -23.713  0.00  0.00    +0.000 C 
ATOM     27  C   UNL     1      31.203  -2.557 -24.198  0.00  0.00    +0.001 C 
ENDBRANCH  11  22
BRANCH  17  29
ATOM     28  O   UNL     1      34.266 -15.211 -20.556  0.00  0.00    -0.265 OA
ATOM     29  N   UNL     1      32.324 -13.931 -20.117  0.00  0.00    -0.277 N 
ATOM     30  C   UNL     1      33.271 -14.927 -19.904  0.00  0.00    +0.303 C 
ATOM     31  H   UNL     1      31.596 -13.879 -19.458  0.00  0.00    +0.155 HD
ENDBRANCH  17  29
TORSDOF 2
ENDMDL
