MODEL 1
REMARK VINA RESULT:     -11.6      0.000      0.000
REMARK  Name = 24778299
REMARK  3 active torsions:
REMARK  status: ('A' for Active; 'I' for Inactive)
REMARK    1  A    between atoms: C_5  and  O_17
REMARK    2  A    between atoms: O_17  and  C_18
REMARK    3  A    between atoms: C_18  and  C_21
REMARK                            x       y       z     vdW  Elec       q    Type
REMARK                         _______ _______ _______ _____ _____    ______ ____
ROOT
ATOM      1  N   UNL     1      33.003 -13.202 -23.827  0.00  0.00    -0.332 NA
ATOM      2  N   UNL     1      33.407 -13.066 -21.455  0.00  0.00    -0.317 NA
ATOM      3  N   UNL     1      34.166 -14.908 -20.244  0.00  0.00    -0.335 N 
ATOM      4  N   UNL     1      32.645 -11.202 -22.654  0.00  0.00    -0.283 N 
ATOM      5  C   UNL     1      34.173 -16.487 -22.652  0.00  0.00    +0.131 C 
ATOM      6  C   UNL     1      33.784 -15.136 -22.643  0.00  0.00    +0.177 C 
ATOM      7  C   UNL     1      33.377 -14.493 -23.824  0.00  0.00    +0.137 C 
ATOM      8  C   UNL     1      34.159 -17.207 -23.843  0.00  0.00    +0.033 C 
ATOM      9  C   UNL     1      33.774 -14.360 -21.488  0.00  0.00    +0.181 C 
ATOM     10  C   UNL     1      33.373 -15.238 -25.002  0.00  0.00    +0.030 C 
ATOM     11  C   UNL     1      33.758 -16.581 -25.018  0.00  0.00    +0.005 C 
ATOM     12  C   UNL     1      33.038 -12.558 -22.642  0.00  0.00    +0.197 C 
ATOM     13  H   UNL     1      34.155 -14.349 -19.434  0.00  0.00    +0.144 HD
ATOM     14  H   UNL     1      34.448 -15.850 -20.188  0.00  0.00    +0.144 HD
ATOM     15  H   UNL     1      32.364 -10.778 -23.496  0.00  0.00    +0.156 HD
ATOM     16  H   UNL     1      32.650 -10.681 -21.819  0.00  0.00    +0.156 HD
ENDROOT
BRANCH   5  17
ATOM     17  O   UNL     1      34.575 -17.163 -21.538  0.00  0.00    -0.478 OA
BRANCH  17  18
ATOM     18  C   UNL     1      35.256 -18.398 -21.742  0.00  0.00    +0.188 C 
ATOM     19  C   UNL     1      36.760 -18.178 -21.620  0.00  0.00    +0.052 C 
BRANCH  18  21
ATOM     20 CL   UNL     1      36.256 -21.703 -17.832  0.00  0.00    -0.082 Cl
ATOM     21  C   UNL     1      34.749 -19.415 -20.747  0.00  0.00    +0.018 C 
ATOM     22  C   UNL     1      35.634 -20.019 -19.853  0.00  0.00    +0.011 C 
ATOM     23  C   UNL     1      33.396 -19.751 -20.723  0.00  0.00    -0.001 C 
ATOM     24  C   UNL     1      35.165 -20.958 -18.935  0.00  0.00    +0.057 C 
ATOM     25  C   UNL     1      32.927 -20.690 -19.804  0.00  0.00    +0.001 C 
ATOM     26  C   UNL     1      33.812 -21.294 -18.910  0.00  0.00    +0.011 C 
ENDBRANCH  18  21
ENDBRANCH  17  18
ENDBRANCH   5  17
TORSDOF 3
ENDMDL
MODEL 2
REMARK VINA RESULT:     -11.2      4.178      7.430
REMARK  Name = 24778299
REMARK  3 active torsions:
REMARK  status: ('A' for Active; 'I' for Inactive)
REMARK    1  A    between atoms: C_5  and  O_17
REMARK    2  A    between atoms: O_17  and  C_18
REMARK    3  A    between atoms: C_18  and  C_21
REMARK                            x       y       z     vdW  Elec       q    Type
REMARK                         _______ _______ _______ _____ _____    ______ ____
ROOT
ATOM      1  N   UNL     1      34.171 -22.093 -17.829  0.00  0.00    -0.332 NA
ATOM      2  N   UNL     1      31.977 -21.703 -18.747  0.00  0.00    -0.317 NA
ATOM      3  N   UNL     1      31.652 -20.252 -20.544  0.00  0.00    -0.335 N 
ATOM      4  N   UNL     1      32.282 -23.165 -16.942  0.00  0.00    -0.283 N 
ATOM      5  C   UNL     1      34.478 -19.706 -20.613  0.00  0.00    +0.131 C 
ATOM      6  C   UNL     1      33.909 -20.588 -19.679  0.00  0.00    +0.177 C 
ATOM      7  C   UNL     1      34.705 -21.248 -18.728  0.00  0.00    +0.137 C 
ATOM      8  C   UNL     1      35.851 -19.476 -20.606  0.00  0.00    +0.033 C 
ATOM      9  C   UNL     1      32.544 -20.862 -19.632  0.00  0.00    +0.181 C 
ATOM     10  C   UNL     1      36.076 -20.998 -18.743  0.00  0.00    +0.030 C 
ATOM     11  C   UNL     1      36.649 -20.122 -19.669  0.00  0.00    +0.005 C 
ATOM     12  C   UNL     1      32.836 -22.275 -17.888  0.00  0.00    +0.197 C 
ATOM     13  H   UNL     1      30.690 -20.454 -20.501  0.00  0.00    +0.144 HD
ATOM     14  H   UNL     1      31.993 -19.624 -21.222  0.00  0.00    +0.144 HD
ATOM     15  H   UNL     1      32.865 -23.613 -16.288  0.00  0.00    +0.156 HD
ATOM     16  H   UNL     1      31.313 -23.338 -16.937  0.00  0.00    +0.156 HD
ENDROOT
BRANCH   5  17
ATOM     17  O   UNL     1      33.755 -19.037 -21.556  0.00  0.00    -0.478 OA
BRANCH  17  18
ATOM     18  C   UNL     1      34.479 -18.480 -22.651  0.00  0.00    +0.188 C 
ATOM     19  C   UNL     1      34.055 -19.164 -23.946  0.00  0.00    +0.052 C 
BRANCH  18  21
ATOM     20 CL   UNL     1      33.186 -14.240 -25.401  0.00  0.00    -0.082 Cl
ATOM     21  C   UNL     1      34.243 -16.989 -22.693  0.00  0.00    +0.018 C 
ATOM     22  C   UNL     1      33.867 -16.375 -23.888  0.00  0.00    +0.011 C 
ATOM     23  C   UNL     1      34.403 -16.225 -21.538  0.00  0.00    -0.001 C 
ATOM     24  C   UNL     1      33.650 -14.998 -23.927  0.00  0.00    +0.057 C 
ATOM     25  C   UNL     1      34.185 -14.848 -21.576  0.00  0.00    +0.001 C 
ATOM     26  C   UNL     1      33.809 -14.234 -22.771  0.00  0.00    +0.011 C 
ENDBRANCH  18  21
ENDBRANCH  17  18
ENDBRANCH   5  17
TORSDOF 3
ENDMDL
MODEL 3
REMARK VINA RESULT:     -10.9      1.644      2.923
REMARK  Name = 24778299
REMARK  3 active torsions:
REMARK  status: ('A' for Active; 'I' for Inactive)
REMARK    1  A    between atoms: C_5  and  O_17
REMARK    2  A    between atoms: O_17  and  C_18
REMARK    3  A    between atoms: C_18  and  C_21
REMARK                            x       y       z     vdW  Elec       q    Type
REMARK                         _______ _______ _______ _____ _____    ______ ____
ROOT
ATOM      1  N   UNL     1      32.827 -12.996 -23.938  0.00  0.00    -0.332 NA
ATOM      2  N   UNL     1      33.288 -14.677 -25.601  0.00  0.00    -0.317 NA
ATOM      3  N   UNL     1      34.217 -16.736 -25.023  0.00  0.00    -0.335 N 
ATOM      4  N   UNL     1      32.353 -12.614 -26.203  0.00  0.00    -0.283 N 
ATOM      5  C   UNL     1      34.272 -15.934 -22.259  0.00  0.00    +0.131 C 
ATOM      6  C   UNL     1      33.783 -15.092 -23.273  0.00  0.00    +0.177 C 
ATOM      7  C   UNL     1      33.296 -13.809 -22.975  0.00  0.00    +0.137 C 
ATOM      8  C   UNL     1      34.276 -15.500 -20.936  0.00  0.00    +0.033 C 
ATOM      9  C   UNL     1      33.751 -15.465 -24.613  0.00  0.00    +0.181 C 
ATOM     10  C   UNL     1      33.313 -13.400 -21.643  0.00  0.00    +0.030 C 
ATOM     11  C   UNL     1      33.797 -14.231 -20.630  0.00  0.00    +0.005 C 
ATOM     12  C   UNL     1      32.849 -13.473 -25.199  0.00  0.00    +0.197 C 
ATOM     13  H   UNL     1      34.188 -16.988 -25.974  0.00  0.00    +0.144 HD
ATOM     14  H   UNL     1      34.571 -17.369 -24.357  0.00  0.00    +0.144 HD
ATOM     15  H   UNL     1      32.018 -11.720 -25.965  0.00  0.00    +0.156 HD
ATOM     16  H   UNL     1      32.343 -12.909 -27.142  0.00  0.00    +0.156 HD
ENDROOT
BRANCH   5  17
ATOM     17  O   UNL     1      34.758 -17.187 -22.488  0.00  0.00    -0.478 OA
BRANCH  17  18
ATOM     18  C   UNL     1      33.861 -18.276 -22.282  0.00  0.00    +0.188 C 
ATOM     19  C   UNL     1      33.672 -19.037 -23.591  0.00  0.00    +0.052 C 
BRANCH  18  21
ATOM     20 CL   UNL     1      32.976 -21.876 -18.613  0.00  0.00    -0.082 Cl
ATOM     21  C   UNL     1      34.399 -19.162 -21.184  0.00  0.00    +0.018 C 
ATOM     22  C   UNL     1      33.539 -20.011 -20.487  0.00  0.00    +0.011 C 
ATOM     23  C   UNL     1      35.756 -19.132 -20.867  0.00  0.00    -0.001 C 
ATOM     24  C   UNL     1      34.037 -20.829 -19.473  0.00  0.00    +0.057 C 
ATOM     25  C   UNL     1      36.254 -19.950 -19.853  0.00  0.00    +0.001 C 
ATOM     26  C   UNL     1      35.394 -20.799 -19.156  0.00  0.00    +0.011 C 
ENDBRANCH  18  21
ENDBRANCH  17  18
ENDBRANCH   5  17
TORSDOF 3
ENDMDL
MODEL 4
REMARK VINA RESULT:     -10.5      1.325      2.218
REMARK  Name = 24778299
REMARK  3 active torsions:
REMARK  status: ('A' for Active; 'I' for Inactive)
REMARK    1  A    between atoms: C_5  and  O_17
REMARK    2  A    between atoms: O_17  and  C_18
REMARK    3  A    between atoms: C_18  and  C_21
REMARK                            x       y       z     vdW  Elec       q    Type
REMARK                         _______ _______ _______ _____ _____    ______ ____
ROOT
ATOM      1  N   UNL     1      32.079 -12.205 -22.583  0.00  0.00    -0.332 NA
ATOM      2  N   UNL     1      32.828 -13.252 -20.546  0.00  0.00    -0.317 NA
ATOM      3  N   UNL     1      34.058 -15.232 -20.579  0.00  0.00    -0.335 N 
ATOM      4  N   UNL     1      31.593 -11.261 -20.492  0.00  0.00    -0.283 N 
ATOM      5  C   UNL     1      33.938 -15.259 -23.455  0.00  0.00    +0.131 C 
ATOM      6  C   UNL     1      33.342 -14.242 -22.690  0.00  0.00    +0.177 C 
ATOM      7  C   UNL     1      32.654 -13.183 -23.306  0.00  0.00    +0.137 C 
ATOM      8  C   UNL     1      33.852 -15.226 -24.844  0.00  0.00    +0.033 C 
ATOM      9  C   UNL     1      33.391 -14.215 -21.299  0.00  0.00    +0.181 C 
ATOM     10  C   UNL     1      32.583 -13.176 -24.697  0.00  0.00    +0.030 C 
ATOM     11  C   UNL     1      33.173 -14.183 -25.464  0.00  0.00    +0.005 C 
ATOM     12  C   UNL     1      32.197 -12.293 -21.243  0.00  0.00    +0.197 C 
ATOM     13  H   UNL     1      34.086 -15.202 -19.595  0.00  0.00    +0.144 HD
ATOM     14  H   UNL     1      34.495 -15.972 -21.060  0.00  0.00    +0.144 HD
ATOM     15  H   UNL     1      31.117 -10.532 -20.950  0.00  0.00    +0.156 HD
ATOM     16  H   UNL     1      31.647 -11.272 -19.508  0.00  0.00    +0.156 HD
ENDROOT
BRANCH   5  17
ATOM     17  O   UNL     1      34.616 -16.311 -22.913  0.00  0.00    -0.478 OA
BRANCH  17  18
ATOM     18  C   UNL     1      33.934 -17.562 -22.860  0.00  0.00    +0.188 C 
ATOM     19  C   UNL     1      33.961 -18.217 -24.236  0.00  0.00    +0.052 C 
BRANCH  18  21
ATOM     20 CL   UNL     1      33.479 -21.401 -19.358  0.00  0.00    -0.082 Cl
ATOM     21  C   UNL     1      34.575 -18.432 -21.805  0.00  0.00    +0.018 C 
ATOM     22  C   UNL     1      33.819 -19.402 -21.146  0.00  0.00    +0.011 C 
ATOM     23  C   UNL     1      35.923 -18.266 -21.490  0.00  0.00    -0.001 C 
ATOM     24  C   UNL     1      34.411 -20.205 -20.172  0.00  0.00    +0.057 C 
ATOM     25  C   UNL     1      36.515 -19.070 -20.516  0.00  0.00    +0.001 C 
ATOM     26  C   UNL     1      35.759 -20.039 -19.857  0.00  0.00    +0.011 C 
ENDBRANCH  18  21
ENDBRANCH  17  18
ENDBRANCH   5  17
TORSDOF 3
ENDMDL
MODEL 5
REMARK VINA RESULT:     -10.4      4.287      7.663
REMARK  Name = 24778299
REMARK  3 active torsions:
REMARK  status: ('A' for Active; 'I' for Inactive)
REMARK    1  A    between atoms: C_5  and  O_17
REMARK    2  A    between atoms: O_17  and  C_18
REMARK    3  A    between atoms: C_18  and  C_21
REMARK                            x       y       z     vdW  Elec       q    Type
REMARK                         _______ _______ _______ _____ _____    ______ ____
ROOT
ATOM      1  N   UNL     1      33.166 -22.482 -16.625  0.00  0.00    -0.332 NA
ATOM      2  N   UNL     1      31.480 -21.767 -18.191  0.00  0.00    -0.317 NA
ATOM      3  N   UNL     1      32.042 -20.617 -20.141  0.00  0.00    -0.335 N 
ATOM      4  N   UNL     1      30.895 -22.921 -16.238  0.00  0.00    -0.283 N 
ATOM      5  C   UNL     1      34.825 -20.752 -19.417  0.00  0.00    +0.131 C 
ATOM      6  C   UNL     1      33.815 -21.304 -18.611  0.00  0.00    +0.177 C 
ATOM      7  C   UNL     1      34.125 -21.952 -17.404  0.00  0.00    +0.137 C 
ATOM      8  C   UNL     1      36.158 -20.845 -19.024  0.00  0.00    +0.033 C 
ATOM      9  C   UNL     1      32.465 -21.246 -18.947  0.00  0.00    +0.181 C 
ATOM     10  C   UNL     1      35.466 -22.029 -17.034  0.00  0.00    +0.030 C 
ATOM     11  C   UNL     1      36.477 -21.483 -17.830  0.00  0.00    +0.005 C 
ATOM     12  C   UNL     1      31.896 -22.361 -17.061  0.00  0.00    +0.197 C 
ATOM     13  H   UNL     1      31.085 -20.583 -20.366  0.00  0.00    +0.144 HD
ATOM     14  H   UNL     1      32.705 -20.212 -20.746  0.00  0.00    +0.144 HD
ATOM     15  H   UNL     1      31.142 -23.369 -15.398  0.00  0.00    +0.156 HD
ATOM     16  H   UNL     1      29.949 -22.864 -16.505  0.00  0.00    +0.156 HD
ENDROOT
BRANCH   5  17
ATOM     17  O   UNL     1      34.584 -20.112 -20.597  0.00  0.00    -0.478 OA
BRANCH  17  18
ATOM     18  C   UNL     1      35.088 -18.785 -20.727  0.00  0.00    +0.188 C 
ATOM     19  C   UNL     1      36.612 -18.811 -20.688  0.00  0.00    +0.052 C 
BRANCH  18  21
ATOM     20 CL   UNL     1      34.212 -14.534 -23.622  0.00  0.00    -0.082 Cl
ATOM     21  C   UNL     1      34.563 -18.177 -22.006  0.00  0.00    +0.018 C 
ATOM     22  C   UNL     1      34.623 -16.797 -22.200  0.00  0.00    +0.011 C 
ATOM     23  C   UNL     1      34.018 -18.997 -22.994  0.00  0.00    -0.001 C 
ATOM     24  C   UNL     1      34.139 -16.237 -23.382  0.00  0.00    +0.057 C 
ATOM     25  C   UNL     1      33.534 -18.437 -24.176  0.00  0.00    +0.001 C 
ATOM     26  C   UNL     1      33.594 -17.057 -24.370  0.00  0.00    +0.011 C 
ENDBRANCH  18  21
ENDBRANCH  17  18
ENDBRANCH   5  17
TORSDOF 3
ENDMDL
MODEL 6
REMARK VINA RESULT:     -10.4      4.280      8.018
REMARK  Name = 24778299
REMARK  3 active torsions:
REMARK  status: ('A' for Active; 'I' for Inactive)
REMARK    1  A    between atoms: C_5  and  O_17
REMARK    2  A    between atoms: O_17  and  C_18
REMARK    3  A    between atoms: C_18  and  C_21
REMARK                            x       y       z     vdW  Elec       q    Type
REMARK                         _______ _______ _______ _____ _____    ______ ____
ROOT
ATOM      1  N   UNL     1      34.413 -17.037 -22.836  0.00  0.00    -0.332 NA
ATOM      2  N   UNL     1      34.565 -16.027 -20.654  0.00  0.00    -0.317 NA
ATOM      3  N   UNL     1      33.994 -13.793 -20.307  0.00  0.00    -0.335 N 
ATOM      4  N   UNL     1      35.143 -18.274 -20.981  0.00  0.00    -0.283 N 
ATOM      5  C   UNL     1      33.351 -13.524 -23.100  0.00  0.00    +0.131 C 
ATOM      6  C   UNL     1      33.809 -14.734 -22.550  0.00  0.00    +0.177 C 
ATOM      7  C   UNL     1      33.975 -15.876 -23.352  0.00  0.00    +0.137 C 
ATOM      8  C   UNL     1      33.053 -13.446 -24.458  0.00  0.00    +0.033 C 
ATOM      9  C   UNL     1      34.125 -14.879 -21.202  0.00  0.00    +0.181 C 
ATOM     10  C   UNL     1      33.669 -15.769 -24.707  0.00  0.00    +0.030 C 
ATOM     11  C   UNL     1      33.213 -14.570 -25.261  0.00  0.00    +0.005 C 
ATOM     12  C   UNL     1      34.685 -17.050 -21.515  0.00  0.00    +0.197 C 
ATOM     13  H   UNL     1      34.220 -13.908 -19.356  0.00  0.00    +0.144 HD
ATOM     14  H   UNL     1      33.677 -12.919 -20.634  0.00  0.00    +0.144 HD
ATOM     15  H   UNL     1      35.250 -19.057 -21.566  0.00  0.00    +0.156 HD
ATOM     16  H   UNL     1      35.356 -18.343 -20.022  0.00  0.00    +0.156 HD
ENDROOT
BRANCH   5  17
ATOM     17  O   UNL     1      33.173 -12.385 -22.373  0.00  0.00    -0.478 OA
BRANCH  17  18
ATOM     18  C   UNL     1      31.858 -11.835 -22.343  0.00  0.00    +0.188 C 
ATOM     19  C   UNL     1      31.187 -12.188 -21.020  0.00  0.00    +0.052 C 
BRANCH  18  21
ATOM     20 CL   UNL     1      34.617  -7.689 -23.892  0.00  0.00    -0.082 Cl
ATOM     21  C   UNL     1      31.938 -10.343 -22.558  0.00  0.00    +0.018 C 
ATOM     22  C   UNL     1      33.104  -9.772 -23.067  0.00  0.00    +0.011 C 
ATOM     23  C   UNL     1      30.844  -9.535 -22.248  0.00  0.00    -0.001 C 
ATOM     24  C   UNL     1      33.177  -8.393 -23.265  0.00  0.00    +0.057 C 
ATOM     25  C   UNL     1      30.917  -8.157 -22.446  0.00  0.00    +0.001 C 
ATOM     26  C   UNL     1      32.084  -7.586 -22.955  0.00  0.00    +0.011 C 
ENDBRANCH  18  21
ENDBRANCH  17  18
ENDBRANCH   5  17
TORSDOF 3
ENDMDL
MODEL 7
REMARK VINA RESULT:     -10.2     10.083     12.360
REMARK  Name = 24778299
REMARK  3 active torsions:
REMARK  status: ('A' for Active; 'I' for Inactive)
REMARK    1  A    between atoms: C_5  and  O_17
REMARK    2  A    between atoms: O_17  and  C_18
REMARK    3  A    between atoms: C_18  and  C_21
REMARK                            x       y       z     vdW  Elec       q    Type
REMARK                         _______ _______ _______ _____ _____    ______ ____
ROOT
ATOM      1  N   UNL     1      38.971 -24.766 -12.993  0.00  0.00    -0.332 NA
ATOM      2  N   UNL     1      38.061 -26.057 -14.813  0.00  0.00    -0.317 NA
ATOM      3  N   UNL     1      35.809 -25.912 -15.398  0.00  0.00    -0.335 N 
ATOM      4  N   UNL     1      40.328 -26.216 -14.241  0.00  0.00    -0.283 N 
ATOM      5  C   UNL     1      35.385 -23.996 -13.292  0.00  0.00    +0.131 C 
ATOM      6  C   UNL     1      36.644 -24.568 -13.541  0.00  0.00    +0.177 C 
ATOM      7  C   UNL     1      37.762 -24.224 -12.763  0.00  0.00    +0.137 C 
ATOM      8  C   UNL     1      35.232 -23.073 -12.261  0.00  0.00    +0.033 C 
ATOM      9  C   UNL     1      36.865 -25.496 -14.555  0.00  0.00    +0.181 C 
ATOM     10  C   UNL     1      37.580 -23.298 -11.738  0.00  0.00    +0.030 C 
ATOM     11  C   UNL     1      36.331 -22.725 -11.484  0.00  0.00    +0.005 C 
ATOM     12  C   UNL     1      39.055 -25.653 -14.005  0.00  0.00    +0.197 C 
ATOM     13  H   UNL     1      35.978 -26.569 -16.111  0.00  0.00    +0.144 HD
ATOM     14  H   UNL     1      34.903 -25.546 -15.271  0.00  0.00    +0.144 HD
ATOM     15  H   UNL     1      41.093 -25.956 -13.680  0.00  0.00    +0.156 HD
ATOM     16  H   UNL     1      40.450 -26.869 -14.968  0.00  0.00    +0.156 HD
ENDROOT
BRANCH   5  17
ATOM     17  O   UNL     1      34.266 -24.293 -14.012  0.00  0.00    -0.478 OA
BRANCH  17  18
ATOM     18  C   UNL     1      33.523 -23.194 -14.534  0.00  0.00    +0.188 C 
ATOM     19  C   UNL     1      33.988 -22.891 -15.954  0.00  0.00    +0.052 C 
BRANCH  18  21
ATOM     20 CL   UNL     1      28.691 -22.346 -16.307  0.00  0.00    -0.082 Cl
ATOM     21  C   UNL     1      32.049 -23.519 -14.477  0.00  0.00    +0.018 C 
ATOM     22  C   UNL     1      31.155 -22.859 -15.320  0.00  0.00    +0.011 C 
ATOM     23  C   UNL     1      31.582 -24.480 -13.581  0.00  0.00    -0.001 C 
ATOM     24  C   UNL     1      29.794 -23.160 -15.267  0.00  0.00    +0.057 C 
ATOM     25  C   UNL     1      30.222 -24.782 -13.529  0.00  0.00    +0.001 C 
ATOM     26  C   UNL     1      29.327 -24.121 -14.371  0.00  0.00    +0.011 C 
ENDBRANCH  18  21
ENDBRANCH  17  18
ENDBRANCH   5  17
TORSDOF 3
ENDMDL
MODEL 8
REMARK VINA RESULT:     -10.0      6.016      9.835
REMARK  Name = 24778299
REMARK  3 active torsions:
REMARK  status: ('A' for Active; 'I' for Inactive)
REMARK    1  A    between atoms: C_5  and  O_17
REMARK    2  A    between atoms: O_17  and  C_18
REMARK    3  A    between atoms: C_18  and  C_21
REMARK                            x       y       z     vdW  Elec       q    Type
REMARK                         _______ _______ _______ _____ _____    ______ ____
ROOT
ATOM      1  N   UNL     1      32.014 -24.248 -13.117  0.00  0.00    -0.332 NA
ATOM      2  N   UNL     1      30.208 -23.583 -14.567  0.00  0.00    -0.317 NA
ATOM      3  N   UNL     1      30.613 -22.523 -16.604  0.00  0.00    -0.335 N 
ATOM      4  N   UNL     1      29.780 -24.648 -12.524  0.00  0.00    -0.283 N 
ATOM      5  C   UNL     1      33.446 -22.655 -16.109  0.00  0.00    +0.131 C 
ATOM      6  C   UNL     1      32.502 -23.162 -15.199  0.00  0.00    +0.177 C 
ATOM      7  C   UNL     1      32.908 -23.761 -13.995  0.00  0.00    +0.137 C 
ATOM      8  C   UNL     1      34.806 -22.745 -15.823  0.00  0.00    +0.033 C 
ATOM      9  C   UNL     1      31.130 -23.105 -15.423  0.00  0.00    +0.181 C 
ATOM     10  C   UNL     1      34.275 -23.836 -13.734  0.00  0.00    +0.030 C 
ATOM     11  C   UNL     1      35.219 -23.335 -14.634  0.00  0.00    +0.005 C 
ATOM     12  C   UNL     1      30.712 -24.133 -13.450  0.00  0.00    +0.197 C 
ATOM     13  H   UNL     1      29.640 -22.489 -16.751  0.00  0.00    +0.144 HD
ATOM     14  H   UNL     1      31.226 -22.151 -17.279  0.00  0.00    +0.144 HD
ATOM     15  H   UNL     1      30.093 -25.062 -11.688  0.00  0.00    +0.156 HD
ATOM     16  H   UNL     1      28.815 -24.593 -12.714  0.00  0.00    +0.156 HD
ENDROOT
BRANCH   5  17
ATOM     17  O   UNL     1      33.111 -22.063 -17.291  0.00  0.00    -0.478 OA
BRANCH  17  18
ATOM     18  C   UNL     1      33.939 -22.350 -18.415  0.00  0.00    +0.188 C 
ATOM     19  C   UNL     1      33.445 -23.619 -19.102  0.00  0.00    +0.052 C 
BRANCH  18  21
ATOM     20 CL   UNL     1      36.622 -18.687 -20.983  0.00  0.00    -0.082 Cl
ATOM     21  C   UNL     1      33.938 -21.163 -19.348  0.00  0.00    +0.018 C 
ATOM     22  C   UNL     1      35.140 -20.545 -19.695  0.00  0.00    +0.011 C 
ATOM     23  C   UNL     1      32.735 -20.683 -19.864  0.00  0.00    -0.001 C 
ATOM     24  C   UNL     1      35.139 -19.449 -20.556  0.00  0.00    +0.057 C 
ATOM     25  C   UNL     1      32.733 -19.587 -20.726  0.00  0.00    +0.001 C 
ATOM     26  C   UNL     1      33.935 -18.970 -21.072  0.00  0.00    +0.011 C 
ENDBRANCH  18  21
ENDBRANCH  17  18
ENDBRANCH   5  17
TORSDOF 3
ENDMDL
MODEL 9
REMARK VINA RESULT:     -10.0      9.305     11.202
REMARK  Name = 24778299
REMARK  3 active torsions:
REMARK  status: ('A' for Active; 'I' for Inactive)
REMARK    1  A    between atoms: C_5  and  O_17
REMARK    2  A    between atoms: O_17  and  C_18
REMARK    3  A    between atoms: C_18  and  C_21
REMARK                            x       y       z     vdW  Elec       q    Type
REMARK                         _______ _______ _______ _____ _____    ______ ____
ROOT
ATOM      1  N   UNL     1      38.813 -23.913 -14.632  0.00  0.00    -0.332 NA
ATOM      2  N   UNL     1      37.446 -25.833 -14.130  0.00  0.00    -0.317 NA
ATOM      3  N   UNL     1      35.170 -25.870 -14.636  0.00  0.00    -0.335 N 
ATOM      4  N   UNL     1      39.731 -25.817 -13.614  0.00  0.00    -0.283 N 
ATOM      5  C   UNL     1      35.369 -23.210 -15.720  0.00  0.00    +0.131 C 
ATOM      6  C   UNL     1      36.478 -23.884 -15.180  0.00  0.00    +0.177 C 
ATOM      7  C   UNL     1      37.745 -23.279 -15.147  0.00  0.00    +0.137 C 
ATOM      8  C   UNL     1      35.517 -21.925 -16.234  0.00  0.00    +0.033 C 
ATOM      9  C   UNL     1      36.398 -25.169 -14.652  0.00  0.00    +0.181 C 
ATOM     10  C   UNL     1      37.865 -21.992 -15.667  0.00  0.00    +0.030 C 
ATOM     11  C   UNL     1      36.767 -21.316 -16.205  0.00  0.00    +0.005 C 
ATOM     12  C   UNL     1      38.605 -25.156 -14.151  0.00  0.00    +0.197 C 
ATOM     13  H   UNL     1      35.126 -26.778 -14.259  0.00  0.00    +0.144 HD
ATOM     14  H   UNL     1      34.357 -25.449 -15.000  0.00  0.00    +0.144 HD
ATOM     15  H   UNL     1      40.607 -25.368 -13.604  0.00  0.00    +0.156 HD
ATOM     16  H   UNL     1      39.640 -26.727 -13.248  0.00  0.00    +0.156 HD
ENDROOT
BRANCH   5  17
ATOM     17  O   UNL     1      34.116 -23.746 -15.778  0.00  0.00    -0.478 OA
BRANCH  17  18
ATOM     18  C   UNL     1      33.029 -22.836 -15.925  0.00  0.00    +0.188 C 
ATOM     19  C   UNL     1      32.707 -22.661 -17.406  0.00  0.00    +0.052 C 
BRANCH  18  21
ATOM     20 CL   UNL     1      27.854 -23.253 -15.428  0.00  0.00    -0.082 Cl
ATOM     21  C   UNL     1      31.843 -23.347 -15.144  0.00  0.00    +0.018 C 
ATOM     22  C   UNL     1      30.547 -23.093 -15.594  0.00  0.00    +0.011 C 
ATOM     23  C   UNL     1      32.043 -24.073 -13.970  0.00  0.00    -0.001 C 
ATOM     24  C   UNL     1      29.452 -23.566 -14.872  0.00  0.00    +0.057 C 
ATOM     25  C   UNL     1      30.948 -24.546 -13.248  0.00  0.00    +0.001 C 
ATOM     26  C   UNL     1      29.652 -24.292 -13.698  0.00  0.00    +0.011 C 
ENDBRANCH  18  21
ENDBRANCH  17  18
ENDBRANCH   5  17
TORSDOF 3
ENDMDL
