MODEL 1
REMARK VINA RESULT:     -13.6      0.000      0.000
REMARK  Name = 52920501
REMARK  9 active torsions:
REMARK  status: ('A' for Active; 'I' for Inactive)
REMARK    1  A    between atoms: N_1  and  C_12
REMARK    2  A    between atoms: C_5  and  O_27
REMARK    3  A    between atoms: C_9  and  C_15
REMARK    4  A    between atoms: C_15  and  S_16
REMARK    5  A    between atoms: S_16  and  N_19
REMARK    6  A    between atoms: N_19  and  C_21
REMARK    7  A    between atoms: C_21  and  C_22
REMARK    8  A    between atoms: C_22  and  N_23
REMARK    9  A    between atoms: O_27  and  C_35
REMARK                            x       y       z     vdW  Elec       q    Type
REMARK                         _______ _______ _______ _____ _____    ______ ____
ROOT
ATOM      1  N   UNL     1      32.258 -21.951 -18.458  0.00  0.00    -0.247 N 
ATOM      2  N   UNL     1      32.937 -22.254 -16.233  0.00  0.00    -0.300 NA
ATOM      3  N   UNL     1      30.752 -22.960 -16.967  0.00  0.00    -0.170 NA
ATOM      4  C   UNL     1      31.968 -22.411 -17.155  0.00  0.00    +0.152 C 
ATOM      5  C   UNL     1      32.626 -22.704 -14.999  0.00  0.00    +0.295 C 
ATOM      6  C   UNL     1      31.417 -23.285 -14.676  0.00  0.00    +0.094 C 
ATOM      7  C   UNL     1      30.509 -23.388 -15.711  0.00  0.00    +0.118 C 
ATOM      8  H   UNL     1      31.522 -22.087 -19.099  0.00  0.00    +0.165 HD
ENDROOT
BRANCH   1  12
ATOM      9  C   UNL     1      34.377 -19.850 -20.649  0.00  0.00    +0.004 C 
ATOM     10  C   UNL     1      33.252 -20.457 -20.092  0.00  0.00    +0.013 C 
ATOM     11  C   UNL     1      35.644 -20.126 -20.135  0.00  0.00    -0.002 C 
ATOM     12  C   UNL     1      33.393 -21.339 -19.021  0.00  0.00    +0.057 C 
ATOM     13  C   UNL     1      35.786 -21.008 -19.063  0.00  0.00    +0.001 C 
ATOM     14  C   UNL     1      34.660 -21.614 -18.507  0.00  0.00    +0.015 C 
BRANCH   9  15
ATOM     15  C   UNL     1      34.226 -18.907 -21.794  0.00  0.00    +0.195 C 
BRANCH  15  16
ATOM     16  S   UNL     1      35.375 -17.588 -21.565  0.00  0.00    +0.045 S 
ATOM     17  O   UNL     1      34.985 -16.837 -20.383  0.00  0.00    -0.157 OA
ATOM     18  O   UNL     1      36.716 -18.139 -21.672  0.00  0.00    -0.157 OA
BRANCH  16  19
ATOM     19  N   UNL     1      35.074 -16.647 -22.962  0.00  0.00    -0.185 NA
ATOM     20  H   UNL     1      34.590 -17.247 -23.629  0.00  0.00    +0.148 HD
BRANCH  19  21
ATOM     21  C   UNL     1      34.277 -15.413 -22.834  0.00  0.00    +0.068 C 
BRANCH  21  22
ATOM     22  C   UNL     1      33.501 -15.181 -24.122  0.00  0.00    -0.058 C 
BRANCH  22  23
ATOM     23  N   UNL     1      32.800 -13.904 -24.067  0.00  0.00    +0.385 N 
ATOM     24  C   UNL     1      33.465 -12.991 -23.136  0.00  0.00    -0.101 C 
ATOM     25  C   UNL     1      32.721 -13.301 -25.399  0.00  0.00    -0.101 C 
ATOM     26  H   UNL     1      31.852 -14.076 -23.732  0.00  0.00    -0.080 HD
ENDBRANCH  22  23
ENDBRANCH  21  22
ENDBRANCH  19  21
ENDBRANCH  16  19
ENDBRANCH  15  16
ENDBRANCH   9  15
ENDBRANCH   1  12
BRANCH   5  27
ATOM     27  O   UNL     1      33.591 -22.565 -14.016  0.00  0.00    -0.427 OA
BRANCH  27  35
ATOM     28  N   UNL     1      38.752 -23.988 -15.197  0.00  0.00    -0.316 N 
ATOM     29  C   UNL     1      36.813 -24.312 -14.142  0.00  0.00    +0.017 C 
ATOM     30  C   UNL     1      37.488 -23.470 -15.029  0.00  0.00    +0.048 C 
ATOM     31  C   UNL     1      38.900 -25.126 -14.450  0.00  0.00    +0.026 C 
ATOM     32  C   UNL     1      37.716 -25.352 -13.785  0.00  0.00    +0.012 C 
ATOM     33  C   UNL     1      35.482 -24.005 -13.795  0.00  0.00    +0.039 C 
ATOM     34  C   UNL     1      36.896 -22.332 -15.588  0.00  0.00    +0.018 C 
ATOM     35  C   UNL     1      34.878 -22.869 -14.347  0.00  0.00    +0.148 C 
ATOM     36  C   UNL     1      35.576 -22.047 -15.229  0.00  0.00    +0.039 C 
ATOM     37  C   UNL     1      40.164 -25.883 -14.448  0.00  0.00    +0.047 C 
ATOM     38  H   UNL     1      39.449 -23.598 -15.773  0.00  0.00    +0.152 HD
ENDBRANCH  27  35
ENDBRANCH   5  27
TORSDOF 9
ENDMDL
MODEL 2
REMARK VINA RESULT:     -13.2      2.763     10.160
REMARK  Name = 52920501
REMARK  9 active torsions:
REMARK  status: ('A' for Active; 'I' for Inactive)
REMARK    1  A    between atoms: N_1  and  C_12
REMARK    2  A    between atoms: C_5  and  O_27
REMARK    3  A    between atoms: C_9  and  C_15
REMARK    4  A    between atoms: C_15  and  S_16
REMARK    5  A    between atoms: S_16  and  N_19
REMARK    6  A    between atoms: N_19  and  C_21
REMARK    7  A    between atoms: C_21  and  C_22
REMARK    8  A    between atoms: C_22  and  N_23
REMARK    9  A    between atoms: O_27  and  C_35
REMARK                            x       y       z     vdW  Elec       q    Type
REMARK                         _______ _______ _______ _____ _____    ______ ____
ROOT
ATOM      1  N   UNL     1      33.903 -22.283 -17.215  0.00  0.00    -0.247 N 
ATOM      2  N   UNL     1      34.634 -20.821 -18.899  0.00  0.00    -0.300 NA
ATOM      3  N   UNL     1      32.333 -21.527 -18.786  0.00  0.00    -0.170 NA
ATOM      4  C   UNL     1      33.609 -21.505 -18.356  0.00  0.00    +0.152 C 
ATOM      5  C   UNL     1      34.318 -20.090 -19.987  0.00  0.00    +0.295 C 
ATOM      6  C   UNL     1      33.050 -20.027 -20.527  0.00  0.00    +0.094 C 
ATOM      7  C   UNL     1      32.087 -20.773 -19.878  0.00  0.00    +0.118 C 
ATOM      8  H   UNL     1      33.125 -22.765 -16.852  0.00  0.00    +0.165 HD
ENDROOT
BRANCH   1  12
ATOM      9  C   UNL     1      36.321 -23.720 -14.808  0.00  0.00    +0.004 C 
ATOM     10  C   UNL     1      35.143 -23.502 -15.522  0.00  0.00    +0.013 C 
ATOM     11  C   UNL     1      37.448 -22.938 -15.065  0.00  0.00    -0.002 C 
ATOM     12  C   UNL     1      35.091 -22.503 -16.494  0.00  0.00    +0.057 C 
ATOM     13  C   UNL     1      37.396 -21.938 -16.038  0.00  0.00    +0.001 C 
ATOM     14  C   UNL     1      36.217 -21.721 -16.752  0.00  0.00    +0.015 C 
BRANCH   9  15
ATOM     15  C   UNL     1      36.377 -24.788 -13.769  0.00  0.00    +0.195 C 
BRANCH  15  16
ATOM     16  S   UNL     1      35.871 -24.080 -12.235  0.00  0.00    +0.045 S 
ATOM     17  O   UNL     1      36.585 -24.750 -11.160  0.00  0.00    -0.157 OA
ATOM     18  O   UNL     1      35.938 -22.633 -12.366  0.00  0.00    -0.157 OA
BRANCH  16  19
ATOM     19  N   UNL     1      34.222 -24.534 -12.193  0.00  0.00    -0.185 NA
ATOM     20  H   UNL     1      33.994 -24.741 -11.220  0.00  0.00    +0.148 HD
BRANCH  19  21
ATOM     21  C   UNL     1      33.207 -23.582 -12.681  0.00  0.00    +0.068 C 
BRANCH  21  22
ATOM     22  C   UNL     1      32.176 -24.331 -13.513  0.00  0.00    -0.058 C 
BRANCH  22  23
ATOM     23  N   UNL     1      30.875 -23.681 -13.410  0.00  0.00    +0.385 N 
ATOM     24  C   UNL     1      30.799 -22.535 -14.318  0.00  0.00    -0.101 C 
ATOM     25  C   UNL     1      29.799 -24.630 -13.701  0.00  0.00    -0.101 C 
ATOM     26  H   UNL     1      30.762 -23.345 -12.454  0.00  0.00    -0.080 HD
ENDBRANCH  22  23
ENDBRANCH  21  22
ENDBRANCH  19  21
ENDBRANCH  16  19
ENDBRANCH  15  16
ENDBRANCH   9  15
ENDBRANCH   1  12
BRANCH   5  27
ATOM     27  O   UNL     1      35.339 -19.368 -20.581  0.00  0.00    -0.427 OA
BRANCH  27  35
ATOM     28  N   UNL     1      33.928 -15.045 -23.644  0.00  0.00    -0.316 N 
ATOM     29  C   UNL     1      34.413 -15.995 -21.685  0.00  0.00    +0.017 C 
ATOM     30  C   UNL     1      34.283 -16.237 -23.054  0.00  0.00    +0.048 C 
ATOM     31  C   UNL     1      33.830 -14.060 -22.698  0.00  0.00    +0.026 C 
ATOM     32  C   UNL     1      34.125 -14.618 -21.475  0.00  0.00    +0.012 C 
ATOM     33  C   UNL     1      34.774 -17.063 -20.839  0.00  0.00    +0.039 C 
ATOM     34  C   UNL     1      34.496 -17.498 -23.622  0.00  0.00    +0.018 C 
ATOM     35  C   UNL     1      34.990 -18.330 -21.392  0.00  0.00    +0.148 C 
ATOM     36  C   UNL     1      34.853 -18.542 -22.763  0.00  0.00    +0.039 C 
ATOM     37  C   UNL     1      33.462 -12.680 -23.064  0.00  0.00    +0.047 C 
ATOM     38  H   UNL     1      33.769 -14.918 -24.607  0.00  0.00    +0.152 HD
ENDBRANCH  27  35
ENDBRANCH   5  27
TORSDOF 9
ENDMDL
MODEL 3
REMARK VINA RESULT:     -12.9      2.775     11.189
REMARK  Name = 52920501
REMARK  9 active torsions:
REMARK  status: ('A' for Active; 'I' for Inactive)
REMARK    1  A    between atoms: N_1  and  C_12
REMARK    2  A    between atoms: C_5  and  O_27
REMARK    3  A    between atoms: C_9  and  C_15
REMARK    4  A    between atoms: C_15  and  S_16
REMARK    5  A    between atoms: S_16  and  N_19
REMARK    6  A    between atoms: N_19  and  C_21
REMARK    7  A    between atoms: C_21  and  C_22
REMARK    8  A    between atoms: C_22  and  N_23
REMARK    9  A    between atoms: O_27  and  C_35
REMARK                            x       y       z     vdW  Elec       q    Type
REMARK                         _______ _______ _______ _____ _____    ______ ____
ROOT
ATOM      1  N   UNL     1      34.621 -20.949 -20.683  0.00  0.00    -0.247 N 
ATOM      2  N   UNL     1      34.613 -18.606 -20.567  0.00  0.00    -0.300 NA
ATOM      3  N   UNL     1      34.621 -19.739 -22.694  0.00  0.00    -0.170 NA
ATOM      4  C   UNL     1      34.618 -19.703 -21.347  0.00  0.00    +0.152 C 
ATOM      5  C   UNL     1      34.611 -17.433 -21.235  0.00  0.00    +0.295 C 
ATOM      6  C   UNL     1      34.613 -17.334 -22.611  0.00  0.00    +0.094 C 
ATOM      7  C   UNL     1      34.619 -18.532 -23.296  0.00  0.00    +0.118 C 
ATOM      8  H   UNL     1      34.624 -21.723 -21.292  0.00  0.00    +0.165 HD
ENDROOT
BRANCH   1  12
ATOM      9  C   UNL     1      35.786 -21.546 -17.220  0.00  0.00    +0.004 C 
ATOM     10  C   UNL     1      35.789 -21.197 -18.570  0.00  0.00    +0.013 C 
ATOM     11  C   UNL     1      34.612 -22.001 -16.620  0.00  0.00    -0.002 C 
ATOM     12  C   UNL     1      34.619 -21.301 -19.321  0.00  0.00    +0.057 C 
ATOM     13  C   UNL     1      33.440 -22.106 -17.370  0.00  0.00    +0.001 C 
ATOM     14  C   UNL     1      33.444 -21.756 -18.721  0.00  0.00    +0.015 C 
BRANCH   9  15
ATOM     15  C   UNL     1      37.038 -21.433 -16.418  0.00  0.00    +0.195 C 
BRANCH  15  16
ATOM     16  S   UNL     1      37.007 -22.694 -15.184  0.00  0.00    +0.045 S 
ATOM     17  O   UNL     1      36.856 -22.063 -13.884  0.00  0.00    -0.157 OA
ATOM     18  O   UNL     1      36.067 -23.717 -15.614  0.00  0.00    -0.157 OA
BRANCH  16  19
ATOM     19  N   UNL     1      38.588 -23.331 -15.328  0.00  0.00    -0.185 NA
ATOM     20  H   UNL     1      39.203 -22.732 -14.777  0.00  0.00    +0.148 HD
BRANCH  19  21
ATOM     21  C   UNL     1      38.841 -24.719 -14.899  0.00  0.00    +0.068 C 
BRANCH  21  22
ATOM     22  C   UNL     1      38.839 -24.783 -13.379  0.00  0.00    -0.058 C 
BRANCH  22  23
ATOM     23  N   UNL     1      37.893 -25.790 -12.916  0.00  0.00    +0.385 N 
ATOM     24  C   UNL     1      36.864 -25.181 -12.071  0.00  0.00    -0.101 C 
ATOM     25  C   UNL     1      37.275 -26.478 -14.051  0.00  0.00    -0.101 C 
ATOM     26  H   UNL     1      38.405 -26.476 -12.360  0.00  0.00    -0.080 HD
ENDBRANCH  22  23
ENDBRANCH  21  22
ENDBRANCH  19  21
ENDBRANCH  16  19
ENDBRANCH  15  16
ENDBRANCH   9  15
ENDBRANCH   1  12
BRANCH   5  27
ATOM     27  O   UNL     1      34.605 -16.275 -20.475  0.00  0.00    -0.427 OA
BRANCH  27  35
ATOM     28  N   UNL     1      32.177 -11.775 -22.452  0.00  0.00    -0.316 N 
ATOM     29  C   UNL     1      32.553 -13.256 -20.827  0.00  0.00    +0.017 C 
ATOM     30  C   UNL     1      32.877 -12.918 -22.143  0.00  0.00    +0.048 C 
ATOM     31  C   UNL     1      31.423 -11.378 -21.380  0.00  0.00    +0.026 C 
ATOM     32  C   UNL     1      31.634 -12.276 -20.359  0.00  0.00    +0.012 C 
ATOM     33  C   UNL     1      33.142 -14.402 -20.256  0.00  0.00    +0.039 C 
ATOM     34  C   UNL     1      33.765 -13.672 -22.919  0.00  0.00    +0.018 C 
ATOM     35  C   UNL     1      34.031 -15.166 -21.021  0.00  0.00    +0.148 C 
ATOM     36  C   UNL     1      34.336 -14.804 -22.331  0.00  0.00    +0.039 C 
ATOM     37  C   UNL     1      30.572 -10.176 -21.444  0.00  0.00    +0.047 C 
ATOM     38  H   UNL     1      32.213 -11.308 -23.318  0.00  0.00    +0.152 HD
ENDBRANCH  27  35
ENDBRANCH   5  27
TORSDOF 9
ENDMDL
MODEL 4
REMARK VINA RESULT:     -12.7      3.541     11.795
REMARK  Name = 52920501
REMARK  9 active torsions:
REMARK  status: ('A' for Active; 'I' for Inactive)
REMARK    1  A    between atoms: N_1  and  C_12
REMARK    2  A    between atoms: C_5  and  O_27
REMARK    3  A    between atoms: C_9  and  C_15
REMARK    4  A    between atoms: C_15  and  S_16
REMARK    5  A    between atoms: S_16  and  N_19
REMARK    6  A    between atoms: N_19  and  C_21
REMARK    7  A    between atoms: C_21  and  C_22
REMARK    8  A    between atoms: C_22  and  N_23
REMARK    9  A    between atoms: O_27  and  C_35
REMARK                            x       y       z     vdW  Elec       q    Type
REMARK                         _______ _______ _______ _____ _____    ______ ____
ROOT
ATOM      1  N   UNL     1      34.105 -18.436 -23.142  0.00  0.00    -0.247 N 
ATOM      2  N   UNL     1      34.152 -16.169 -22.539  0.00  0.00    -0.300 NA
ATOM      3  N   UNL     1      33.582 -16.841 -24.782  0.00  0.00    -0.170 NA
ATOM      4  C   UNL     1      33.938 -17.082 -23.505  0.00  0.00    +0.152 C 
ATOM      5  C   UNL     1      33.984 -14.885 -22.921  0.00  0.00    +0.295 C 
ATOM      6  C   UNL     1      33.621 -14.506 -24.197  0.00  0.00    +0.094 C 
ATOM      7  C   UNL     1      33.432 -15.537 -25.095  0.00  0.00    +0.118 C 
ATOM      8  H   UNL     1      33.939 -19.068 -23.879  0.00  0.00    +0.165 HD
ENDROOT
BRANCH   1  12
ATOM      9  C   UNL     1      33.841 -20.293 -19.951  0.00  0.00    +0.004 C 
ATOM     10  C   UNL     1      33.486 -19.676 -21.149  0.00  0.00    +0.013 C 
ATOM     11  C   UNL     1      35.173 -20.294 -19.534  0.00  0.00    -0.002 C 
ATOM     12  C   UNL     1      34.462 -19.059 -21.932  0.00  0.00    +0.057 C 
ATOM     13  C   UNL     1      36.149 -19.678 -20.316  0.00  0.00    +0.001 C 
ATOM     14  C   UNL     1      35.794 -19.060 -21.516  0.00  0.00    +0.015 C 
BRANCH   9  15
ATOM     15  C   UNL     1      32.798 -20.953 -19.114  0.00  0.00    +0.195 C 
BRANCH  15  16
ATOM     16  S   UNL     1      33.476 -22.455 -18.485  0.00  0.00    +0.045 S 
ATOM     17  O   UNL     1      33.559 -23.415 -19.573  0.00  0.00    -0.157 OA
ATOM     18  O   UNL     1      34.663 -22.121 -17.713  0.00  0.00    -0.157 OA
BRANCH  16  19
ATOM     19  N   UNL     1      32.250 -22.936 -17.393  0.00  0.00    -0.185 NA
ATOM     20  H   UNL     1      31.985 -23.889 -17.643  0.00  0.00    +0.148 HD
BRANCH  19  21
ATOM     21  C   UNL     1      32.539 -22.933 -15.948  0.00  0.00    +0.068 C 
BRANCH  21  22
ATOM     22  C   UNL     1      31.255 -22.659 -15.180  0.00  0.00    -0.058 C 
BRANCH  22  23
ATOM     23  N   UNL     1      30.156 -23.438 -15.738  0.00  0.00    +0.385 N 
ATOM     24  C   UNL     1      29.744 -24.490 -14.806  0.00  0.00    -0.101 C 
ATOM     25  C   UNL     1      29.020 -22.572 -16.060  0.00  0.00    -0.101 C 
ATOM     26  H   UNL     1      30.483 -23.878 -16.598  0.00  0.00    -0.080 HD
ENDBRANCH  22  23
ENDBRANCH  21  22
ENDBRANCH  19  21
ENDBRANCH  16  19
ENDBRANCH  15  16
ENDBRANCH   9  15
ENDBRANCH   1  12
BRANCH   5  27
ATOM     27  O   UNL     1      34.192 -13.910 -21.962  0.00  0.00    -0.427 OA
BRANCH  27  35
ATOM     28  N   UNL     1      30.610  -9.763 -21.780  0.00  0.00    -0.316 N 
ATOM     29  C   UNL     1      32.407 -10.776 -22.628  0.00  0.00    +0.017 C 
ATOM     30  C   UNL     1      31.397 -10.886 -21.670  0.00  0.00    +0.048 C 
ATOM     31  C   UNL     1      31.085  -8.948 -22.771  0.00  0.00    +0.026 C 
ATOM     32  C   UNL     1      32.198  -9.548 -23.315  0.00  0.00    +0.012 C 
ATOM     33  C   UNL     1      33.362 -11.807 -22.729  0.00  0.00    +0.039 C 
ATOM     34  C   UNL     1      31.294 -11.981 -20.804  0.00  0.00    +0.018 C 
ATOM     35  C   UNL     1      33.272 -12.908 -21.870  0.00  0.00    +0.148 C 
ATOM     36  C   UNL     1      32.253 -12.991 -20.923  0.00  0.00    +0.039 C 
ATOM     37  C   UNL     1      30.423  -7.672 -23.098  0.00  0.00    +0.047 C 
ATOM     38  H   UNL     1      29.818  -9.573 -21.226  0.00  0.00    +0.152 HD
ENDBRANCH  27  35
ENDBRANCH   5  27
TORSDOF 9
ENDMDL
MODEL 5
REMARK VINA RESULT:     -12.6      1.597      4.938
REMARK  Name = 52920501
REMARK  9 active torsions:
REMARK  status: ('A' for Active; 'I' for Inactive)
REMARK    1  A    between atoms: N_1  and  C_12
REMARK    2  A    between atoms: C_5  and  O_27
REMARK    3  A    between atoms: C_9  and  C_15
REMARK    4  A    between atoms: C_15  and  S_16
REMARK    5  A    between atoms: S_16  and  N_19
REMARK    6  A    between atoms: N_19  and  C_21
REMARK    7  A    between atoms: C_21  and  C_22
REMARK    8  A    between atoms: C_22  and  N_23
REMARK    9  A    between atoms: O_27  and  C_35
REMARK                            x       y       z     vdW  Elec       q    Type
REMARK                         _______ _______ _______ _____ _____    ______ ____
ROOT
ATOM      1  N   UNL     1      36.078 -21.096 -17.819  0.00  0.00    -0.247 N 
ATOM      2  N   UNL     1      35.083 -22.735 -16.466  0.00  0.00    -0.300 NA
ATOM      3  N   UNL     1      37.328 -21.972 -16.037  0.00  0.00    -0.170 NA
ATOM      4  C   UNL     1      36.167 -21.978 -16.720  0.00  0.00    +0.152 C 
ATOM      5  C   UNL     1      35.203 -23.566 -15.410  0.00  0.00    +0.295 C 
ATOM      6  C   UNL     1      36.338 -23.655 -14.630  0.00  0.00    +0.094 C 
ATOM      7  C   UNL     1      37.379 -22.826 -14.993  0.00  0.00    +0.118 C 
ATOM      8  H   UNL     1      36.892 -20.563 -17.967  0.00  0.00    +0.165 HD
ENDROOT
BRANCH   1  12
ATOM      9  C   UNL     1      34.318 -19.879 -20.841  0.00  0.00    +0.004 C 
ATOM     10  C   UNL     1      35.336 -20.142 -19.924  0.00  0.00    +0.013 C 
ATOM     11  C   UNL     1      33.015 -20.303 -20.577  0.00  0.00    -0.002 C 
ATOM     12  C   UNL     1      35.052 -20.830 -18.744  0.00  0.00    +0.057 C 
ATOM     13  C   UNL     1      32.730 -20.991 -19.397  0.00  0.00    +0.001 C 
ATOM     14  C   UNL     1      33.749 -21.254 -18.481  0.00  0.00    +0.015 C 
BRANCH   9  15
ATOM     15  C   UNL     1      34.623 -19.144 -22.102  0.00  0.00    +0.195 C 
BRANCH  15  16
ATOM     16  S   UNL     1      35.416 -17.629 -21.669  0.00  0.00    +0.045 S 
ATOM     17  O   UNL     1      34.737 -17.067 -20.514  0.00  0.00    -0.157 OA
ATOM     18  O   UNL     1      36.850 -17.871 -21.629  0.00  0.00    -0.157 OA
BRANCH  16  19
ATOM     19  N   UNL     1      35.077 -16.676 -23.049  0.00  0.00    -0.185 NA
ATOM     20  H   UNL     1      34.544 -17.261 -23.692  0.00  0.00    +0.148 HD
BRANCH  19  21
ATOM     21  C   UNL     1      34.322 -15.421 -22.881  0.00  0.00    +0.068 C 
BRANCH  21  22
ATOM     22  C   UNL     1      33.613 -15.084 -24.185  0.00  0.00    -0.058 C 
BRANCH  22  23
ATOM     23  N   UNL     1      32.844 -13.854 -24.038  0.00  0.00    +0.385 N 
ATOM     24  C   UNL     1      33.465 -12.972 -23.048  0.00  0.00    -0.101 C 
ATOM     25  C   UNL     1      32.721 -13.166 -25.324  0.00  0.00    -0.101 C 
ATOM     26  H   UNL     1      31.909 -14.101 -23.711  0.00  0.00    -0.080 HD
ENDBRANCH  22  23
ENDBRANCH  21  22
ENDBRANCH  19  21
ENDBRANCH  16  19
ENDBRANCH  15  16
ENDBRANCH   9  15
ENDBRANCH   1  12
BRANCH   5  27
ATOM     27  O   UNL     1      34.114 -24.365 -15.109  0.00  0.00    -0.427 OA
BRANCH  27  35
ATOM     28  N   UNL     1      29.244 -21.945 -14.410  0.00  0.00    -0.316 N 
ATOM     29  C   UNL     1      30.705 -23.115 -15.625  0.00  0.00    +0.017 C 
ATOM     30  C   UNL     1      30.509 -22.486 -14.393  0.00  0.00    +0.048 C 
ATOM     31  C   UNL     1      28.634 -22.208 -15.607  0.00  0.00    +0.026 C 
ATOM     32  C   UNL     1      29.514 -22.931 -16.381  0.00  0.00    +0.012 C 
ATOM     33  C   UNL     1      31.935 -23.756 -15.871  0.00  0.00    +0.039 C 
ATOM     34  C   UNL     1      31.486 -22.468 -13.391  0.00  0.00    +0.018 C 
ATOM     35  C   UNL     1      32.921 -23.746 -14.878  0.00  0.00    +0.148 C 
ATOM     36  C   UNL     1      32.698 -23.111 -13.658  0.00  0.00    +0.039 C 
ATOM     37  C   UNL     1      27.265 -21.739 -15.890  0.00  0.00    +0.047 C 
ATOM     38  H   UNL     1      28.835 -21.442 -13.669  0.00  0.00    +0.152 HD
ENDBRANCH  27  35
ENDBRANCH   5  27
TORSDOF 9
ENDMDL
MODEL 6
REMARK VINA RESULT:     -12.3      3.094     12.250
REMARK  Name = 52920501
REMARK  9 active torsions:
REMARK  status: ('A' for Active; 'I' for Inactive)
REMARK    1  A    between atoms: N_1  and  C_12
REMARK    2  A    between atoms: C_5  and  O_27
REMARK    3  A    between atoms: C_9  and  C_15
REMARK    4  A    between atoms: C_15  and  S_16
REMARK    5  A    between atoms: S_16  and  N_19
REMARK    6  A    between atoms: N_19  and  C_21
REMARK    7  A    between atoms: C_21  and  C_22
REMARK    8  A    between atoms: C_22  and  N_23
REMARK    9  A    between atoms: O_27  and  C_35
REMARK                            x       y       z     vdW  Elec       q    Type
REMARK                         _______ _______ _______ _____ _____    ______ ____
ROOT
ATOM      1  N   UNL     1      34.210 -17.586 -23.615  0.00  0.00    -0.247 N 
ATOM      2  N   UNL     1      33.948 -15.406 -22.787  0.00  0.00    -0.300 NA
ATOM      3  N   UNL     1      33.481 -15.918 -25.096  0.00  0.00    -0.170 NA
ATOM      4  C   UNL     1      33.862 -16.237 -23.844  0.00  0.00    +0.152 C 
ATOM      5  C   UNL     1      33.609 -14.125 -23.042  0.00  0.00    +0.295 C 
ATOM      6  C   UNL     1      33.202 -13.671 -24.279  0.00  0.00    +0.094 C 
ATOM      7  C   UNL     1      33.156 -14.622 -25.279  0.00  0.00    +0.118 C 
ATOM      8  H   UNL     1      34.133 -18.157 -24.414  0.00  0.00    +0.165 HD
ENDROOT
BRANCH   1  12
ATOM      9  C   UNL     1      34.166 -19.687 -20.567  0.00  0.00    +0.004 C 
ATOM     10  C   UNL     1      33.734 -19.005 -21.704  0.00  0.00    +0.013 C 
ATOM     11  C   UNL     1      35.509 -19.640 -20.193  0.00  0.00    -0.002 C 
ATOM     12  C   UNL     1      34.645 -18.276 -22.468  0.00  0.00    +0.057 C 
ATOM     13  C   UNL     1      36.421 -18.911 -20.957  0.00  0.00    +0.001 C 
ATOM     14  C   UNL     1      35.988 -18.229 -22.094  0.00  0.00    +0.015 C 
BRANCH   9  15
ATOM     15  C   UNL     1      33.192 -20.468 -19.751  0.00  0.00    +0.195 C 
BRANCH  15  16
ATOM     16  S   UNL     1      34.079 -21.749 -18.925  0.00  0.00    +0.045 S 
ATOM     17  O   UNL     1      34.132 -22.910 -19.798  0.00  0.00    -0.157 OA
ATOM     18  O   UNL     1      35.307 -21.174 -18.397  0.00  0.00    -0.157 OA
BRANCH  16  19
ATOM     19  N   UNL     1      33.037 -22.074 -17.608  0.00  0.00    -0.185 NA
ATOM     20  H   UNL     1      32.123 -22.304 -18.000  0.00  0.00    +0.148 HD
BRANCH  19  21
ATOM     21  C   UNL     1      33.388 -23.154 -16.669  0.00  0.00    +0.068 C 
BRANCH  21  22
ATOM     22  C   UNL     1      34.232 -22.582 -15.539  0.00  0.00    -0.058 C 
BRANCH  22  23
ATOM     23  N   UNL     1      35.450 -23.365 -15.372  0.00  0.00    +0.385 N 
ATOM     24  C   UNL     1      36.572 -22.500 -15.001  0.00  0.00    -0.101 C 
ATOM     25  C   UNL     1      35.259 -24.408 -14.362  0.00  0.00    -0.101 C 
ATOM     26  H   UNL     1      35.665 -23.812 -16.263  0.00  0.00    -0.080 HD
ENDBRANCH  22  23
ENDBRANCH  21  22
ENDBRANCH  19  21
ENDBRANCH  16  19
ENDBRANCH  15  16
ENDBRANCH   9  15
ENDBRANCH   1  12
BRANCH   5  27
ATOM     27  O   UNL     1      33.680 -13.233 -21.986  0.00  0.00    -0.427 OA
BRANCH  27  35
ATOM     28  N   UNL     1      30.347  -8.884 -22.184  0.00  0.00    -0.316 N 
ATOM     29  C   UNL     1      32.151 -10.014 -22.853  0.00  0.00    +0.017 C 
ATOM     30  C   UNL     1      31.054 -10.049 -21.989  0.00  0.00    +0.048 C 
ATOM     31  C   UNL     1      30.956  -8.116 -23.139  0.00  0.00    +0.026 C 
ATOM     32  C   UNL     1      32.076  -8.789 -23.572  0.00  0.00    +0.012 C 
ATOM     33  C   UNL     1      33.048 -11.100 -22.853  0.00  0.00    +0.039 C 
ATOM     34  C   UNL     1      30.809 -11.120 -21.122  0.00  0.00    +0.018 C 
ATOM     35  C   UNL     1      32.816 -12.178 -21.992  0.00  0.00    +0.148 C 
ATOM     36  C   UNL     1      31.713 -12.186 -21.140  0.00  0.00    +0.039 C 
ATOM     37  C   UNL     1      30.403  -6.810 -23.541  0.00  0.00    +0.047 C 
ATOM     38  H   UNL     1      29.521  -8.639 -21.707  0.00  0.00    +0.152 HD
ENDBRANCH  27  35
ENDBRANCH   5  27
TORSDOF 9
ENDMDL
MODEL 7
REMARK VINA RESULT:     -12.1      3.166     10.798
REMARK  Name = 52920501
REMARK  9 active torsions:
REMARK  status: ('A' for Active; 'I' for Inactive)
REMARK    1  A    between atoms: N_1  and  C_12
REMARK    2  A    between atoms: C_5  and  O_27
REMARK    3  A    between atoms: C_9  and  C_15
REMARK    4  A    between atoms: C_15  and  S_16
REMARK    5  A    between atoms: S_16  and  N_19
REMARK    6  A    between atoms: N_19  and  C_21
REMARK    7  A    between atoms: C_21  and  C_22
REMARK    8  A    between atoms: C_22  and  N_23
REMARK    9  A    between atoms: O_27  and  C_35
REMARK                            x       y       z     vdW  Elec       q    Type
REMARK                         _______ _______ _______ _____ _____    ______ ____
ROOT
ATOM      1  N   UNL     1      34.724 -20.877 -20.594  0.00  0.00    -0.247 N 
ATOM      2  N   UNL     1      34.697 -18.531 -20.593  0.00  0.00    -0.300 NA
ATOM      3  N   UNL     1      34.271 -19.773 -22.614  0.00  0.00    -0.170 NA
ATOM      4  C   UNL     1      34.555 -19.667 -21.302  0.00  0.00    +0.152 C 
ATOM      5  C   UNL     1      34.530 -17.394 -21.301  0.00  0.00    +0.295 C 
ATOM      6  C   UNL     1      34.236 -17.366 -22.649  0.00  0.00    +0.094 C 
ATOM      7  C   UNL     1      34.117 -18.598 -23.260  0.00  0.00    +0.118 C 
ATOM      8  H   UNL     1      34.611 -21.681 -21.151  0.00  0.00    +0.165 HD
ENDROOT
BRANCH   1  12
ATOM      9  C   UNL     1      34.409 -22.157 -17.134  0.00  0.00    +0.004 C 
ATOM     10  C   UNL     1      34.114 -21.878 -18.468  0.00  0.00    +0.013 C 
ATOM     11  C   UNL     1      35.609 -21.714 -16.577  0.00  0.00    -0.002 C 
ATOM     12  C   UNL     1      35.020 -21.158 -19.247  0.00  0.00    +0.057 C 
ATOM     13  C   UNL     1      36.515 -20.993 -17.356  0.00  0.00    +0.001 C 
ATOM     14  C   UNL     1      36.220 -20.715 -18.691  0.00  0.00    +0.015 C 
BRANCH   9  15
ATOM     15  C   UNL     1      33.440 -22.927 -16.302  0.00  0.00    +0.195 C 
BRANCH  15  16
ATOM     16  S   UNL     1      34.337 -23.675 -14.979  0.00  0.00    +0.045 S 
ATOM     17  O   UNL     1      35.073 -24.812 -15.506  0.00  0.00    -0.157 OA
ATOM     18  O   UNL     1      35.036 -22.621 -14.260  0.00  0.00    -0.157 OA
BRANCH  16  19
ATOM     19  N   UNL     1      33.057 -24.233 -13.991  0.00  0.00    -0.185 NA
ATOM     20  H   UNL     1      33.422 -24.302 -13.040  0.00  0.00    +0.148 HD
BRANCH  19  21
ATOM     21  C   UNL     1      31.814 -23.445 -13.919  0.00  0.00    +0.068 C 
BRANCH  21  22
ATOM     22  C   UNL     1      30.638 -24.324 -14.320  0.00  0.00    -0.058 C 
BRANCH  22  23
ATOM     23  N   UNL     1      29.489 -23.500 -14.676  0.00  0.00    +0.385 N 
ATOM     24  C   UNL     1      29.837 -22.565 -15.748  0.00  0.00    -0.101 C 
ATOM     25  C   UNL     1      28.358 -24.337 -15.080  0.00  0.00    -0.101 C 
ATOM     26  H   UNL     1      29.217 -22.962 -13.853  0.00  0.00    -0.080 HD
ENDBRANCH  22  23
ENDBRANCH  21  22
ENDBRANCH  19  21
ENDBRANCH  16  19
ENDBRANCH  15  16
ENDBRANCH   9  15
ENDBRANCH   1  12
BRANCH   5  27
ATOM     27  O   UNL     1      34.665 -16.199 -20.616  0.00  0.00    -0.427 OA
BRANCH  27  35
ATOM     28  N   UNL     1      32.114 -11.732 -22.512  0.00  0.00    -0.316 N 
ATOM     29  C   UNL     1      32.568 -13.204 -20.899  0.00  0.00    +0.017 C 
ATOM     30  C   UNL     1      32.839 -12.866 -22.227  0.00  0.00    +0.048 C 
ATOM     31  C   UNL     1      31.396 -11.341 -21.415  0.00  0.00    +0.026 C 
ATOM     32  C   UNL     1      31.656 -12.233 -20.399  0.00  0.00    +0.012 C 
ATOM     33  C   UNL     1      33.190 -14.341 -20.347  0.00  0.00    +0.039 C 
ATOM     34  C   UNL     1      33.705 -13.613 -23.033  0.00  0.00    +0.018 C 
ATOM     35  C   UNL     1      34.059 -15.097 -21.142  0.00  0.00    +0.148 C 
ATOM     36  C   UNL     1      34.311 -14.737 -22.465  0.00  0.00    +0.039 C 
ATOM     37  C   UNL     1      30.530 -10.148 -21.450  0.00  0.00    +0.047 C 
ATOM     38  H   UNL     1      32.113 -11.267 -23.381  0.00  0.00    +0.152 HD
ENDBRANCH  27  35
ENDBRANCH   5  27
TORSDOF 9
ENDMDL
MODEL 8
REMARK VINA RESULT:     -11.7      1.594      4.570
REMARK  Name = 52920501
REMARK  9 active torsions:
REMARK  status: ('A' for Active; 'I' for Inactive)
REMARK    1  A    between atoms: N_1  and  C_12
REMARK    2  A    between atoms: C_5  and  O_27
REMARK    3  A    between atoms: C_9  and  C_15
REMARK    4  A    between atoms: C_15  and  S_16
REMARK    5  A    between atoms: S_16  and  N_19
REMARK    6  A    between atoms: N_19  and  C_21
REMARK    7  A    between atoms: C_21  and  C_22
REMARK    8  A    between atoms: C_22  and  N_23
REMARK    9  A    between atoms: O_27  and  C_35
REMARK                            x       y       z     vdW  Elec       q    Type
REMARK                         _______ _______ _______ _____ _____    ______ ____
ROOT
ATOM      1  N   UNL     1      36.088 -21.411 -18.434  0.00  0.00    -0.247 N 
ATOM      2  N   UNL     1      35.199 -21.715 -16.284  0.00  0.00    -0.300 NA
ATOM      3  N   UNL     1      37.508 -22.225 -16.752  0.00  0.00    -0.170 NA
ATOM      4  C   UNL     1      36.274 -21.803 -17.090  0.00  0.00    +0.152 C 
ATOM      5  C   UNL     1      35.412 -22.098 -15.008  0.00  0.00    +0.295 C 
ATOM      6  C   UNL     1      36.627 -22.549 -14.535  0.00  0.00    +0.094 C 
ATOM      7  C   UNL     1      37.649 -22.592 -15.461  0.00  0.00    +0.118 C 
ATOM      8  H   UNL     1      36.899 -21.491 -18.986  0.00  0.00    +0.165 HD
ENDROOT
BRANCH   1  12
ATOM      9  C   UNL     1      34.038 -19.624 -20.947  0.00  0.00    +0.004 C 
ATOM     10  C   UNL     1      35.147 -20.104 -20.250  0.00  0.00    +0.013 C 
ATOM     11  C   UNL     1      32.751 -19.968 -20.531  0.00  0.00    -0.002 C 
ATOM     12  C   UNL     1      34.970 -20.927 -19.138  0.00  0.00    +0.057 C 
ATOM     13  C   UNL     1      32.573 -20.791 -19.419  0.00  0.00    +0.001 C 
ATOM     14  C   UNL     1      33.683 -21.270 -18.722  0.00  0.00    +0.015 C 
BRANCH   9  15
ATOM     15  C   UNL     1      34.228 -18.745 -22.136  0.00  0.00    +0.195 C 
BRANCH  15  16
ATOM     16  S   UNL     1      35.371 -17.476 -21.695  0.00  0.00    +0.045 S 
ATOM     17  O   UNL     1      34.922 -16.861 -20.457  0.00  0.00    -0.157 OA
ATOM     18  O   UNL     1      36.713 -18.028 -21.792  0.00  0.00    -0.157 OA
BRANCH  16  19
ATOM     19  N   UNL     1      35.155 -16.377 -22.988  0.00  0.00    -0.185 NA
ATOM     20  H   UNL     1      34.908 -16.927 -23.810  0.00  0.00    +0.148 HD
BRANCH  19  21
ATOM     21  C   UNL     1      34.140 -15.315 -22.860  0.00  0.00    +0.068 C 
BRANCH  21  22
ATOM     22  C   UNL     1      33.461 -15.105 -24.205  0.00  0.00    -0.058 C 
BRANCH  22  23
ATOM     23  N   UNL     1      32.725 -13.846 -24.209  0.00  0.00    +0.385 N 
ATOM     24  C   UNL     1      33.309 -12.905 -23.251  0.00  0.00    -0.101 C 
ATOM     25  C   UNL     1      32.711 -13.261 -25.551  0.00  0.00    -0.101 C 
ATOM     26  H   UNL     1      31.764 -14.039 -23.929  0.00  0.00    -0.080 HD
ENDBRANCH  22  23
ENDBRANCH  21  22
ENDBRANCH  19  21
ENDBRANCH  16  19
ENDBRANCH  15  16
ENDBRANCH   9  15
ENDBRANCH   1  12
BRANCH   5  27
ATOM     27  O   UNL     1      34.337 -22.025 -14.139  0.00  0.00    -0.427 OA
BRANCH  27  35
ATOM     28  N   UNL     1      29.615 -24.473 -15.471  0.00  0.00    -0.316 N 
ATOM     29  C   UNL     1      31.212 -23.940 -14.007  0.00  0.00    +0.017 C 
ATOM     30  C   UNL     1      30.806 -23.797 -15.336  0.00  0.00    +0.048 C 
ATOM     31  C   UNL     1      29.254 -25.037 -14.277  0.00  0.00    +0.026 C 
ATOM     32  C   UNL     1      30.223 -24.725 -13.351  0.00  0.00    +0.012 C 
ATOM     33  C   UNL     1      32.417 -23.336 -13.597  0.00  0.00    +0.039 C 
ATOM     34  C   UNL     1      31.548 -23.076 -16.278  0.00  0.00    +0.018 C 
ATOM     35  C   UNL     1      33.170 -22.612 -14.528  0.00  0.00    +0.148 C 
ATOM     36  C   UNL     1      32.740 -22.486 -15.848  0.00  0.00    +0.039 C 
ATOM     37  C   UNL     1      28.013 -25.822 -14.145  0.00  0.00    +0.047 C 
ATOM     38  H   UNL     1      29.096 -24.540 -16.305  0.00  0.00    +0.152 HD
ENDBRANCH  27  35
ENDBRANCH   5  27
TORSDOF 9
ENDMDL
MODEL 9
REMARK VINA RESULT:     -11.4      4.032      8.187
REMARK  Name = 52920501
REMARK  9 active torsions:
REMARK  status: ('A' for Active; 'I' for Inactive)
REMARK    1  A    between atoms: N_1  and  C_12
REMARK    2  A    between atoms: C_5  and  O_27
REMARK    3  A    between atoms: C_9  and  C_15
REMARK    4  A    between atoms: C_15  and  S_16
REMARK    5  A    between atoms: S_16  and  N_19
REMARK    6  A    between atoms: N_19  and  C_21
REMARK    7  A    between atoms: C_21  and  C_22
REMARK    8  A    between atoms: C_22  and  N_23
REMARK    9  A    between atoms: O_27  and  C_35
REMARK                            x       y       z     vdW  Elec       q    Type
REMARK                         _______ _______ _______ _____ _____    ______ ____
ROOT
ATOM      1  N   UNL     1      33.221 -15.459 -24.024  0.00  0.00    -0.247 N 
ATOM      2  N   UNL     1      34.217 -17.169 -22.763  0.00  0.00    -0.300 NA
ATOM      3  N   UNL     1      33.370 -17.597 -24.979  0.00  0.00    -0.170 NA
ATOM      4  C   UNL     1      33.623 -16.808 -23.916  0.00  0.00    +0.152 C 
ATOM      5  C   UNL     1      34.587 -18.465 -22.695  0.00  0.00    +0.295 C 
ATOM      6  C   UNL     1      34.386 -19.375 -23.712  0.00  0.00    +0.094 C 
ATOM      7  C   UNL     1      33.767 -18.880 -24.842  0.00  0.00    +0.118 C 
ATOM      8  H   UNL     1      32.792 -15.240 -24.883  0.00  0.00    +0.165 HD
ENDROOT
BRANCH   1  12
ATOM      9  C   UNL     1      32.996 -12.015 -22.683  0.00  0.00    +0.004 C 
ATOM     10  C   UNL     1      32.902 -13.099 -23.556  0.00  0.00    +0.013 C 
ATOM     11  C   UNL     1      33.503 -12.198 -21.397  0.00  0.00    -0.002 C 
ATOM     12  C   UNL     1      33.315 -14.365 -23.143  0.00  0.00    +0.057 C 
ATOM     13  C   UNL     1      33.916 -13.465 -20.983  0.00  0.00    +0.001 C 
ATOM     14  C   UNL     1      33.822 -14.548 -21.857  0.00  0.00    +0.015 C 
BRANCH   9  15
ATOM     15  C   UNL     1      32.554 -10.661 -23.125  0.00  0.00    +0.195 C 
BRANCH  15  16
ATOM     16  S   UNL     1      31.344 -10.085 -21.978  0.00  0.00    +0.045 S 
ATOM     17  O   UNL     1      30.472 -11.195 -21.631  0.00  0.00    -0.157 OA
ATOM     18  O   UNL     1      32.034  -9.343 -20.934  0.00  0.00    -0.157 OA
BRANCH  16  19
ATOM     19  N   UNL     1      30.484  -8.966 -22.944  0.00  0.00    -0.185 NA
ATOM     20  H   UNL     1      29.628  -8.731 -22.440  0.00  0.00    +0.148 HD
BRANCH  19  21
ATOM     21  C   UNL     1      31.131  -7.693 -23.311  0.00  0.00    +0.068 C 
BRANCH  21  22
ATOM     22  C   UNL     1      30.732  -6.620 -22.308  0.00  0.00    -0.058 C 
BRANCH  22  23
ATOM     23  N   UNL     1      31.841  -6.334 -21.406  0.00  0.00    +0.385 N 
ATOM     24  C   UNL     1      33.032  -5.942 -22.161  0.00  0.00    -0.101 C 
ATOM     25  C   UNL     1      31.475  -5.282 -20.455  0.00  0.00    -0.101 C 
ATOM     26  H   UNL     1      32.053  -7.184 -20.883  0.00  0.00    -0.080 HD
ENDBRANCH  22  23
ENDBRANCH  21  22
ENDBRANCH  19  21
ENDBRANCH  16  19
ENDBRANCH  15  16
ENDBRANCH   9  15
ENDBRANCH   1  12
BRANCH   5  27
ATOM     27  O   UNL     1      35.203 -18.884 -21.528  0.00  0.00    -0.427 OA
BRANCH  27  35
ATOM     28  N   UNL     1      32.486 -22.042 -17.965  0.00  0.00    -0.316 N 
ATOM     29  C   UNL     1      34.370 -21.191 -18.802  0.00  0.00    +0.017 C 
ATOM     30  C   UNL     1      32.980 -21.203 -18.936  0.00  0.00    +0.048 C 
ATOM     31  C   UNL     1      33.511 -22.561 -17.221  0.00  0.00    +0.026 C 
ATOM     32  C   UNL     1      34.691 -22.052 -17.716  0.00  0.00    +0.012 C 
ATOM     33  C   UNL     1      35.131 -20.400 -19.685  0.00  0.00    +0.039 C 
ATOM     34  C   UNL     1      32.310 -20.460 -19.915  0.00  0.00    +0.018 C 
ATOM     35  C   UNL     1      34.474 -19.652 -20.669  0.00  0.00    +0.148 C 
ATOM     36  C   UNL     1      33.086 -19.683 -20.781  0.00  0.00    +0.039 C 
ATOM     37  C   UNL     1      33.257 -23.495 -16.110  0.00  0.00    +0.047 C 
ATOM     38  H   UNL     1      31.532 -22.241 -17.823  0.00  0.00    +0.152 HD
ENDBRANCH  27  35
ENDBRANCH   5  27
TORSDOF 9
ENDMDL
