MODEL 1
REMARK VINA RESULT:     -12.2      0.000      0.000
REMARK  Name = 6914633
REMARK  5 active torsions:
REMARK  status: ('A' for Active; 'I' for Inactive)
REMARK    1  A    between atoms: C_1  and  C_11
REMARK    2  A    between atoms: C_2  and  N_21
REMARK    3  A    between atoms: C_12  and  C_19
REMARK    4  A    between atoms: N_21  and  C_23
REMARK    5  A    between atoms: C_23  and  C_26
REMARK                            x       y       z     vdW  Elec       q    Type
REMARK                         _______ _______ _______ _____ _____    ______ ____
ROOT
ATOM      1  C   UNL     1      34.619 -18.348 -21.711  0.00  0.00    -0.008 C 
ATOM      2  C   UNL     1      35.405 -20.241 -19.820  0.00  0.00    +0.045 C 
ATOM      3  C   UNL     1      33.678 -19.225 -21.170  0.00  0.00    -0.002 C 
ATOM      4  C   UNL     1      35.951 -18.416 -21.307  0.00  0.00    -0.002 C 
ATOM      5  C   UNL     1      34.071 -20.171 -20.224  0.00  0.00    +0.014 C 
ATOM      6  C   UNL     1      36.344 -19.364 -20.361  0.00  0.00    +0.014 C 
ENDROOT
BRANCH   1  11
ATOM      7  N   UNL     1      33.699 -15.078 -23.250  0.00  0.00    -0.337 NA
ATOM      8  N   UNL     1      33.546 -16.795 -24.935  0.00  0.00    -0.317 NA
ATOM      9  N   UNL     1      34.044 -19.045 -24.407  0.00  0.00    -0.335 N 
ATOM     10  N   UNL     1      33.055 -14.558 -25.445  0.00  0.00    -0.283 N 
ATOM     11  C   UNL     1      34.210 -17.365 -22.690  0.00  0.00    +0.138 C 
ATOM     12  C   UNL     1      34.076 -16.028 -22.370  0.00  0.00    +0.112 C 
ATOM     13  C   UNL     1      33.928 -17.691 -24.002  0.00  0.00    +0.178 C 
ATOM     14  C   UNL     1      33.453 -15.524 -24.497  0.00  0.00    +0.196 C 
ATOM     15  H   UNL     1      33.847 -19.299 -25.338  0.00  0.00    +0.144 HD
ATOM     16  H   UNL     1      34.320 -19.731 -23.758  0.00  0.00    +0.144 HD
ATOM     17  H   UNL     1      32.971 -13.612 -25.180  0.00  0.00    +0.156 HD
ATOM     18  H   UNL     1      32.863 -14.828 -26.372  0.00  0.00    +0.156 HD
BRANCH  12  19
ATOM     19  C   UNL     1      34.351 -15.540 -20.984  0.00  0.00    +0.056 C 
ATOM     20  C   UNL     1      33.772 -14.150 -20.736  0.00  0.00    +0.008 C 
ENDBRANCH  12  19
ENDBRANCH   1  11
BRANCH   2  21
ATOM     21  N   UNL     1      35.803 -21.198 -18.864  0.00  0.00    -0.329 N 
ATOM     22  H   UNL     1      35.636 -22.150 -19.052  0.00  0.00    +0.147 HD
BRANCH  21  23
ATOM     23  C   UNL     1      36.441 -20.848 -17.632  0.00  0.00    +0.114 C 
BRANCH  23  26
ATOM     24  F   UNL     1      38.006 -23.775 -14.072  0.00  0.00    -0.204 F 
ATOM     25  F   UNL     1      33.386 -23.676 -15.108  0.00  0.00    -0.204 F 
ATOM     26  C   UNL     1      36.177 -21.866 -16.555  0.00  0.00    +0.002 C 
ATOM     27  C   UNL     1      34.880 -22.303 -16.331  0.00  0.00    +0.027 C 
ATOM     28  C   UNL     1      37.236 -22.354 -15.802  0.00  0.00    +0.027 C 
ATOM     29  C   UNL     1      36.992 -23.298 -14.804  0.00  0.00    +0.142 C 
ATOM     30  C   UNL     1      34.635 -23.247 -15.333  0.00  0.00    +0.142 C 
ATOM     31  C   UNL     1      35.692 -23.745 -14.570  0.00  0.00    +0.059 C 
ENDBRANCH  23  26
ENDBRANCH  21  23
ENDBRANCH   2  21
TORSDOF 5
ENDMDL
MODEL 2
REMARK VINA RESULT:     -12.2      0.064      1.620
REMARK  Name = 6914633
REMARK  5 active torsions:
REMARK  status: ('A' for Active; 'I' for Inactive)
REMARK    1  A    between atoms: C_1  and  C_11
REMARK    2  A    between atoms: C_2  and  N_21
REMARK    3  A    between atoms: C_12  and  C_19
REMARK    4  A    between atoms: N_21  and  C_23
REMARK    5  A    between atoms: C_23  and  C_26
REMARK                            x       y       z     vdW  Elec       q    Type
REMARK                         _______ _______ _______ _____ _____    ______ ____
ROOT
ATOM      1  C   UNL     1      34.613 -18.345 -21.715  0.00  0.00    -0.008 C 
ATOM      2  C   UNL     1      35.379 -20.253 -19.830  0.00  0.00    +0.045 C 
ATOM      3  C   UNL     1      33.663 -19.215 -21.178  0.00  0.00    -0.002 C 
ATOM      4  C   UNL     1      35.944 -18.428 -21.310  0.00  0.00    -0.002 C 
ATOM      5  C   UNL     1      34.046 -20.168 -20.235  0.00  0.00    +0.014 C 
ATOM      6  C   UNL     1      36.328 -19.383 -20.367  0.00  0.00    +0.014 C 
ENDROOT
BRANCH   1  11
ATOM      7  N   UNL     1      33.717 -15.061 -23.239  0.00  0.00    -0.337 NA
ATOM      8  N   UNL     1      33.567 -16.767 -24.936  0.00  0.00    -0.317 NA
ATOM      9  N   UNL     1      34.052 -19.023 -24.419  0.00  0.00    -0.335 N 
ATOM     10  N   UNL     1      33.090 -14.525 -25.436  0.00  0.00    -0.283 N 
ATOM     11  C   UNL     1      34.215 -17.354 -22.691  0.00  0.00    +0.138 C 
ATOM     12  C   UNL     1      34.085 -16.019 -22.362  0.00  0.00    +0.112 C 
ATOM     13  C   UNL     1      33.940 -17.671 -24.006  0.00  0.00    +0.178 C 
ATOM     14  C   UNL     1      33.477 -15.499 -24.490  0.00  0.00    +0.196 C 
ATOM     15  H   UNL     1      33.861 -19.270 -25.352  0.00  0.00    +0.144 HD
ATOM     16  H   UNL     1      34.322 -19.714 -23.772  0.00  0.00    +0.144 HD
ATOM     17  H   UNL     1      33.008 -13.581 -25.165  0.00  0.00    +0.156 HD
ATOM     18  H   UNL     1      32.902 -14.789 -26.366  0.00  0.00    +0.156 HD
BRANCH  12  19
ATOM     19  C   UNL     1      34.352 -15.541 -20.972  0.00  0.00    +0.056 C 
ATOM     20  C   UNL     1      33.800 -14.139 -20.727  0.00  0.00    +0.008 C 
ENDBRANCH  12  19
ENDBRANCH   1  11
BRANCH   2  21
ATOM     21  N   UNL     1      35.767 -21.218 -18.877  0.00  0.00    -0.329 N 
ATOM     22  H   UNL     1      35.576 -22.166 -19.062  0.00  0.00    +0.147 HD
BRANCH  21  23
ATOM     23  C   UNL     1      36.427 -20.880 -17.654  0.00  0.00    +0.114 C 
BRANCH  23  26
ATOM     24  F   UNL     1      33.303 -23.676 -15.181  0.00  0.00    -0.204 F 
ATOM     25  F   UNL     1      37.881 -23.712 -13.970  0.00  0.00    -0.204 F 
ATOM     26  C   UNL     1      36.131 -21.877 -16.565  0.00  0.00    +0.002 C 
ATOM     27  C   UNL     1      37.164 -22.338 -15.761  0.00  0.00    +0.027 C 
ATOM     28  C   UNL     1      34.830 -22.319 -16.378  0.00  0.00    +0.027 C 
ATOM     29  C   UNL     1      34.555 -23.242 -15.369  0.00  0.00    +0.142 C 
ATOM     30  C   UNL     1      36.891 -23.260 -14.751  0.00  0.00    +0.142 C 
ATOM     31  C   UNL     1      35.586 -23.712 -14.555  0.00  0.00    +0.059 C 
ENDBRANCH  23  26
ENDBRANCH  21  23
ENDBRANCH   2  21
TORSDOF 5
ENDMDL
MODEL 3
REMARK VINA RESULT:     -11.8      4.143      9.171
REMARK  Name = 6914633
REMARK  5 active torsions:
REMARK  status: ('A' for Active; 'I' for Inactive)
REMARK    1  A    between atoms: C_1  and  C_11
REMARK    2  A    between atoms: C_2  and  N_21
REMARK    3  A    between atoms: C_12  and  C_19
REMARK    4  A    between atoms: N_21  and  C_23
REMARK    5  A    between atoms: C_23  and  C_26
REMARK                            x       y       z     vdW  Elec       q    Type
REMARK                         _______ _______ _______ _____ _____    ______ ____
ROOT
ATOM      1  C   UNL     1      33.937 -21.355 -18.560  0.00  0.00    -0.008 C 
ATOM      2  C   UNL     1      33.937 -19.860 -20.915  0.00  0.00    +0.045 C 
ATOM      3  C   UNL     1      32.729 -20.936 -19.120  0.00  0.00    -0.002 C 
ATOM      4  C   UNL     1      35.143 -21.027 -19.177  0.00  0.00    -0.002 C 
ATOM      5  C   UNL     1      32.730 -20.189 -20.298  0.00  0.00    +0.014 C 
ATOM      6  C   UNL     1      35.143 -20.279 -20.355  0.00  0.00    +0.014 C 
ENDROOT
BRANCH   1  11
ATOM      7  N   UNL     1      35.127 -23.024 -15.445  0.00  0.00    -0.337 NA
ATOM      8  N   UNL     1      32.774 -23.477 -15.714  0.00  0.00    -0.317 NA
ATOM      9  N   UNL     1      31.587 -22.611 -17.566  0.00  0.00    -0.335 N 
ATOM     10  N   UNL     1      33.965 -24.329 -13.880  0.00  0.00    -0.283 N 
ATOM     11  C   UNL     1      33.936 -22.132 -17.340  0.00  0.00    +0.138 C 
ATOM     12  C   UNL     1      35.081 -22.308 -16.588  0.00  0.00    +0.112 C 
ATOM     13  C   UNL     1      32.802 -22.747 -16.848  0.00  0.00    +0.178 C 
ATOM     14  C   UNL     1      33.955 -23.573 -15.071  0.00  0.00    +0.196 C 
ATOM     15  H   UNL     1      30.767 -23.042 -17.232  0.00  0.00    +0.144 HD
ATOM     16  H   UNL     1      31.564 -22.086 -18.398  0.00  0.00    +0.144 HD
ATOM     17  H   UNL     1      34.800 -24.432 -13.369  0.00  0.00    +0.156 HD
ATOM     18  H   UNL     1      33.136 -24.753 -13.559  0.00  0.00    +0.156 HD
BRANCH  12  19
ATOM     19  C   UNL     1      36.378 -21.696 -17.009  0.00  0.00    +0.056 C 
ATOM     20  C   UNL     1      37.523 -22.067 -16.071  0.00  0.00    +0.008 C 
ENDBRANCH  12  19
ENDBRANCH   1  11
BRANCH   2  21
ATOM     21  N   UNL     1      33.938 -19.103 -22.105  0.00  0.00    -0.329 N 
ATOM     22  H   UNL     1      33.167 -19.179 -22.712  0.00  0.00    +0.147 HD
BRANCH  21  23
ATOM     23  C   UNL     1      35.010 -18.229 -22.470  0.00  0.00    +0.114 C 
BRANCH  23  26
ATOM     24  F   UNL     1      34.003 -13.834 -20.635  0.00  0.00    -0.204 F 
ATOM     25  F   UNL     1      33.366 -14.598 -25.265  0.00  0.00    -0.204 F 
ATOM     26  C   UNL     1      34.542 -16.809 -22.640  0.00  0.00    +0.002 C 
ATOM     27  C   UNL     1      34.166 -16.359 -23.898  0.00  0.00    +0.027 C 
ATOM     28  C   UNL     1      34.491 -15.969 -21.536  0.00  0.00    +0.027 C 
ATOM     29  C   UNL     1      34.056 -14.653 -21.693  0.00  0.00    +0.142 C 
ATOM     30  C   UNL     1      33.731 -15.043 -24.055  0.00  0.00    +0.142 C 
ATOM     31  C   UNL     1      33.675 -14.190 -22.953  0.00  0.00    +0.059 C 
ENDBRANCH  23  26
ENDBRANCH  21  23
ENDBRANCH   2  21
TORSDOF 5
ENDMDL
MODEL 4
REMARK VINA RESULT:     -11.8      4.153      9.277
REMARK  Name = 6914633
REMARK  5 active torsions:
REMARK  status: ('A' for Active; 'I' for Inactive)
REMARK    1  A    between atoms: C_1  and  C_11
REMARK    2  A    between atoms: C_2  and  N_21
REMARK    3  A    between atoms: C_12  and  C_19
REMARK    4  A    between atoms: N_21  and  C_23
REMARK    5  A    between atoms: C_23  and  C_26
REMARK                            x       y       z     vdW  Elec       q    Type
REMARK                         _______ _______ _______ _____ _____    ______ ____
ROOT
ATOM      1  C   UNL     1      33.938 -21.359 -18.553  0.00  0.00    -0.008 C 
ATOM      2  C   UNL     1      33.923 -19.847 -20.897  0.00  0.00    +0.045 C 
ATOM      3  C   UNL     1      35.141 -21.020 -19.172  0.00  0.00    -0.002 C 
ATOM      4  C   UNL     1      32.727 -20.942 -19.105  0.00  0.00    -0.002 C 
ATOM      5  C   UNL     1      35.134 -20.264 -20.343  0.00  0.00    +0.014 C 
ATOM      6  C   UNL     1      32.720 -20.186 -20.278  0.00  0.00    +0.014 C 
ENDROOT
BRANCH   1  11
ATOM      7  N   UNL     1      35.143 -23.024 -15.442  0.00  0.00    -0.337 NA
ATOM      8  N   UNL     1      32.799 -23.511 -15.719  0.00  0.00    -0.317 NA
ATOM      9  N   UNL     1      31.604 -22.655 -17.572  0.00  0.00    -0.335 N 
ATOM     10  N   UNL     1      33.996 -24.353 -13.886  0.00  0.00    -0.283 N 
ATOM     11  C   UNL     1      33.945 -22.142 -17.336  0.00  0.00    +0.138 C 
ATOM     12  C   UNL     1      35.090 -22.304 -16.582  0.00  0.00    +0.112 C 
ATOM     13  C   UNL     1      32.819 -22.775 -16.850  0.00  0.00    +0.178 C 
ATOM     14  C   UNL     1      33.979 -23.592 -15.074  0.00  0.00    +0.196 C 
ATOM     15  H   UNL     1      30.790 -23.098 -17.242  0.00  0.00    +0.144 HD
ATOM     16  H   UNL     1      31.576 -22.126 -18.401  0.00  0.00    +0.144 HD
ATOM     17  H   UNL     1      34.832 -24.447 -13.372  0.00  0.00    +0.156 HD
ATOM     18  H   UNL     1      33.172 -24.791 -13.569  0.00  0.00    +0.156 HD
BRANCH  12  19
ATOM     19  C   UNL     1      36.379 -21.671 -16.996  0.00  0.00    +0.056 C 
ATOM     20  C   UNL     1      37.529 -22.040 -16.064  0.00  0.00    +0.008 C 
ENDBRANCH  12  19
ENDBRANCH   1  11
BRANCH   2  21
ATOM     21  N   UNL     1      33.915 -19.083 -22.082  0.00  0.00    -0.329 N 
ATOM     22  H   UNL     1      33.132 -19.143 -22.676  0.00  0.00    +0.147 HD
BRANCH  21  23
ATOM     23  C   UNL     1      34.994 -18.224 -22.460  0.00  0.00    +0.114 C 
BRANCH  23  26
ATOM     24  F   UNL     1      33.412 -14.607 -25.307  0.00  0.00    -0.204 F 
ATOM     25  F   UNL     1      34.009 -13.801 -20.679  0.00  0.00    -0.204 F 
ATOM     26  C   UNL     1      34.539 -16.801 -22.648  0.00  0.00    +0.002 C 
ATOM     27  C   UNL     1      34.486 -15.950 -21.554  0.00  0.00    +0.027 C 
ATOM     28  C   UNL     1      34.181 -16.361 -23.915  0.00  0.00    +0.027 C 
ATOM     29  C   UNL     1      33.760 -15.043 -24.090  0.00  0.00    +0.142 C 
ATOM     30  C   UNL     1      34.064 -14.632 -21.729  0.00  0.00    +0.142 C 
ATOM     31  C   UNL     1      33.702 -14.178 -22.997  0.00  0.00    +0.059 C 
ENDBRANCH  23  26
ENDBRANCH  21  23
ENDBRANCH   2  21
TORSDOF 5
ENDMDL
MODEL 5
REMARK VINA RESULT:     -11.7      6.917     10.541
REMARK  Name = 6914633
REMARK  5 active torsions:
REMARK  status: ('A' for Active; 'I' for Inactive)
REMARK    1  A    between atoms: C_1  and  C_11
REMARK    2  A    between atoms: C_2  and  N_21
REMARK    3  A    between atoms: C_12  and  C_19
REMARK    4  A    between atoms: N_21  and  C_23
REMARK    5  A    between atoms: C_23  and  C_26
REMARK                            x       y       z     vdW  Elec       q    Type
REMARK                         _______ _______ _______ _____ _____    ______ ____
ROOT
ATOM      1  C   UNL     1      31.507  -8.793 -21.975  0.00  0.00    -0.008 C 
ATOM      2  C   UNL     1      32.077 -11.495 -22.366  0.00  0.00    +0.045 C 
ATOM      3  C   UNL     1      30.815  -9.763 -21.249  0.00  0.00    -0.002 C 
ATOM      4  C   UNL     1      32.483  -9.173 -22.895  0.00  0.00    -0.002 C 
ATOM      5  C   UNL     1      31.101 -11.114 -21.444  0.00  0.00    +0.014 C 
ATOM      6  C   UNL     1      32.767 -10.525 -23.091  0.00  0.00    +0.014 C 
ENDROOT
BRANCH   1  11
ATOM      7  N   UNL     1      30.218  -5.342 -22.554  0.00  0.00    -0.337 NA
ATOM      8  N   UNL     1      31.347  -5.397 -20.425  0.00  0.00    -0.317 NA
ATOM      9  N   UNL     1      32.331  -7.398 -19.637  0.00  0.00    -0.335 N 
ATOM     10  N   UNL     1      30.367  -3.419 -21.218  0.00  0.00    -0.283 N 
ATOM     11  C   UNL     1      31.213  -7.391 -21.771  0.00  0.00    +0.138 C 
ATOM     12  C   UNL     1      30.514  -6.650 -22.703  0.00  0.00    +0.112 C 
ATOM     13  C   UNL     1      31.608  -6.703 -20.640  0.00  0.00    +0.178 C 
ATOM     14  C   UNL     1      30.658  -4.786 -21.409  0.00  0.00    +0.196 C 
ATOM     15  H   UNL     1      32.621  -6.926 -18.824  0.00  0.00    +0.144 HD
ATOM     16  H   UNL     1      32.541  -8.352 -19.755  0.00  0.00    +0.144 HD
ATOM     17  H   UNL     1      29.865  -2.922 -21.905  0.00  0.00    +0.156 HD
ATOM     18  H   UNL     1      30.664  -2.961 -20.399  0.00  0.00    +0.156 HD
BRANCH  12  19
ATOM     19  C   UNL     1      30.029  -7.273 -23.972  0.00  0.00    +0.056 C 
ATOM     20  C   UNL     1      30.782  -6.756 -25.194  0.00  0.00    +0.008 C 
ENDBRANCH  12  19
ENDBRANCH   1  11
BRANCH   2  21
ATOM     21  N   UNL     1      32.365 -12.862 -22.564  0.00  0.00    -0.329 N 
ATOM     22  H   UNL     1      31.913 -13.526 -21.995  0.00  0.00    +0.147 HD
BRANCH  21  23
ATOM     23  C   UNL     1      33.283 -13.326 -23.558  0.00  0.00    +0.114 C 
BRANCH  23  26
ATOM     24  F   UNL     1      35.154 -16.800 -20.707  0.00  0.00    -0.204 F 
ATOM     25  F   UNL     1      33.711 -17.933 -25.073  0.00  0.00    -0.204 F 
ATOM     26  C   UNL     1      33.689 -14.756 -23.321  0.00  0.00    +0.002 C 
ATOM     27  C   UNL     1      33.506 -15.694 -24.327  0.00  0.00    +0.027 C 
ATOM     28  C   UNL     1      34.242 -15.116 -22.100  0.00  0.00    +0.027 C 
ATOM     29  C   UNL     1      34.619 -16.441 -21.881  0.00  0.00    +0.142 C 
ATOM     30  C   UNL     1      33.883 -17.019 -24.108  0.00  0.00    +0.142 C 
ATOM     31  C   UNL     1      34.441 -17.393 -22.885  0.00  0.00    +0.059 C 
ENDBRANCH  23  26
ENDBRANCH  21  23
ENDBRANCH   2  21
TORSDOF 5
ENDMDL
MODEL 6
REMARK VINA RESULT:     -11.6      4.129      9.314
REMARK  Name = 6914633
REMARK  5 active torsions:
REMARK  status: ('A' for Active; 'I' for Inactive)
REMARK    1  A    between atoms: C_1  and  C_11
REMARK    2  A    between atoms: C_2  and  N_21
REMARK    3  A    between atoms: C_12  and  C_19
REMARK    4  A    between atoms: N_21  and  C_23
REMARK    5  A    between atoms: C_23  and  C_26
REMARK                            x       y       z     vdW  Elec       q    Type
REMARK                         _______ _______ _______ _____ _____    ______ ____
ROOT
ATOM      1  C   UNL     1      34.313 -21.526 -18.162  0.00  0.00    -0.008 C 
ATOM      2  C   UNL     1      34.088 -20.080 -20.536  0.00  0.00    +0.045 C 
ATOM      3  C   UNL     1      35.461 -21.075 -18.814  0.00  0.00    -0.002 C 
ATOM      4  C   UNL     1      33.055 -21.254 -18.695  0.00  0.00    -0.002 C 
ATOM      5  C   UNL     1      35.349 -20.351 -20.001  0.00  0.00    +0.014 C 
ATOM      6  C   UNL     1      32.942 -20.531 -19.883  0.00  0.00    +0.014 C 
ENDROOT
BRANCH   1  11
ATOM      7  N   UNL     1      33.398 -23.575 -15.183  0.00  0.00    -0.337 NA
ATOM      8  N   UNL     1      35.768 -23.137 -15.121  0.00  0.00    -0.317 NA
ATOM      9  N   UNL     1      36.801 -21.863 -16.825  0.00  0.00    -0.335 N 
ATOM     10  N   UNL     1      34.731 -24.401 -13.437  0.00  0.00    -0.283 N 
ATOM     11  C   UNL     1      34.430 -22.275 -16.929  0.00  0.00    +0.138 C 
ATOM     12  C   UNL     1      33.336 -22.868 -16.331  0.00  0.00    +0.112 C 
ATOM     13  C   UNL     1      35.632 -22.445 -16.271  0.00  0.00    +0.178 C 
ATOM     14  C   UNL     1      34.627 -23.668 -14.640  0.00  0.00    +0.196 C 
ATOM     15  H   UNL     1      37.667 -21.974 -16.371  0.00  0.00    +0.144 HD
ATOM     16  H   UNL     1      36.745 -21.351 -17.663  0.00  0.00    +0.144 HD
ATOM     17  H   UNL     1      33.929 -24.811 -13.040  0.00  0.00    +0.156 HD
ATOM     18  H   UNL     1      35.606 -24.502 -12.996  0.00  0.00    +0.156 HD
BRANCH  12  19
ATOM     19  C   UNL     1      31.975 -22.761 -16.940  0.00  0.00    +0.056 C 
ATOM     20  C   UNL     1      30.876 -22.681 -15.885  0.00  0.00    +0.008 C 
ENDBRANCH  12  19
ENDBRANCH   1  11
BRANCH   2  21
ATOM     21  N   UNL     1      33.974 -19.349 -21.737  0.00  0.00    -0.329 N 
ATOM     22  H   UNL     1      33.127 -19.392 -22.236  0.00  0.00    +0.147 HD
BRANCH  21  23
ATOM     23  C   UNL     1      35.036 -18.547 -22.262  0.00  0.00    +0.114 C 
BRANCH  23  26
ATOM     24  F   UNL     1      34.085 -14.093 -20.546  0.00  0.00    -0.204 F 
ATOM     25  F   UNL     1      33.564 -14.937 -25.177  0.00  0.00    -0.204 F 
ATOM     26  C   UNL     1      34.608 -17.120 -22.475  0.00  0.00    +0.002 C 
ATOM     27  C   UNL     1      34.280 -16.687 -23.752  0.00  0.00    +0.027 C 
ATOM     28  C   UNL     1      34.546 -16.257 -21.390  0.00  0.00    +0.027 C 
ATOM     29  C   UNL     1      34.148 -14.934 -21.586  0.00  0.00    +0.142 C 
ATOM     30  C   UNL     1      33.883 -15.364 -23.948  0.00  0.00    +0.142 C 
ATOM     31  C   UNL     1      33.816 -14.488 -22.865  0.00  0.00    +0.059 C 
ENDBRANCH  23  26
ENDBRANCH  21  23
ENDBRANCH   2  21
TORSDOF 5
ENDMDL
MODEL 7
REMARK VINA RESULT:     -11.6      4.127      9.365
REMARK  Name = 6914633
REMARK  5 active torsions:
REMARK  status: ('A' for Active; 'I' for Inactive)
REMARK    1  A    between atoms: C_1  and  C_11
REMARK    2  A    between atoms: C_2  and  N_21
REMARK    3  A    between atoms: C_12  and  C_19
REMARK    4  A    between atoms: N_21  and  C_23
REMARK    5  A    between atoms: C_23  and  C_26
REMARK                            x       y       z     vdW  Elec       q    Type
REMARK                         _______ _______ _______ _____ _____    ______ ____
ROOT
ATOM      1  C   UNL     1      34.329 -21.534 -18.149  0.00  0.00    -0.008 C 
ATOM      2  C   UNL     1      34.101 -20.093 -20.526  0.00  0.00    +0.045 C 
ATOM      3  C   UNL     1      35.475 -21.075 -18.799  0.00  0.00    -0.002 C 
ATOM      4  C   UNL     1      33.070 -21.272 -18.686  0.00  0.00    -0.002 C 
ATOM      5  C   UNL     1      35.361 -20.354 -19.987  0.00  0.00    +0.014 C 
ATOM      6  C   UNL     1      32.956 -20.551 -19.876  0.00  0.00    +0.014 C 
ENDROOT
BRANCH   1  11
ATOM      7  N   UNL     1      33.418 -23.571 -15.161  0.00  0.00    -0.337 NA
ATOM      8  N   UNL     1      35.790 -23.143 -15.110  0.00  0.00    -0.317 NA
ATOM      9  N   UNL     1      36.821 -21.877 -16.821  0.00  0.00    -0.335 N 
ATOM     10  N   UNL     1      34.755 -24.397 -13.418  0.00  0.00    -0.283 N 
ATOM     11  C   UNL     1      34.448 -22.279 -16.915  0.00  0.00    +0.138 C 
ATOM     12  C   UNL     1      33.354 -22.867 -16.311  0.00  0.00    +0.112 C 
ATOM     13  C   UNL     1      35.652 -22.453 -16.261  0.00  0.00    +0.178 C 
ATOM     14  C   UNL     1      34.649 -23.667 -14.622  0.00  0.00    +0.196 C 
ATOM     15  H   UNL     1      37.689 -21.990 -16.370  0.00  0.00    +0.144 HD
ATOM     16  H   UNL     1      36.763 -21.367 -17.660  0.00  0.00    +0.144 HD
ATOM     17  H   UNL     1      33.952 -24.803 -13.017  0.00  0.00    +0.156 HD
ATOM     18  H   UNL     1      35.630 -24.500 -12.981  0.00  0.00    +0.156 HD
BRANCH  12  19
ATOM     19  C   UNL     1      31.991 -22.755 -16.914  0.00  0.00    +0.056 C 
ATOM     20  C   UNL     1      30.887 -22.826 -15.863  0.00  0.00    +0.008 C 
ENDBRANCH  12  19
ENDBRANCH   1  11
BRANCH   2  21
ATOM     21  N   UNL     1      33.985 -19.365 -21.728  0.00  0.00    -0.329 N 
ATOM     22  H   UNL     1      33.136 -19.408 -22.225  0.00  0.00    +0.147 HD
BRANCH  21  23
ATOM     23  C   UNL     1      35.046 -18.564 -22.258  0.00  0.00    +0.114 C 
BRANCH  23  26
ATOM     24  F   UNL     1      33.589 -14.963 -25.189  0.00  0.00    -0.204 F 
ATOM     25  F   UNL     1      34.084 -14.105 -20.559  0.00  0.00    -0.204 F 
ATOM     26  C   UNL     1      34.617 -17.138 -22.475  0.00  0.00    +0.002 C 
ATOM     27  C   UNL     1      34.550 -16.271 -21.394  0.00  0.00    +0.027 C 
ATOM     28  C   UNL     1      34.297 -16.709 -23.756  0.00  0.00    +0.027 C 
ATOM     29  C   UNL     1      33.900 -15.387 -23.959  0.00  0.00    +0.142 C 
ATOM     30  C   UNL     1      34.153 -14.949 -21.596  0.00  0.00    +0.142 C 
ATOM     31  C   UNL     1      33.829 -14.507 -22.879  0.00  0.00    +0.059 C 
ENDBRANCH  23  26
ENDBRANCH  21  23
ENDBRANCH   2  21
TORSDOF 5
ENDMDL
MODEL 8
REMARK VINA RESULT:     -11.3      3.143      5.433
REMARK  Name = 6914633
REMARK  5 active torsions:
REMARK  status: ('A' for Active; 'I' for Inactive)
REMARK    1  A    between atoms: C_1  and  C_11
REMARK    2  A    between atoms: C_2  and  N_21
REMARK    3  A    between atoms: C_12  and  C_19
REMARK    4  A    between atoms: N_21  and  C_23
REMARK    5  A    between atoms: C_23  and  C_26
REMARK                            x       y       z     vdW  Elec       q    Type
REMARK                         _______ _______ _______ _____ _____    ______ ____
ROOT
ATOM      1  C   UNL     1      33.331 -14.049 -22.375  0.00  0.00    -0.008 C 
ATOM      2  C   UNL     1      34.651 -16.500 -22.555  0.00  0.00    +0.045 C 
ATOM      3  C   UNL     1      33.407 -14.711 -23.600  0.00  0.00    -0.002 C 
ATOM      4  C   UNL     1      33.914 -14.612 -21.240  0.00  0.00    -0.002 C 
ATOM      5  C   UNL     1      34.067 -15.937 -23.691  0.00  0.00    +0.014 C 
ATOM      6  C   UNL     1      34.575 -15.837 -21.331  0.00  0.00    +0.014 C 
ENDROOT
BRANCH   1  11
ATOM      7  N   UNL     1      32.107 -10.633 -23.234  0.00  0.00    -0.337 NA
ATOM      8  N   UNL     1      31.216 -11.254 -21.082  0.00  0.00    -0.317 NA
ATOM      9  N   UNL     1      31.732 -13.356 -20.128  0.00  0.00    -0.335 N 
ATOM     10  N   UNL     1      30.712  -9.173 -22.040  0.00  0.00    -0.283 N 
ATOM     11  C   UNL     1      32.645 -12.779 -22.281  0.00  0.00    +0.138 C 
ATOM     12  C   UNL     1      32.729 -11.830 -23.279  0.00  0.00    +0.112 C 
ATOM     13  C   UNL     1      31.866 -12.431 -21.195  0.00  0.00    +0.178 C 
ATOM     14  C   UNL     1      31.378 -10.414 -22.123  0.00  0.00    +0.196 C 
ATOM     15  H   UNL     1      31.180 -13.127 -19.345  0.00  0.00    +0.144 HD
ATOM     16  H   UNL     1      32.189 -14.226 -20.172  0.00  0.00    +0.144 HD
ATOM     17  H   UNL     1      30.794  -8.520 -22.773  0.00  0.00    +0.156 HD
ATOM     18  H   UNL     1      30.164  -8.960 -21.250  0.00  0.00    +0.156 HD
BRANCH  12  19
ATOM     19  C   UNL     1      33.541 -12.079 -24.510  0.00  0.00    +0.056 C 
ATOM     20  C   UNL     1      32.678 -12.508 -25.693  0.00  0.00    +0.008 C 
ENDBRANCH  12  19
ENDBRANCH   1  11
BRANCH   2  21
ATOM     21  N   UNL     1      35.319 -17.739 -22.646  0.00  0.00    -0.329 N 
ATOM     22  H   UNL     1      35.238 -18.258 -23.478  0.00  0.00    +0.147 HD
BRANCH  21  23
ATOM     23  C   UNL     1      36.112 -18.274 -21.582  0.00  0.00    +0.114 C 
BRANCH  23  26
ATOM     24  F   UNL     1      35.950 -21.786 -18.215  0.00  0.00    -0.204 F 
ATOM     25  F   UNL     1      31.925 -20.396 -20.288  0.00  0.00    -0.204 F 
ATOM     26  C   UNL     1      35.342 -19.270 -20.757  0.00  0.00    +0.002 C 
ATOM     27  C   UNL     1      33.967 -19.369 -20.911  0.00  0.00    +0.027 C 
ATOM     28  C   UNL     1      36.019 -20.078 -19.854  0.00  0.00    +0.027 C 
ATOM     29  C   UNL     1      35.307 -21.002 -19.089  0.00  0.00    +0.142 C 
ATOM     30  C   UNL     1      33.254 -20.293 -20.147  0.00  0.00    +0.142 C 
ATOM     31  C   UNL     1      33.924 -21.110 -19.237  0.00  0.00    +0.059 C 
ENDBRANCH  23  26
ENDBRANCH  21  23
ENDBRANCH   2  21
TORSDOF 5
ENDMDL
MODEL 9
REMARK VINA RESULT:     -11.2      1.585      2.635
REMARK  Name = 6914633
REMARK  5 active torsions:
REMARK  status: ('A' for Active; 'I' for Inactive)
REMARK    1  A    between atoms: C_1  and  C_11
REMARK    2  A    between atoms: C_2  and  N_21
REMARK    3  A    between atoms: C_12  and  C_19
REMARK    4  A    between atoms: N_21  and  C_23
REMARK    5  A    between atoms: C_23  and  C_26
REMARK                            x       y       z     vdW  Elec       q    Type
REMARK                         _______ _______ _______ _____ _____    ______ ____
ROOT
ATOM      1  C   UNL     1      34.224 -18.795 -21.479  0.00  0.00    -0.008 C 
ATOM      2  C   UNL     1      34.419 -20.792 -19.543  0.00  0.00    +0.045 C 
ATOM      3  C   UNL     1      33.068 -19.393 -20.976  0.00  0.00    -0.002 C 
ATOM      4  C   UNL     1      35.476 -19.195 -21.015  0.00  0.00    -0.002 C 
ATOM      5  C   UNL     1      33.165 -20.391 -20.007  0.00  0.00    +0.014 C 
ATOM      6  C   UNL     1      35.573 -20.195 -20.046  0.00  0.00    +0.014 C 
ENDROOT
BRANCH   1  11
ATOM      7  N   UNL     1      34.112 -15.418 -23.057  0.00  0.00    -0.337 NA
ATOM      8  N   UNL     1      33.845 -17.084 -24.779  0.00  0.00    -0.317 NA
ATOM      9  N   UNL     1      33.852 -19.385 -24.236  0.00  0.00    -0.335 N 
ATOM     10  N   UNL     1      33.840 -14.797 -25.303  0.00  0.00    -0.283 N 
ATOM     11  C   UNL     1      34.123 -17.757 -22.482  0.00  0.00    +0.138 C 
ATOM     12  C   UNL     1      34.201 -16.418 -22.156  0.00  0.00    +0.112 C 
ATOM     13  C   UNL     1      33.942 -18.032 -23.824  0.00  0.00    +0.178 C 
ATOM     14  C   UNL     1      33.937 -15.816 -24.332  0.00  0.00    +0.196 C 
ATOM     15  H   UNL     1      33.723 -19.602 -25.188  0.00  0.00    +0.144 HD
ATOM     16  H   UNL     1      33.919 -20.107 -23.571  0.00  0.00    +0.144 HD
ATOM     17  H   UNL     1      33.901 -13.851 -25.033  0.00  0.00    +0.156 HD
ATOM     18  H   UNL     1      33.712 -15.031 -26.251  0.00  0.00    +0.156 HD
BRANCH  12  19
ATOM     19  C   UNL     1      34.396 -15.983 -20.739  0.00  0.00    +0.056 C 
ATOM     20  C   UNL     1      33.807 -14.600 -20.474  0.00  0.00    +0.008 C 
ENDBRANCH  12  19
ENDBRANCH   1  11
BRANCH   2  21
ATOM     21  N   UNL     1      34.517 -21.803 -18.564  0.00  0.00    -0.329 N 
ATOM     22  H   UNL     1      35.341 -21.862 -18.029  0.00  0.00    +0.147 HD
BRANCH  21  23
ATOM     23  C   UNL     1      33.472 -22.747 -18.313  0.00  0.00    +0.114 C 
BRANCH  23  26
ATOM     24  F   UNL     1      30.080 -22.685 -14.822  0.00  0.00    -0.204 F 
ATOM     25  F   UNL     1      34.645 -22.966 -13.593  0.00  0.00    -0.204 F 
ATOM     26  C   UNL     1      33.079 -22.776 -16.860  0.00  0.00    +0.002 C 
ATOM     27  C   UNL     1      34.065 -22.859 -15.887  0.00  0.00    +0.027 C 
ATOM     28  C   UNL     1      31.737 -22.716 -16.514  0.00  0.00    +0.027 C 
ATOM     29  C   UNL     1      31.372 -22.742 -15.168  0.00  0.00    +0.142 C 
ATOM     30  C   UNL     1      33.701 -22.885 -14.540  0.00  0.00    +0.142 C 
ATOM     31  C   UNL     1      32.355 -22.825 -14.180  0.00  0.00    +0.059 C 
ENDBRANCH  23  26
ENDBRANCH  21  23
ENDBRANCH   2  21
TORSDOF 5
ENDMDL
