MODEL 1
REMARK VINA RESULT:     -11.4      0.000      0.000
REMARK  Name = 52918384
REMARK  7 active torsions:
REMARK  status: ('A' for Active; 'I' for Inactive)
REMARK    1  A    between atoms: N_1  and  N_23
REMARK    2  A    between atoms: C_24  and  C_26
REMARK    3  A    between atoms: C_26  and  C_27
REMARK    4  A    between atoms: C_26  and  C_33
REMARK    5  A    between atoms: C_27  and  C_28
REMARK    6  A    between atoms: C_33  and  N_35
REMARK    7  A    between atoms: N_35  and  O_37
REMARK                            x       y       z     vdW  Elec       q    Type
REMARK                         _______ _______ _______ _____ _____    ______ ____
ROOT
ATOM      1  N   UNL     1      35.922 -20.536 -19.600  0.00  0.00    -0.238 N 
ATOM      2  H   UNL     1      36.883 -20.745 -19.554  0.00  0.00    +0.172 HD
ATOM      3  F   UNL     1      36.837 -21.828 -17.351  0.00  0.00    -0.219 F 
ATOM      4  O   UNL     1      38.189 -23.363 -11.860  0.00  0.00    -0.358 OA
ATOM      5  N   UNL     1      35.860 -24.308 -13.198  0.00  0.00    +0.394 N 
ATOM      6  N   UNL     1      35.077 -23.031 -15.627  0.00  0.00    -0.288 N 
ATOM      7  N   UNL     1      33.266 -22.354 -16.989  0.00  0.00    -0.330 NA
ATOM      8  N   UNL     1      33.689 -21.093 -18.998  0.00  0.00    -0.329 NA
ATOM      9  C   UNL     1      36.698 -23.243 -13.780  0.00  0.00    -0.008 C 
ATOM     10  C   UNL     1      35.849 -22.284 -14.628  0.00  0.00    +0.075 C 
ATOM     11  C   UNL     1      35.200 -25.075 -14.260  0.00  0.00    -0.055 C 
ATOM     12  C   UNL     1      34.308 -24.170 -15.113  0.00  0.00    +0.070 C 
ATOM     13  C   UNL     1      37.402 -22.474 -12.655  0.00  0.00    +0.123 C 
ATOM     14  C   UNL     1      36.675 -25.190 -12.350  0.00  0.00    -0.044 C 
ATOM     15  C   UNL     1      37.370 -24.372 -11.268  0.00  0.00    +0.119 C 
ATOM     16  C   UNL     1      34.596 -22.375 -16.766  0.00  0.00    +0.213 C 
ATOM     17  C   UNL     1      35.522 -21.787 -17.602  0.00  0.00    +0.295 C 
ATOM     18  C   UNL     1      35.006 -21.154 -18.714  0.00  0.00    +0.226 C 
ATOM     19  C   UNL     1      32.886 -21.705 -18.107  0.00  0.00    +0.117 C 
ATOM     20  C   UNL     1      31.423 -21.659 -18.385  0.00  0.00    +0.143 C 
ATOM     21  H   UNL     1      35.140 -23.880 -12.616  0.00  0.00    -0.079 HD
ENDROOT
BRANCH   1  23
ATOM     22  O   UNL     1      37.197 -18.173 -20.125  0.00  0.00    -0.274 OA
ATOM     23  N   UNL     1      35.451 -19.650 -20.513  0.00  0.00    -0.234 N 
ATOM     24  C   UNL     1      36.162 -18.480 -20.713  0.00  0.00    +0.239 C 
ATOM     25  H   UNL     1      34.627 -19.834 -21.019  0.00  0.00    +0.173 HD
BRANCH  24  26
ATOM     26  C   UNL     1      35.522 -17.593 -21.784  0.00  0.00    +0.100 C 
BRANCH  26  27
ATOM     27  C   UNL     1      34.293 -16.833 -21.254  0.00  0.00    +0.011 C 
BRANCH  27  28
ATOM     28  C   UNL     1      34.427 -15.330 -21.421  0.00  0.00    +0.001 C 
ATOM     29  C   UNL     1      34.018 -14.839 -22.807  0.00  0.00    +0.000 C 
ATOM     30  C   UNL     1      33.494 -14.538 -20.509  0.00  0.00    +0.000 C 
ATOM     31  C   UNL     1      33.459 -13.149 -21.136  0.00  0.00    +0.000 C 
ATOM     32  C   UNL     1      33.785 -13.343 -22.618  0.00  0.00    +0.000 C 
ENDBRANCH  27  28
ENDBRANCH  26  27
BRANCH  26  33
ATOM     33  C   UNL     1      35.170 -18.437 -23.019  0.00  0.00    +0.133 C 
BRANCH  33  35
ATOM     34  O   UNL     1      33.493 -17.383 -25.125  0.00  0.00    -0.263 OA
ATOM     35  N   UNL     1      33.755 -18.630 -23.188  0.00  0.00    -0.164 N 
ATOM     36  C   UNL     1      33.049 -18.086 -24.223  0.00  0.00    +0.327 C 
BRANCH  35  37
ATOM     37  O   UNL     1      33.163 -19.426 -22.196  0.00  0.00    -0.291 OA
ATOM     38  H   UNL     1      32.207 -19.262 -22.177  0.00  0.00    +0.242 HD
ENDBRANCH  35  37
ENDBRANCH  33  35
ENDBRANCH  26  33
ENDBRANCH  24  26
ENDBRANCH   1  23
TORSDOF 7
ENDMDL
MODEL 2
REMARK VINA RESULT:      -9.7      6.057     12.290
REMARK  Name = 52918384
REMARK  7 active torsions:
REMARK  status: ('A' for Active; 'I' for Inactive)
REMARK    1  A    between atoms: N_1  and  N_23
REMARK    2  A    between atoms: C_24  and  C_26
REMARK    3  A    between atoms: C_26  and  C_27
REMARK    4  A    between atoms: C_26  and  C_33
REMARK    5  A    between atoms: C_27  and  C_28
REMARK    6  A    between atoms: C_33  and  N_35
REMARK    7  A    between atoms: N_35  and  O_37
REMARK                            x       y       z     vdW  Elec       q    Type
REMARK                         _______ _______ _______ _____ _____    ______ ____
ROOT
ATOM      1  N   UNL     1      33.806 -13.524 -23.592  0.00  0.00    -0.238 N 
ATOM      2  H   UNL     1      34.313 -12.970 -24.228  0.00  0.00    +0.172 HD
ATOM      3  F   UNL     1      33.221 -10.839 -23.687  0.00  0.00    -0.219 F 
ATOM      4  O   UNL     1      30.574  -5.636 -24.207  0.00  0.00    -0.358 OA
ATOM      5  N   UNL     1      30.982  -6.916 -21.696  0.00  0.00    +0.394 N 
ATOM      6  N   UNL     1      31.767  -9.661 -21.684  0.00  0.00    -0.288 N 
ATOM      7  N   UNL     1      31.606 -11.738 -20.566  0.00  0.00    -0.330 NA
ATOM      8  N   UNL     1      32.635 -13.694 -21.527  0.00  0.00    -0.329 NA
ATOM      9  C   UNL     1      31.250  -7.618 -22.966  0.00  0.00    -0.008 C 
ATOM     10  C   UNL     1      31.004  -9.127 -22.818  0.00  0.00    +0.075 C 
ATOM     11  C   UNL     1      31.852  -7.434 -20.635  0.00  0.00    -0.055 C 
ATOM     12  C   UNL     1      31.618  -8.931 -20.419  0.00  0.00    +0.070 C 
ATOM     13  C   UNL     1      30.354  -7.040 -24.068  0.00  0.00    +0.123 C 
ATOM     14  C   UNL     1      31.174  -5.469 -21.865  0.00  0.00    -0.044 C 
ATOM     15  C   UNL     1      30.280  -4.954 -22.988  0.00  0.00    +0.119 C 
ATOM     16  C   UNL     1      32.054 -11.029 -21.622  0.00  0.00    +0.213 C 
ATOM     17  C   UNL     1      32.790 -11.573 -22.654  0.00  0.00    +0.295 C 
ATOM     18  C   UNL     1      33.053 -12.923 -22.553  0.00  0.00    +0.226 C 
ATOM     19  C   UNL     1      31.927 -13.046 -20.582  0.00  0.00    +0.117 C 
ATOM     20  C   UNL     1      31.447 -13.864 -19.432  0.00  0.00    +0.143 C 
ATOM     21  H   UNL     1      30.013  -7.082 -21.427  0.00  0.00    -0.079 HD
ENDROOT
BRANCH   1  23
ATOM     22  O   UNL     1      34.701 -15.127 -21.565  0.00  0.00    -0.274 OA
ATOM     23  N   UNL     1      33.816 -14.877 -23.693  0.00  0.00    -0.234 N 
ATOM     24  C   UNL     1      34.286 -15.608 -22.617  0.00  0.00    +0.239 C 
ATOM     25  H   UNL     1      33.497 -15.326 -24.510  0.00  0.00    +0.173 HD
BRANCH  24  26
ATOM     26  C   UNL     1      34.217 -17.116 -22.871  0.00  0.00    +0.100 C 
BRANCH  26  27
ATOM     27  C   UNL     1      35.440 -17.859 -22.304  0.00  0.00    +0.011 C 
BRANCH  27  28
ATOM     28  C   UNL     1      35.125 -18.585 -21.008  0.00  0.00    +0.001 C 
ATOM     29  C   UNL     1      33.875 -19.455 -21.093  0.00  0.00    +0.000 C 
ATOM     30  C   UNL     1      36.197 -19.594 -20.607  0.00  0.00    +0.000 C 
ATOM     31  C   UNL     1      35.498 -20.488 -19.589  0.00  0.00    +0.000 C 
ATOM     32  C   UNL     1      34.004 -20.408 -19.908  0.00  0.00    +0.000 C 
ENDBRANCH  27  28
ENDBRANCH  26  27
BRANCH  26  33
ATOM     33  C   UNL     1      34.044 -17.385 -24.373  0.00  0.00    +0.133 C 
BRANCH  33  35
ATOM     34  O   UNL     1      31.367 -17.804 -25.381  0.00  0.00    -0.263 OA
ATOM     35  N   UNL     1      33.401 -18.642 -24.653  0.00  0.00    -0.164 N 
ATOM     36  C   UNL     1      32.125 -18.734 -25.130  0.00  0.00    +0.327 C 
BRANCH  35  37
ATOM     37  O   UNL     1      34.202 -19.764 -24.393  0.00  0.00    -0.291 OA
ATOM     38  H   UNL     1      34.163 -19.976 -23.447  0.00  0.00    +0.242 HD
ENDBRANCH  35  37
ENDBRANCH  33  35
ENDBRANCH  26  33
ENDBRANCH  24  26
ENDBRANCH   1  23
TORSDOF 7
ENDMDL
MODEL 3
REMARK VINA RESULT:      -9.3      7.272     14.201
REMARK  Name = 52918384
REMARK  7 active torsions:
REMARK  status: ('A' for Active; 'I' for Inactive)
REMARK    1  A    between atoms: N_1  and  N_23
REMARK    2  A    between atoms: C_24  and  C_26
REMARK    3  A    between atoms: C_26  and  C_27
REMARK    4  A    between atoms: C_26  and  C_33
REMARK    5  A    between atoms: C_27  and  C_28
REMARK    6  A    between atoms: C_33  and  N_35
REMARK    7  A    between atoms: N_35  and  O_37
REMARK                            x       y       z     vdW  Elec       q    Type
REMARK                         _______ _______ _______ _____ _____    ______ ____
ROOT
ATOM      1  N   UNL     1      33.868 -11.350 -23.446  0.00  0.00    -0.238 N 
ATOM      2  H   UNL     1      34.705 -10.932 -23.750  0.00  0.00    +0.172 HD
ATOM      3  F   UNL     1      33.828  -8.649 -23.961  0.00  0.00    -0.219 F 
ATOM      4  O   UNL     1      32.638  -3.298 -26.032  0.00  0.00    -0.358 OA
ATOM      5  N   UNL     1      31.510  -4.304 -23.619  0.00  0.00    +0.394 N 
ATOM      6  N   UNL     1      31.753  -7.095 -23.068  0.00  0.00    -0.288 N 
ATOM      7  N   UNL     1      30.733  -8.995 -22.100  0.00  0.00    -0.330 NA
ATOM      8  N   UNL     1      31.798 -11.149 -22.288  0.00  0.00    -0.329 NA
ATOM      9  C   UNL     1      32.278  -5.176 -24.528  0.00  0.00    -0.008 C 
ATOM     10  C   UNL     1      31.766  -6.624 -24.457  0.00  0.00    +0.075 C 
ATOM     11  C   UNL     1      31.628  -4.780 -22.237  0.00  0.00    -0.055 C 
ATOM     12  C   UNL     1      31.093  -6.208 -22.102  0.00  0.00    +0.070 C 
ATOM     13  C   UNL     1      32.168  -4.645 -25.962  0.00  0.00    +0.123 C 
ATOM     14  C   UNL     1      31.978  -2.915 -23.732  0.00  0.00    -0.044 C 
ATOM     15  C   UNL     1      31.871  -2.448 -25.180  0.00  0.00    +0.119 C 
ATOM     16  C   UNL     1      31.758  -8.468 -22.799  0.00  0.00    +0.213 C 
ATOM     17  C   UNL     1      32.825  -9.205 -23.270  0.00  0.00    +0.295 C 
ATOM     18  C   UNL     1      32.792 -10.554 -22.982  0.00  0.00    +0.226 C 
ATOM     19  C   UNL     1      30.815 -10.322 -21.883  0.00  0.00    +0.117 C 
ATOM     20  C   UNL     1      29.698 -10.942 -21.114  0.00  0.00    +0.143 C 
ATOM     21  H   UNL     1      30.527  -4.334 -23.887  0.00  0.00    -0.079 HD
ENDROOT
BRANCH   1  23
ATOM     22  O   UNL     1      34.304 -12.886 -21.224  0.00  0.00    -0.274 OA
ATOM     23  N   UNL     1      33.723 -12.699 -23.462  0.00  0.00    -0.234 N 
ATOM     24  C   UNL     1      33.965 -13.394 -22.291  0.00  0.00    +0.239 C 
ATOM     25  H   UNL     1      33.454 -13.169 -24.284  0.00  0.00    +0.173 HD
BRANCH  24  26
ATOM     26  C   UNL     1      33.741 -14.900 -22.459  0.00  0.00    +0.100 C 
BRANCH  26  27
ATOM     27  C   UNL     1      34.352 -15.712 -21.303  0.00  0.00    +0.011 C 
BRANCH  27  28
ATOM     28  C   UNL     1      34.675 -17.140 -21.708  0.00  0.00    +0.001 C 
ATOM     29  C   UNL     1      36.114 -17.542 -21.395  0.00  0.00    +0.000 C 
ATOM     30  C   UNL     1      33.871 -18.181 -20.935  0.00  0.00    +0.000 C 
ATOM     31  C   UNL     1      34.644 -19.478 -21.153  0.00  0.00    +0.000 C 
ATOM     32  C   UNL     1      36.090 -19.068 -21.438  0.00  0.00    +0.000 C 
ENDBRANCH  27  28
ENDBRANCH  26  27
BRANCH  26  33
ATOM     33  C   UNL     1      34.289 -15.360 -23.818  0.00  0.00    +0.133 C 
BRANCH  33  35
ATOM     34  O   UNL     1      33.450 -18.060 -24.420  0.00  0.00    -0.263 OA
ATOM     35  N   UNL     1      33.259 -15.772 -24.734  0.00  0.00    -0.164 N 
ATOM     36  C   UNL     1      32.935 -17.081 -24.949  0.00  0.00    +0.327 C 
BRANCH  35  37
ATOM     37  O   UNL     1      32.615 -14.710 -25.385  0.00  0.00    -0.291 OA
ATOM     38  H   UNL     1      31.675 -14.923 -25.500  0.00  0.00    +0.242 HD
ENDBRANCH  35  37
ENDBRANCH  33  35
ENDBRANCH  26  33
ENDBRANCH  24  26
ENDBRANCH   1  23
TORSDOF 7
ENDMDL
MODEL 4
REMARK VINA RESULT:      -9.2      5.731     12.354
REMARK  Name = 52918384
REMARK  7 active torsions:
REMARK  status: ('A' for Active; 'I' for Inactive)
REMARK    1  A    between atoms: N_1  and  N_23
REMARK    2  A    between atoms: C_24  and  C_26
REMARK    3  A    between atoms: C_26  and  C_27
REMARK    4  A    between atoms: C_26  and  C_33
REMARK    5  A    between atoms: C_27  and  C_28
REMARK    6  A    between atoms: C_33  and  N_35
REMARK    7  A    between atoms: N_35  and  O_37
REMARK                            x       y       z     vdW  Elec       q    Type
REMARK                         _______ _______ _______ _____ _____    ______ ____
ROOT
ATOM      1  N   UNL     1      32.836 -13.990 -21.757  0.00  0.00    -0.238 N 
ATOM      2  H   UNL     1      32.537 -13.853 -20.829  0.00  0.00    +0.172 HD
ATOM      3  F   UNL     1      32.212 -11.424 -20.987  0.00  0.00    -0.219 F 
ATOM      4  O   UNL     1      32.321  -5.690 -19.783  0.00  0.00    -0.358 OA
ATOM      5  N   UNL     1      31.292  -6.735 -22.224  0.00  0.00    +0.394 N 
ATOM      6  N   UNL     1      31.830  -9.464 -22.866  0.00  0.00    -0.288 N 
ATOM      7  N   UNL     1      32.259 -11.022 -24.593  0.00  0.00    -0.330 NA
ATOM      8  N   UNL     1      32.768 -13.311 -24.037  0.00  0.00    -0.329 NA
ATOM      9  C   UNL     1      32.013  -7.595 -21.266  0.00  0.00    -0.008 C 
ATOM     10  C   UNL     1      32.753  -8.725 -21.998  0.00  0.00    +0.075 C 
ATOM     11  C   UNL     1      30.317  -7.525 -22.983  0.00  0.00    -0.055 C 
ATOM     12  C   UNL     1      31.009  -8.644 -23.765  0.00  0.00    +0.070 C 
ATOM     13  C   UNL     1      33.004  -6.746 -20.461  0.00  0.00    +0.123 C 
ATOM     14  C   UNL     1      30.628  -5.631 -21.515  0.00  0.00    -0.044 C 
ATOM     15  C   UNL     1      31.654  -4.838 -20.714  0.00  0.00    +0.119 C 
ATOM     16  C   UNL     1      32.149 -10.764 -23.274  0.00  0.00    +0.213 C 
ATOM     17  C   UNL     1      32.330 -11.714 -22.289  0.00  0.00    +0.295 C 
ATOM     18  C   UNL     1      32.641 -12.983 -22.734  0.00  0.00    +0.226 C 
ATOM     19  C   UNL     1      32.566 -12.297 -24.900  0.00  0.00    +0.117 C 
ATOM     20  C   UNL     1      32.698 -12.619 -26.349  0.00  0.00    +0.143 C 
ATOM     21  H   UNL     1      31.964  -6.338 -22.879  0.00  0.00    -0.079 HD
ENDROOT
BRANCH   1  23
ATOM     22  O   UNL     1      34.134 -15.585 -19.954  0.00  0.00    -0.274 OA
ATOM     23  N   UNL     1      33.441 -15.147 -22.124  0.00  0.00    -0.234 N 
ATOM     24  C   UNL     1      34.074 -15.890 -21.144  0.00  0.00    +0.239 C 
ATOM     25  H   UNL     1      33.430 -15.449 -23.061  0.00  0.00    +0.173 HD
BRANCH  24  26
ATOM     26  C   UNL     1      34.691 -17.175 -21.703  0.00  0.00    +0.100 C 
BRANCH  26  27
ATOM     27  C   UNL     1      35.748 -17.774 -20.759  0.00  0.00    +0.011 C 
BRANCH  27  28
ATOM     28  C   UNL     1      35.591 -19.275 -20.593  0.00  0.00    +0.001 C 
ATOM     29  C   UNL     1      36.293 -19.820 -19.352  0.00  0.00    +0.000 C 
ATOM     30  C   UNL     1      34.145 -19.707 -20.365  0.00  0.00    +0.000 C 
ATOM     31  C   UNL     1      34.269 -21.115 -19.791  0.00  0.00    +0.000 C 
ATOM     32  C   UNL     1      35.646 -21.184 -19.129  0.00  0.00    +0.000 C 
ENDBRANCH  27  28
ENDBRANCH  26  27
BRANCH  26  33
ATOM     33  C   UNL     1      35.274 -16.909 -23.100  0.00  0.00    +0.133 C 
BRANCH  33  35
ATOM     34  O   UNL     1      33.477 -19.089 -23.713  0.00  0.00    -0.263 OA
ATOM     35  N   UNL     1      34.286 -16.961 -24.145  0.00  0.00    -0.164 N 
ATOM     36  C   UNL     1      33.481 -18.043 -24.354  0.00  0.00    +0.327 C 
BRANCH  35  37
ATOM     37  O   UNL     1      34.223 -15.799 -24.929  0.00  0.00    -0.291 OA
ATOM     38  H   UNL     1      35.121 -15.469 -25.090  0.00  0.00    +0.242 HD
ENDBRANCH  35  37
ENDBRANCH  33  35
ENDBRANCH  26  33
ENDBRANCH  24  26
ENDBRANCH   1  23
TORSDOF 7
ENDMDL
MODEL 5
REMARK VINA RESULT:      -8.7      8.985     16.371
REMARK  Name = 52918384
REMARK  7 active torsions:
REMARK  status: ('A' for Active; 'I' for Inactive)
REMARK    1  A    between atoms: N_1  and  N_23
REMARK    2  A    between atoms: C_24  and  C_26
REMARK    3  A    between atoms: C_26  and  C_27
REMARK    4  A    between atoms: C_26  and  C_33
REMARK    5  A    between atoms: C_27  and  C_28
REMARK    6  A    between atoms: C_33  and  N_35
REMARK    7  A    between atoms: N_35  and  O_37
REMARK                            x       y       z     vdW  Elec       q    Type
REMARK                         _______ _______ _______ _____ _____    ______ ____
ROOT
ATOM      1  N   UNL     1      34.337  -9.232 -23.626  0.00  0.00    -0.238 N 
ATOM      2  H   UNL     1      35.194  -9.273 -24.108  0.00  0.00    +0.172 HD
ATOM      3  F   UNL     1      34.859  -7.254 -25.465  0.00  0.00    -0.219 F 
ATOM      4  O   UNL     1      34.668  -3.548 -30.000  0.00  0.00    -0.358 OA
ATOM      5  N   UNL     1      33.711  -2.864 -27.406  0.00  0.00    +0.394 N 
ATOM      6  N   UNL     1      33.368  -4.953 -25.492  0.00  0.00    -0.288 N 
ATOM      7  N   UNL     1      32.086  -5.751 -23.672  0.00  0.00    -0.330 NA
ATOM      8  N   UNL     1      32.572  -7.914 -22.726  0.00  0.00    -0.329 NA
ATOM      9  C   UNL     1      34.105  -4.247 -27.738  0.00  0.00    -0.008 C 
ATOM     10  C   UNL     1      33.283  -5.258 -26.924  0.00  0.00    +0.075 C 
ATOM     11  C   UNL     1      33.920  -2.603 -25.979  0.00  0.00    -0.055 C 
ATOM     12  C   UNL     1      33.089  -3.561 -25.121  0.00  0.00    +0.070 C 
ATOM     13  C   UNL     1      33.909  -4.489 -29.239  0.00  0.00    +0.123 C 
ATOM     14  C   UNL     1      34.471  -1.909 -28.226  0.00  0.00    -0.044 C 
ATOM     15  C   UNL     1      34.260  -2.212 -29.705  0.00  0.00    +0.119 C 
ATOM     16  C   UNL     1      33.089  -5.951 -24.551  0.00  0.00    +0.213 C 
ATOM     17  C   UNL     1      33.869  -7.089 -24.579  0.00  0.00    +0.295 C 
ATOM     18  C   UNL     1      33.562  -8.046 -23.634  0.00  0.00    +0.226 C 
ATOM     19  C   UNL     1      31.884  -6.758 -22.800  0.00  0.00    +0.117 C 
ATOM     20  C   UNL     1      30.782  -6.574 -21.814  0.00  0.00    +0.143 C 
ATOM     21  H   UNL     1      32.720  -2.747 -27.613  0.00  0.00    -0.079 HD
ENDROOT
BRANCH   1  23
ATOM     22  O   UNL     1      33.621 -11.555 -24.879  0.00  0.00    -0.274 OA
ATOM     23  N   UNL     1      33.877 -10.308 -22.940  0.00  0.00    -0.234 N 
ATOM     24  C   UNL     1      33.539 -11.441 -23.658  0.00  0.00    +0.239 C 
ATOM     25  H   UNL     1      33.787 -10.284 -21.960  0.00  0.00    +0.173 HD
BRANCH  24  26
ATOM     26  C   UNL     1      33.058 -12.576 -22.749  0.00  0.00    +0.100 C 
BRANCH  26  27
ATOM     27  C   UNL     1      33.086 -13.942 -23.458  0.00  0.00    +0.011 C 
BRANCH  27  28
ATOM     28  C   UNL     1      34.140 -14.871 -22.881  0.00  0.00    +0.001 C 
ATOM     29  C   UNL     1      33.924 -15.181 -21.402  0.00  0.00    +0.000 C 
ATOM     30  C   UNL     1      34.127 -16.261 -23.510  0.00  0.00    +0.000 C 
ATOM     31  C   UNL     1      34.903 -17.120 -22.518  0.00  0.00    +0.000 C 
ATOM     32  C   UNL     1      34.763 -16.432 -21.159  0.00  0.00    +0.000 C 
ENDBRANCH  27  28
ENDBRANCH  26  27
BRANCH  26  33
ATOM     33  C   UNL     1      31.656 -12.254 -22.209  0.00  0.00    +0.133 C 
BRANCH  33  35
ATOM     34  O   UNL     1      31.528  -9.924 -20.504  0.00  0.00    -0.263 OA
ATOM     35  N   UNL     1      31.596 -12.224 -20.772  0.00  0.00    -0.164 N 
ATOM     36  C   UNL     1      31.537 -11.064 -20.055  0.00  0.00    +0.327 C 
BRANCH  35  37
ATOM     37  O   UNL     1      31.601 -13.493 -20.174  0.00  0.00    -0.291 OA
ATOM     38  H   UNL     1      30.696 -13.736 -19.923  0.00  0.00    +0.242 HD
ENDBRANCH  35  37
ENDBRANCH  33  35
ENDBRANCH  26  33
ENDBRANCH  24  26
ENDBRANCH   1  23
TORSDOF 7
ENDMDL
MODEL 6
REMARK VINA RESULT:      -8.7      5.574     12.334
REMARK  Name = 52918384
REMARK  7 active torsions:
REMARK  status: ('A' for Active; 'I' for Inactive)
REMARK    1  A    between atoms: N_1  and  N_23
REMARK    2  A    between atoms: C_24  and  C_26
REMARK    3  A    between atoms: C_26  and  C_27
REMARK    4  A    between atoms: C_26  and  C_33
REMARK    5  A    between atoms: C_27  and  C_28
REMARK    6  A    between atoms: C_33  and  N_35
REMARK    7  A    between atoms: N_35  and  O_37
REMARK                            x       y       z     vdW  Elec       q    Type
REMARK                         _______ _______ _______ _____ _____    ______ ____
ROOT
ATOM      1  N   UNL     1      33.226 -13.933 -21.677  0.00  0.00    -0.238 N 
ATOM      2  H   UNL     1      32.933 -13.797 -20.747  0.00  0.00    +0.172 HD
ATOM      3  F   UNL     1      32.409 -11.408 -20.955  0.00  0.00    -0.219 F 
ATOM      4  O   UNL     1      32.075  -5.656 -19.888  0.00  0.00    -0.358 OA
ATOM      5  N   UNL     1      31.090  -6.841 -22.282  0.00  0.00    +0.394 N 
ATOM      6  N   UNL     1      31.836  -9.532 -22.871  0.00  0.00    -0.288 N 
ATOM      7  N   UNL     1      32.359 -11.093 -24.569  0.00  0.00    -0.330 NA
ATOM      8  N   UNL     1      33.062 -13.319 -23.970  0.00  0.00    -0.329 NA
ATOM      9  C   UNL     1      31.895  -7.615 -21.319  0.00  0.00    -0.008 C 
ATOM     10  C   UNL     1      32.712  -8.700 -22.039  0.00  0.00    +0.075 C 
ATOM     11  C   UNL     1      30.169  -7.725 -23.003  0.00  0.00    -0.055 C 
ATOM     12  C   UNL     1      30.936  -8.804 -23.772  0.00  0.00    +0.070 C 
ATOM     13  C   UNL     1      32.829  -6.669 -20.555  0.00  0.00    +0.123 C 
ATOM     14  C   UNL     1      30.352  -5.777 -21.587  0.00  0.00    -0.044 C 
ATOM     15  C   UNL     1      31.324  -4.884 -20.825  0.00  0.00    +0.119 C 
ATOM     16  C   UNL     1      32.252 -10.812 -23.254  0.00  0.00    +0.213 C 
ATOM     17  C   UNL     1      32.528 -11.719 -22.252  0.00  0.00    +0.295 C 
ATOM     18  C   UNL     1      32.932 -12.970 -22.672  0.00  0.00    +0.226 C 
ATOM     19  C   UNL     1      32.763 -12.346 -24.852  0.00  0.00    +0.117 C 
ATOM     20  C   UNL     1      32.895 -12.693 -26.296  0.00  0.00    +0.143 C 
ATOM     21  H   UNL     1      31.716  -6.407 -22.960  0.00  0.00    -0.079 HD
ENDROOT
BRANCH   1  23
ATOM     22  O   UNL     1      34.136 -15.725 -19.821  0.00  0.00    -0.274 OA
ATOM     23  N   UNL     1      33.916 -15.047 -22.028  0.00  0.00    -0.234 N 
ATOM     24  C   UNL     1      34.338 -15.897 -21.022  0.00  0.00    +0.239 C 
ATOM     25  H   UNL     1      34.112 -15.244 -22.973  0.00  0.00    +0.173 HD
BRANCH  24  26
ATOM     26  C   UNL     1      35.084 -17.116 -21.572  0.00  0.00    +0.100 C 
BRANCH  26  27
ATOM     27  C   UNL     1      34.972 -17.226 -23.103  0.00  0.00    +0.011 C 
BRANCH  27  28
ATOM     28  C   UNL     1      33.715 -17.958 -23.539  0.00  0.00    +0.001 C 
ATOM     29  C   UNL     1      32.917 -17.205 -24.599  0.00  0.00    +0.000 C 
ATOM     30  C   UNL     1      34.003 -19.287 -24.233  0.00  0.00    +0.000 C 
ATOM     31  C   UNL     1      32.703 -19.610 -24.961  0.00  0.00    +0.000 C 
ATOM     32  C   UNL     1      32.009 -18.270 -25.207  0.00  0.00    +0.000 C 
ENDBRANCH  27  28
ENDBRANCH  26  27
BRANCH  26  33
ATOM     33  C   UNL     1      34.580 -18.391 -20.880  0.00  0.00    +0.133 C 
BRANCH  33  35
ATOM     34  O   UNL     1      34.381 -21.055 -19.776  0.00  0.00    -0.263 OA
ATOM     35  N   UNL     1      35.638 -19.184 -20.314  0.00  0.00    -0.164 N 
ATOM     36  C   UNL     1      35.441 -20.440 -19.815  0.00  0.00    +0.327 C 
BRANCH  35  37
ATOM     37  O   UNL     1      36.891 -18.554 -20.320  0.00  0.00    -0.291 OA
ATOM     38  H   UNL     1      36.841 -17.731 -19.807  0.00  0.00    +0.242 HD
ENDBRANCH  35  37
ENDBRANCH  33  35
ENDBRANCH  26  33
ENDBRANCH  24  26
ENDBRANCH   1  23
TORSDOF 7
ENDMDL
