MODEL 1
REMARK VINA RESULT:      -9.2      0.000      0.000
REMARK  Name = 10090485
REMARK  3 active torsions:
REMARK  status: ('A' for Active; 'I' for Inactive)
REMARK    1  A    between atoms: C_7  and  C_10
REMARK    2  A    between atoms: C_8  and  C_25
REMARK    3  A    between atoms: C_16  and  C_21
REMARK                            x       y       z     vdW  Elec       q    Type
REMARK                         _______ _______ _______ _____ _____    ______ ____
ROOT
ATOM      1  N   UNL     1      31.832 -23.114 -14.556  0.00  0.00    -0.255 N 
ATOM      2  N   UNL     1      32.394 -22.279 -15.422  0.00  0.00    -0.167 NA
ATOM      3  C   UNL     1      32.600 -24.150 -14.142  0.00  0.00    +0.057 A 
ATOM      4  C   UNL     1      31.868 -24.994 -13.183  0.00  0.00    +0.048 C 
ATOM      5  C   UNL     1      30.407 -24.494 -13.371  0.00  0.00    +0.033 C 
ATOM      6  C   UNL     1      30.504 -23.081 -13.980  0.00  0.00    +0.127 C 
ATOM      7  C   UNL     1      33.795 -24.010 -14.788  0.00  0.00    +0.035 A 
ATOM      8  C   UNL     1      33.611 -22.832 -15.569  0.00  0.00    +0.131 A 
ENDROOT
BRANCH   7  10
ATOM      9  N   UNL     1      37.056 -26.663 -14.458  0.00  0.00    -0.248 NA
ATOM     10  C   UNL     1      34.910 -24.900 -14.635  0.00  0.00    +0.002 C 
ATOM     11  C   UNL     1      35.630 -25.008 -13.438  0.00  0.00    -0.004 C 
ATOM     12  C   UNL     1      35.262 -25.669 -15.733  0.00  0.00    +0.020 C 
ATOM     13  C   UNL     1      36.711 -25.915 -13.393  0.00  0.00    +0.060 C 
ATOM     14  C   UNL     1      35.298 -24.243 -12.306  0.00  0.00    +0.058 C 
ATOM     15  C   UNL     1      36.334 -26.527 -15.594  0.00  0.00    +0.098 C 
ATOM     16  C   UNL     1      36.031 -24.371 -11.130  0.00  0.00    +0.031 C 
ATOM     17  C   UNL     1      37.426 -26.023 -12.204  0.00  0.00    +0.071 C 
ATOM     18  C   UNL     1      37.097 -25.262 -11.078  0.00  0.00    -0.019 C 
BRANCH  16  21
ATOM     19  O   UNL     1      34.936 -24.023  -9.074  0.00  0.00    -0.271 OA
ATOM     20  N   UNL     1      36.237 -22.305  -9.856  0.00  0.00    -0.326 N 
ATOM     21  C   UNL     1      35.685 -23.579  -9.961  0.00  0.00    +0.239 C 
ATOM     22  H   UNL     1      36.025 -21.739  -9.079  0.00  0.00    +0.145 HD
ATOM     23  H   UNL     1      36.839 -21.970 -10.559  0.00  0.00    +0.145 HD
ENDBRANCH  16  21
ENDBRANCH   7  10
BRANCH   8  25
ATOM     24  N   UNL     1      34.169 -22.055 -17.728  0.00  0.00    -0.409 NA
ATOM     25  C   UNL     1      34.576 -22.223 -16.453  0.00  0.00    +0.150 C 
ATOM     26  C   UNL     1      35.817 -21.853 -15.971  0.00  0.00    +0.029 C 
ATOM     27  C   UNL     1      35.061 -21.480 -18.565  0.00  0.00    +0.091 C 
ATOM     28  C   UNL     1      36.706 -21.264 -16.863  0.00  0.00    -0.016 C 
ATOM     29  C   UNL     1      36.329 -21.071 -18.187  0.00  0.00    +0.080 C 
ATOM     30  C   UNL     1      34.623 -21.290 -19.980  0.00  0.00    +0.062 C 
ENDBRANCH   8  25
TORSDOF 3
ENDMDL
MODEL 2
REMARK VINA RESULT:      -8.8      2.126      4.996
REMARK  Name = 10090485
REMARK  3 active torsions:
REMARK  status: ('A' for Active; 'I' for Inactive)
REMARK    1  A    between atoms: C_7  and  C_10
REMARK    2  A    between atoms: C_8  and  C_25
REMARK    3  A    between atoms: C_16  and  C_21
REMARK                            x       y       z     vdW  Elec       q    Type
REMARK                         _______ _______ _______ _____ _____    ______ ____
ROOT
ATOM      1  N   UNL     1      34.746 -22.113 -16.835  0.00  0.00    -0.255 N 
ATOM      2  N   UNL     1      33.456 -22.419 -16.916  0.00  0.00    -0.167 NA
ATOM      3  C   UNL     1      35.349 -22.384 -15.653  0.00  0.00    +0.057 A 
ATOM      4  C   UNL     1      36.772 -22.007 -15.693  0.00  0.00    +0.048 C 
ATOM      5  C   UNL     1      36.831 -21.129 -16.975  0.00  0.00    +0.033 C 
ATOM      6  C   UNL     1      35.613 -21.526 -17.834  0.00  0.00    +0.127 C 
ATOM      7  C   UNL     1      34.381 -22.922 -14.855  0.00  0.00    +0.035 A 
ATOM      8  C   UNL     1      33.226 -22.921 -15.690  0.00  0.00    +0.131 A 
ENDROOT
BRANCH   7  10
ATOM      9  N   UNL     1      34.891 -24.155 -10.855  0.00  0.00    -0.248 NA
ATOM     10  C   UNL     1      34.592 -23.359 -13.504  0.00  0.00    +0.002 C 
ATOM     11  C   UNL     1      35.738 -24.063 -13.109  0.00  0.00    -0.004 C 
ATOM     12  C   UNL     1      33.606 -23.057 -12.578  0.00  0.00    +0.020 C 
ATOM     13  C   UNL     1      35.848 -24.447 -11.756  0.00  0.00    +0.060 C 
ATOM     14  C   UNL     1      36.756 -24.384 -14.023  0.00  0.00    +0.058 C 
ATOM     15  C   UNL     1      33.801 -23.474 -11.278  0.00  0.00    +0.098 C 
ATOM     16  C   UNL     1      37.884 -25.085 -13.603  0.00  0.00    +0.031 C 
ATOM     17  C   UNL     1      36.986 -25.146 -11.364  0.00  0.00    +0.071 C 
ATOM     18  C   UNL     1      37.999 -25.466 -12.272  0.00  0.00    -0.019 C 
BRANCH  16  21
ATOM     19  O   UNL     1      39.500 -26.523 -14.534  0.00  0.00    -0.271 OA
ATOM     20  N   UNL     1      39.280 -24.453 -15.497  0.00  0.00    -0.326 N 
ATOM     21  C   UNL     1      38.936 -25.415 -14.551  0.00  0.00    +0.239 C 
ATOM     22  H   UNL     1      39.989 -24.641 -16.155  0.00  0.00    +0.145 HD
ATOM     23  H   UNL     1      38.817 -23.585 -15.507  0.00  0.00    +0.145 HD
ENDBRANCH  16  21
ENDBRANCH   7  10
BRANCH   8  25
ATOM     24  N   UNL     1      30.883 -22.708 -15.895  0.00  0.00    -0.409 NA
ATOM     25  C   UNL     1      31.907 -23.389 -15.340  0.00  0.00    +0.150 C 
ATOM     26  C   UNL     1      31.761 -24.470 -14.491  0.00  0.00    +0.029 C 
ATOM     27  C   UNL     1      29.642 -23.140 -15.580  0.00  0.00    +0.091 C 
ATOM     28  C   UNL     1      30.468 -24.885 -14.192  0.00  0.00    -0.016 C 
ATOM     29  C   UNL     1      29.382 -24.212 -14.743  0.00  0.00    +0.080 C 
ATOM     30  C   UNL     1      28.500 -22.394 -16.188  0.00  0.00    +0.062 C 
ENDBRANCH   8  25
TORSDOF 3
ENDMDL
MODEL 3
REMARK VINA RESULT:      -8.7      2.434      5.397
REMARK  Name = 10090485
REMARK  3 active torsions:
REMARK  status: ('A' for Active; 'I' for Inactive)
REMARK    1  A    between atoms: C_7  and  C_10
REMARK    2  A    between atoms: C_8  and  C_25
REMARK    3  A    between atoms: C_16  and  C_21
REMARK                            x       y       z     vdW  Elec       q    Type
REMARK                         _______ _______ _______ _____ _____    ______ ____
ROOT
ATOM      1  N   UNL     1      33.288 -22.323 -17.901  0.00  0.00    -0.255 N 
ATOM      2  N   UNL     1      31.993 -22.618 -17.922  0.00  0.00    -0.167 NA
ATOM      3  C   UNL     1      33.889 -22.372 -16.687  0.00  0.00    +0.057 A 
ATOM      4  C   UNL     1      35.318 -22.033 -16.797  0.00  0.00    +0.048 C 
ATOM      5  C   UNL     1      35.390 -21.420 -18.225  0.00  0.00    +0.033 C 
ATOM      6  C   UNL     1      34.163 -21.954 -18.992  0.00  0.00    +0.127 C 
ATOM      7  C   UNL     1      32.914 -22.730 -15.802  0.00  0.00    +0.035 A 
ATOM      8  C   UNL     1      31.757 -22.870 -16.623  0.00  0.00    +0.131 A 
ENDROOT
BRANCH   7  10
ATOM      9  N   UNL     1      33.422 -23.160 -11.638  0.00  0.00    -0.248 NA
ATOM     10  C   UNL     1      33.121 -22.902 -14.392  0.00  0.00    +0.002 C 
ATOM     11  C   UNL     1      34.149 -23.699 -13.872  0.00  0.00    -0.004 C 
ATOM     12  C   UNL     1      32.252 -22.240 -13.538  0.00  0.00    +0.020 C 
ATOM     13  C   UNL     1      34.265 -23.802 -12.470  0.00  0.00    +0.060 C 
ATOM     14  C   UNL     1      35.046 -24.383 -14.710  0.00  0.00    +0.058 C 
ATOM     15  C   UNL     1      32.444 -22.400 -12.182  0.00  0.00    +0.098 C 
ATOM     16  C   UNL     1      36.058 -25.169 -14.166  0.00  0.00    +0.031 C 
ATOM     17  C   UNL     1      35.286 -24.594 -11.953  0.00  0.00    +0.071 C 
ATOM     18  C   UNL     1      36.179 -25.274 -12.786  0.00  0.00    -0.019 C 
BRANCH  16  21
ATOM     19  O   UNL     1      36.609 -26.811 -15.761  0.00  0.00    -0.271 OA
ATOM     20  N   UNL     1      38.312 -25.454 -15.046  0.00  0.00    -0.326 N 
ATOM     21  C   UNL     1      36.985 -25.875 -15.036  0.00  0.00    +0.239 C 
ATOM     22  H   UNL     1      38.969 -25.908 -15.622  0.00  0.00    +0.145 HD
ATOM     23  H   UNL     1      38.594 -24.702 -14.476  0.00  0.00    +0.145 HD
ENDBRANCH  16  21
ENDBRANCH   7  10
BRANCH   8  25
ATOM     24  N   UNL     1      29.435 -22.444 -16.631  0.00  0.00    -0.409 NA
ATOM     25  C   UNL     1      30.431 -23.239 -16.191  0.00  0.00    +0.150 C 
ATOM     26  C   UNL     1      30.252 -24.348 -15.385  0.00  0.00    +0.029 C 
ATOM     27  C   UNL     1      28.187 -22.783 -16.238  0.00  0.00    +0.091 C 
ATOM     28  C   UNL     1      28.953 -24.664 -15.003  0.00  0.00    -0.016 C 
ATOM     29  C   UNL     1      27.895 -23.871 -15.433  0.00  0.00    +0.080 C 
ATOM     30  C   UNL     1      27.074 -21.909 -16.718  0.00  0.00    +0.062 C 
ENDBRANCH   8  25
TORSDOF 3
ENDMDL
MODEL 4
REMARK VINA RESULT:      -7.9      1.805      3.256
REMARK  Name = 10090485
REMARK  3 active torsions:
REMARK  status: ('A' for Active; 'I' for Inactive)
REMARK    1  A    between atoms: C_7  and  C_10
REMARK    2  A    between atoms: C_8  and  C_25
REMARK    3  A    between atoms: C_16  and  C_21
REMARK                            x       y       z     vdW  Elec       q    Type
REMARK                         _______ _______ _______ _____ _____    ______ ____
ROOT
ATOM      1  N   UNL     1      31.458 -23.662 -15.128  0.00  0.00    -0.255 N 
ATOM      2  N   UNL     1      32.308 -23.052 -15.946  0.00  0.00    -0.167 NA
ATOM      3  C   UNL     1      31.934 -23.975 -13.899  0.00  0.00    +0.057 A 
ATOM      4  C   UNL     1      30.899 -24.638 -13.089  0.00  0.00    +0.048 C 
ATOM      5  C   UNL     1      29.835 -24.996 -14.166  0.00  0.00    +0.033 C 
ATOM      6  C   UNL     1      30.082 -24.046 -15.357  0.00  0.00    +0.127 C 
ATOM      7  C   UNL     1      33.229 -23.540 -13.879  0.00  0.00    +0.035 A 
ATOM      8  C   UNL     1      33.407 -22.975 -15.175  0.00  0.00    +0.131 A 
ENDROOT
BRANCH   7  10
ATOM      9  N   UNL     1      35.741 -23.854 -10.507  0.00  0.00    -0.248 NA
ATOM     10  C   UNL     1      34.111 -23.671 -12.755  0.00  0.00    +0.002 C 
ATOM     11  C   UNL     1      35.308 -24.398 -12.815  0.00  0.00    -0.004 C 
ATOM     12  C   UNL     1      33.735 -23.042 -11.578  0.00  0.00    +0.020 C 
ATOM     13  C   UNL     1      36.103 -24.464 -11.652  0.00  0.00    +0.060 C 
ATOM     14  C   UNL     1      35.717 -25.046 -13.993  0.00  0.00    +0.058 C 
ATOM     15  C   UNL     1      34.578 -23.163 -10.492  0.00  0.00    +0.098 C 
ATOM     16  C   UNL     1      36.911 -25.761 -14.024  0.00  0.00    +0.031 C 
ATOM     17  C   UNL     1      37.292 -25.185 -11.711  0.00  0.00    +0.071 C 
ATOM     18  C   UNL     1      37.700 -25.831 -12.882  0.00  0.00    -0.019 C 
BRANCH  16  21
ATOM     19  O   UNL     1      36.528 -27.073 -15.942  0.00  0.00    -0.271 OA
ATOM     20  N   UNL     1      38.667 -26.314 -15.619  0.00  0.00    -0.326 N 
ATOM     21  C   UNL     1      37.332 -26.431 -15.244  0.00  0.00    +0.239 C 
ATOM     22  H   UNL     1      38.989 -26.754 -16.439  0.00  0.00    +0.145 HD
ATOM     23  H   UNL     1      39.291 -25.791 -15.065  0.00  0.00    +0.145 HD
ENDBRANCH  16  21
ENDBRANCH   7  10
BRANCH   8  25
ATOM     24  N   UNL     1      34.610 -22.122 -17.019  0.00  0.00    -0.409 NA
ATOM     25  C   UNL     1      34.607 -22.364 -15.693  0.00  0.00    +0.150 C 
ATOM     26  C   UNL     1      35.652 -22.063 -14.838  0.00  0.00    +0.029 C 
ATOM     27  C   UNL     1      35.726 -21.543 -17.516  0.00  0.00    +0.091 C 
ATOM     28  C   UNL     1      36.782 -21.468 -15.387  0.00  0.00    -0.016 C 
ATOM     29  C   UNL     1      36.828 -21.200 -16.750  0.00  0.00    +0.080 C 
ATOM     30  C   UNL     1      35.742 -21.271 -18.984  0.00  0.00    +0.062 C 
ENDBRANCH   8  25
TORSDOF 3
ENDMDL
MODEL 5
REMARK VINA RESULT:      -7.7      3.032      5.755
REMARK  Name = 10090485
REMARK  3 active torsions:
REMARK  status: ('A' for Active; 'I' for Inactive)
REMARK    1  A    between atoms: C_7  and  C_10
REMARK    2  A    between atoms: C_8  and  C_25
REMARK    3  A    between atoms: C_16  and  C_21
REMARK                            x       y       z     vdW  Elec       q    Type
REMARK                         _______ _______ _______ _____ _____    ______ ____
ROOT
ATOM      1  N   UNL     1      32.011 -21.718 -18.136  0.00  0.00    -0.255 N 
ATOM      2  N   UNL     1      31.050 -21.962 -17.252  0.00  0.00    -0.167 NA
ATOM      3  C   UNL     1      33.247 -22.169 -17.811  0.00  0.00    +0.057 A 
ATOM      4  C   UNL     1      34.218 -21.845 -18.869  0.00  0.00    +0.048 C 
ATOM      5  C   UNL     1      33.429 -20.805 -19.715  0.00  0.00    +0.033 C 
ATOM      6  C   UNL     1      31.935 -21.036 -19.410  0.00  0.00    +0.127 C 
ATOM      7  C   UNL     1      33.115 -22.772 -16.593  0.00  0.00    +0.035 A 
ATOM      8  C   UNL     1      31.731 -22.614 -16.294  0.00  0.00    +0.131 A 
ENDROOT
BRANCH   7  10
ATOM      9  N   UNL     1      36.198 -24.693 -14.450  0.00  0.00    -0.248 NA
ATOM     10  C   UNL     1      34.191 -23.394 -15.875  0.00  0.00    +0.002 C 
ATOM     11  C   UNL     1      35.482 -22.850 -15.828  0.00  0.00    -0.004 C 
ATOM     12  C   UNL     1      33.910 -24.579 -15.213  0.00  0.00    +0.020 C 
ATOM     13  C   UNL     1      36.468 -23.542 -15.095  0.00  0.00    +0.060 C 
ATOM     14  C   UNL     1      35.799 -21.650 -16.489  0.00  0.00    +0.058 C 
ATOM     15  C   UNL     1      34.939 -25.184 -14.521  0.00  0.00    +0.098 C 
ATOM     16  C   UNL     1      37.090 -21.132 -16.425  0.00  0.00    +0.031 C 
ATOM     17  C   UNL     1      37.750 -23.001 -15.048  0.00  0.00    +0.071 C 
ATOM     18  C   UNL     1      38.066 -21.809 -15.704  0.00  0.00    -0.019 C 
BRANCH  16  21
ATOM     19  O   UNL     1      36.816 -19.543 -18.141  0.00  0.00    -0.271 OA
ATOM     20  N   UNL     1      38.411 -19.090 -16.558  0.00  0.00    -0.326 N 
ATOM     21  C   UNL     1      37.415 -19.891 -17.109  0.00  0.00    +0.239 C 
ATOM     22  H   UNL     1      38.659 -18.242 -16.993  0.00  0.00    +0.145 HD
ATOM     23  H   UNL     1      38.869 -19.371 -15.733  0.00  0.00    +0.145 HD
ENDBRANCH  16  21
ENDBRANCH   7  10
BRANCH   8  25
ATOM     24  N   UNL     1      30.147 -24.061 -15.307  0.00  0.00    -0.409 NA
ATOM     25  C   UNL     1      31.045 -23.074 -15.111  0.00  0.00    +0.150 C 
ATOM     26  C   UNL     1      31.333 -22.508 -13.882  0.00  0.00    +0.029 C 
ATOM     27  C   UNL     1      29.502 -24.505 -14.205  0.00  0.00    +0.091 C 
ATOM     28  C   UNL     1      30.649 -22.992 -12.773  0.00  0.00    -0.016 C 
ATOM     29  C   UNL     1      29.714 -24.010 -12.929  0.00  0.00    +0.080 C 
ATOM     30  C   UNL     1      28.504 -25.597 -14.409  0.00  0.00    +0.062 C 
ENDBRANCH   8  25
TORSDOF 3
ENDMDL
MODEL 6
REMARK VINA RESULT:      -7.7      2.217      3.529
REMARK  Name = 10090485
REMARK  3 active torsions:
REMARK  status: ('A' for Active; 'I' for Inactive)
REMARK    1  A    between atoms: C_7  and  C_10
REMARK    2  A    between atoms: C_8  and  C_25
REMARK    3  A    between atoms: C_16  and  C_21
REMARK                            x       y       z     vdW  Elec       q    Type
REMARK                         _______ _______ _______ _____ _____    ______ ____
ROOT
ATOM      1  N   UNL     1      32.082 -23.322 -15.226  0.00  0.00    -0.255 N 
ATOM      2  N   UNL     1      31.819 -22.792 -16.415  0.00  0.00    -0.167 NA
ATOM      3  C   UNL     1      33.368 -23.235 -14.808  0.00  0.00    +0.057 A 
ATOM      4  C   UNL     1      33.529 -23.850 -13.479  0.00  0.00    +0.048 C 
ATOM      5  C   UNL     1      32.198 -24.641 -13.333  0.00  0.00    +0.033 C 
ATOM      6  C   UNL     1      31.191 -23.985 -14.299  0.00  0.00    +0.127 C 
ATOM      7  C   UNL     1      34.042 -22.590 -15.805  0.00  0.00    +0.035 A 
ATOM      8  C   UNL     1      33.031 -22.338 -16.777  0.00  0.00    +0.131 A 
ENDROOT
BRANCH   7  10
ATOM      9  N   UNL     1      38.136 -21.579 -15.756  0.00  0.00    -0.248 NA
ATOM     10  C   UNL     1      35.444 -22.285 -15.771  0.00  0.00    +0.002 C 
ATOM     11  C   UNL     1      36.399 -23.177 -15.266  0.00  0.00    -0.004 C 
ATOM     12  C   UNL     1      35.835 -21.049 -16.263  0.00  0.00    +0.020 C 
ATOM     13  C   UNL     1      37.753 -22.778 -15.278  0.00  0.00    +0.060 C 
ATOM     14  C   UNL     1      36.035 -24.437 -14.760  0.00  0.00    +0.058 C 
ATOM     15  C   UNL     1      37.181 -20.747 -16.233  0.00  0.00    +0.098 C 
ATOM     16  C   UNL     1      37.005 -25.304 -14.265  0.00  0.00    +0.031 C 
ATOM     17  C   UNL     1      38.701 -23.665 -14.777  0.00  0.00    +0.071 C 
ATOM     18  C   UNL     1      38.340 -24.918 -14.273  0.00  0.00    -0.019 C 
BRANCH  16  21
ATOM     19  O   UNL     1      36.817 -26.909 -12.552  0.00  0.00    -0.271 OA
ATOM     20  N   UNL     1      36.018 -27.503 -14.617  0.00  0.00    -0.326 N 
ATOM     21  C   UNL     1      36.625 -26.607 -13.742  0.00  0.00    +0.239 C 
ATOM     22  H   UNL     1      35.747 -28.395 -14.299  0.00  0.00    +0.145 HD
ATOM     23  H   UNL     1      35.860 -27.246 -15.554  0.00  0.00    +0.145 HD
ENDBRANCH  16  21
ENDBRANCH   7  10
BRANCH   8  25
ATOM     24  N   UNL     1      34.468 -21.606 -18.502  0.00  0.00    -0.409 NA
ATOM     25  C   UNL     1      33.201 -21.673 -18.046  0.00  0.00    +0.150 C 
ATOM     26  C   UNL     1      32.101 -21.161 -18.709  0.00  0.00    +0.029 C 
ATOM     27  C   UNL     1      34.639 -20.991 -19.693  0.00  0.00    +0.091 C 
ATOM     28  C   UNL     1      32.318 -20.536 -19.931  0.00  0.00    -0.016 C 
ATOM     29  C   UNL     1      33.609 -20.444 -20.440  0.00  0.00    +0.080 C 
ATOM     30  C   UNL     1      36.039 -20.910 -20.209  0.00  0.00    +0.062 C 
ENDBRANCH   8  25
TORSDOF 3
ENDMDL
MODEL 7
REMARK VINA RESULT:      -7.2      2.758      6.550
REMARK  Name = 10090485
REMARK  3 active torsions:
REMARK  status: ('A' for Active; 'I' for Inactive)
REMARK    1  A    between atoms: C_7  and  C_10
REMARK    2  A    between atoms: C_8  and  C_25
REMARK    3  A    between atoms: C_16  and  C_21
REMARK                            x       y       z     vdW  Elec       q    Type
REMARK                         _______ _______ _______ _____ _____    ______ ____
ROOT
ATOM      1  N   UNL     1      31.770 -23.669 -14.815  0.00  0.00    -0.255 N 
ATOM      2  N   UNL     1      32.399 -24.273 -13.814  0.00  0.00    -0.167 NA
ATOM      3  C   UNL     1      32.548 -22.953 -15.662  0.00  0.00    +0.057 A 
ATOM      4  C   UNL     1      31.737 -22.341 -16.727  0.00  0.00    +0.048 C 
ATOM      5  C   UNL     1      30.296 -22.512 -16.166  0.00  0.00    +0.033 C 
ATOM      6  C   UNL     1      30.360 -23.662 -15.141  0.00  0.00    +0.127 C 
ATOM      7  C   UNL     1      33.824 -23.079 -15.192  0.00  0.00    +0.035 A 
ATOM      8  C   UNL     1      33.673 -23.909 -14.044  0.00  0.00    +0.131 A 
ENDROOT
BRANCH   7  10
ATOM      9  N   UNL     1      37.275 -21.336 -16.876  0.00  0.00    -0.248 NA
ATOM     10  C   UNL     1      34.975 -22.475 -15.800  0.00  0.00    +0.002 C 
ATOM     11  C   UNL     1      34.934 -21.876 -17.066  0.00  0.00    -0.004 C 
ATOM     12  C   UNL     1      36.160 -22.502 -15.080  0.00  0.00    +0.020 C 
ATOM     13  C   UNL     1      36.123 -21.311 -17.573  0.00  0.00    +0.060 C 
ATOM     14  C   UNL     1      33.749 -21.832 -17.821  0.00  0.00    +0.058 C 
ATOM     15  C   UNL     1      37.271 -21.924 -15.657  0.00  0.00    +0.098 C 
ATOM     16  C   UNL     1      33.737 -21.231 -19.077  0.00  0.00    +0.031 C 
ATOM     17  C   UNL     1      36.082 -20.716 -18.831  0.00  0.00    +0.071 C 
ATOM     18  C   UNL     1      34.905 -20.672 -19.582  0.00  0.00    -0.019 C 
BRANCH  16  21
ATOM     19  O   UNL     1      31.919 -22.226 -20.194  0.00  0.00    -0.271 OA
ATOM     20  N   UNL     1      32.004 -19.935 -20.196  0.00  0.00    -0.326 N 
ATOM     21  C   UNL     1      32.510 -21.187 -19.856  0.00  0.00    +0.239 C 
ATOM     22  H   UNL     1      31.175 -19.866 -20.723  0.00  0.00    +0.145 HD
ATOM     23  H   UNL     1      32.475 -19.119 -19.910  0.00  0.00    +0.145 HD
ENDBRANCH  16  21
ENDBRANCH   7  10
BRANCH   8  25
ATOM     24  N   UNL     1      34.677 -23.869 -11.907  0.00  0.00    -0.409 NA
ATOM     25  C   UNL     1      34.721 -24.362 -13.162  0.00  0.00    +0.150 C 
ATOM     26  C   UNL     1      35.678 -25.246 -13.624  0.00  0.00    +0.029 C 
ATOM     27  C   UNL     1      35.650 -24.290 -11.069  0.00  0.00    +0.091 C 
ATOM     28  C   UNL     1      36.662 -25.656 -12.731  0.00  0.00    -0.016 C 
ATOM     29  C   UNL     1      36.655 -25.173 -11.427  0.00  0.00    +0.080 C 
ATOM     30  C   UNL     1      35.613 -23.750  -9.677  0.00  0.00    +0.062 C 
ENDBRANCH   8  25
TORSDOF 3
ENDMDL
MODEL 8
REMARK VINA RESULT:      -6.7      1.852      4.853
REMARK  Name = 10090485
REMARK  3 active torsions:
REMARK  status: ('A' for Active; 'I' for Inactive)
REMARK    1  A    between atoms: C_7  and  C_10
REMARK    2  A    between atoms: C_8  and  C_25
REMARK    3  A    between atoms: C_16  and  C_21
REMARK                            x       y       z     vdW  Elec       q    Type
REMARK                         _______ _______ _______ _____ _____    ______ ____
ROOT
ATOM      1  N   UNL     1      31.026 -23.903 -14.112  0.00  0.00    -0.255 N 
ATOM      2  N   UNL     1      32.002 -24.653 -13.614  0.00  0.00    -0.167 NA
ATOM      3  C   UNL     1      31.359 -23.112 -15.161  0.00  0.00    +0.057 A 
ATOM      4  C   UNL     1      30.195 -22.339 -15.625  0.00  0.00    +0.048 C 
ATOM      5  C   UNL     1      29.199 -22.529 -14.445  0.00  0.00    +0.033 C 
ATOM      6  C   UNL     1      29.643 -23.802 -13.698  0.00  0.00    +0.127 C 
ATOM      7  C   UNL     1      32.684 -23.344 -15.397  0.00  0.00    +0.035 A 
ATOM      8  C   UNL     1      33.032 -24.309 -14.407  0.00  0.00    +0.131 A 
ENDROOT
BRANCH   7  10
ATOM      9  N   UNL     1      34.823 -21.481 -18.517  0.00  0.00    -0.248 NA
ATOM     10  C   UNL     1      33.447 -22.709 -16.433  0.00  0.00    +0.002 C 
ATOM     11  C   UNL     1      34.792 -22.351 -16.270  0.00  0.00    -0.004 C 
ATOM     12  C   UNL     1      32.798 -22.453 -17.632  0.00  0.00    +0.020 C 
ATOM     13  C   UNL     1      35.451 -21.730 -17.352  0.00  0.00    +0.060 C 
ATOM     14  C   UNL     1      35.478 -22.597 -15.068  0.00  0.00    +0.058 C 
ATOM     15  C   UNL     1      33.524 -21.842 -18.633  0.00  0.00    +0.098 C 
ATOM     16  C   UNL     1      36.815 -22.231 -14.933  0.00  0.00    +0.031 C 
ATOM     17  C   UNL     1      36.787 -21.376 -17.189  0.00  0.00    +0.071 C 
ATOM     18  C   UNL     1      37.469 -21.619 -15.994  0.00  0.00    -0.019 C 
BRANCH  16  21
ATOM     19  O   UNL     1      38.574 -23.147 -13.664  0.00  0.00    -0.271 OA
ATOM     20  N   UNL     1      36.990 -21.949 -12.519  0.00  0.00    -0.326 N 
ATOM     21  C   UNL     1      37.522 -22.487 -13.688  0.00  0.00    +0.239 C 
ATOM     22  H   UNL     1      37.441 -22.102 -11.657  0.00  0.00    +0.145 HD
ATOM     23  H   UNL     1      36.162 -21.417 -12.554  0.00  0.00    +0.145 HD
ENDBRANCH  16  21
ENDBRANCH   7  10
BRANCH   8  25
ATOM     24  N   UNL     1      34.857 -24.745 -12.974  0.00  0.00    -0.409 NA
ATOM     25  C   UNL     1      34.328 -24.909 -14.204  0.00  0.00    +0.150 C 
ATOM     26  C   UNL     1      34.938 -25.598 -15.235  0.00  0.00    +0.029 C 
ATOM     27  C   UNL     1      36.069 -25.307 -12.769  0.00  0.00    +0.091 C 
ATOM     28  C   UNL     1      36.184 -26.163 -14.984  0.00  0.00    -0.016 C 
ATOM     29  C   UNL     1      36.767 -26.019 -13.730  0.00  0.00    +0.080 C 
ATOM     30  C   UNL     1      36.666 -25.132 -11.412  0.00  0.00    +0.062 C 
ENDBRANCH   8  25
TORSDOF 3
ENDMDL
MODEL 9
REMARK VINA RESULT:      -6.5      2.803      6.291
REMARK  Name = 10090485
REMARK  3 active torsions:
REMARK  status: ('A' for Active; 'I' for Inactive)
REMARK    1  A    between atoms: C_7  and  C_10
REMARK    2  A    between atoms: C_8  and  C_25
REMARK    3  A    between atoms: C_16  and  C_21
REMARK                            x       y       z     vdW  Elec       q    Type
REMARK                         _______ _______ _______ _____ _____    ______ ____
ROOT
ATOM      1  N   UNL     1      32.841 -23.949 -14.042  0.00  0.00    -0.255 N 
ATOM      2  N   UNL     1      33.771 -24.689 -13.450  0.00  0.00    -0.167 NA
ATOM      3  C   UNL     1      33.293 -22.954 -14.842  0.00  0.00    +0.057 A 
ATOM      4  C   UNL     1      32.170 -22.214 -15.442  0.00  0.00    +0.048 C 
ATOM      5  C   UNL     1      30.971 -22.704 -14.580  0.00  0.00    +0.033 C 
ATOM      6  C   UNL     1      31.400 -24.049 -13.959  0.00  0.00    +0.127 C 
ATOM      7  C   UNL     1      34.656 -23.021 -14.788  0.00  0.00    +0.035 A 
ATOM      8  C   UNL     1      34.897 -24.116 -13.909  0.00  0.00    +0.131 A 
ENDROOT
BRANCH   7  10
ATOM      9  N   UNL     1      37.324 -20.425 -16.769  0.00  0.00    -0.248 NA
ATOM     10  C   UNL     1      35.540 -22.142 -15.498  0.00  0.00    +0.002 C 
ATOM     11  C   UNL     1      35.361 -21.822 -16.850  0.00  0.00    -0.004 C 
ATOM     12  C   UNL     1      36.605 -21.606 -14.790  0.00  0.00    +0.020 C 
ATOM     13  C   UNL     1      36.289 -20.947 -17.455  0.00  0.00    +0.060 C 
ATOM     14  C   UNL     1      34.292 -22.348 -17.596  0.00  0.00    +0.058 C 
ATOM     15  C   UNL     1      37.460 -20.761 -15.466  0.00  0.00    +0.098 C 
ATOM     16  C   UNL     1      34.137 -22.012 -18.938  0.00  0.00    +0.031 C 
ATOM     17  C   UNL     1      36.110 -20.629 -18.798  0.00  0.00    +0.071 C 
ATOM     18  C   UNL     1      35.048 -21.152 -19.540  0.00  0.00    -0.019 C 
BRANCH  16  21
ATOM     19  O   UNL     1      32.043 -21.865 -20.005  0.00  0.00    -0.271 OA
ATOM     20  N   UNL     1      33.121 -23.885 -20.119  0.00  0.00    -0.326 N 
ATOM     21  C   UNL     1      33.030 -22.558 -19.707  0.00  0.00    +0.239 C 
ATOM     22  H   UNL     1      32.390 -24.290 -20.641  0.00  0.00    +0.145 HD
ATOM     23  H   UNL     1      33.914 -24.419 -19.887  0.00  0.00    +0.145 HD
ENDBRANCH  16  21
ENDBRANCH   7  10
BRANCH   8  25
ATOM     24  N   UNL     1      37.143 -24.610 -14.446  0.00  0.00    -0.409 NA
ATOM     25  C   UNL     1      36.183 -24.627 -13.499  0.00  0.00    +0.150 C 
ATOM     26  C   UNL     1      36.363 -25.086 -12.208  0.00  0.00    +0.029 C 
ATOM     27  C   UNL     1      38.354 -25.079 -14.073  0.00  0.00    +0.091 C 
ATOM     28  C   UNL     1      37.624 -25.561 -11.863  0.00  0.00    -0.016 C 
ATOM     29  C   UNL     1      38.644 -25.561 -12.807  0.00  0.00    +0.080 C 
ATOM     30  C   UNL     1      39.426 -25.066 -15.113  0.00  0.00    +0.062 C 
ENDBRANCH   8  25
TORSDOF 3
ENDMDL
