MODEL 1
REMARK VINA RESULT:      -9.5      0.000      0.000
REMARK  Name = 45102284
REMARK  5 active torsions:
REMARK  status: ('A' for Active; 'I' for Inactive)
REMARK    1  A    between atoms: P_1  and  O_28
REMARK    2  A    between atoms: C_10  and  N_13
REMARK    3  A    between atoms: C_21  and  O_25
REMARK    4  A    between atoms: O_25  and  C_26
REMARK    5  A    between atoms: O_28  and  C_29
REMARK                            x       y       z     vdW  Elec       q    Type
REMARK                         _______ _______ _______ _____ _____    ______ ____
ROOT
ATOM      1  P   UNL     1      32.247  -6.306 -21.082  0.00  0.00    +0.480 P 
ATOM      2  F   UNL     1      29.984  -9.507 -22.791  0.00  0.00    -0.233 F 
ATOM      3  O   UNL     1      32.957  -9.912 -23.336  0.00  0.00    -0.333 OA
ATOM      4  O   UNL     1      31.228  -7.560 -21.282  0.00  0.00    -0.270 OA
ATOM      5  O   UNL     1      33.178  -6.345 -22.415  0.00  0.00    -0.270 OA
ATOM      6  O   UNL     1      33.008  -6.300 -19.788  0.00  0.00    -0.227 OA
ATOM      7  C   UNL     1      30.982  -9.944 -21.960  0.00  0.00    +0.204 C 
ATOM      8  C   UNL     1      31.870  -8.767 -21.631  0.00  0.00    +0.189 C 
ATOM      9  C   UNL     1      32.582  -8.590 -22.955  0.00  0.00    +0.177 C 
ATOM     10  C   UNL     1      31.933 -10.815 -22.816  0.00  0.00    +0.229 C 
ATOM     11  C   UNL     1      33.727  -7.605 -22.814  0.00  0.00    +0.186 C 
ATOM     12  C   UNL     1      30.307 -10.580 -20.762  0.00  0.00    +0.042 C 
ENDROOT
BRANCH  10  13
ATOM     13  N   UNL     1      32.598 -11.978 -22.118  0.00  0.00    -0.236 N 
ATOM     14  N   UNL     1      33.484 -13.188 -20.468  0.00  0.00    -0.239 NA
ATOM     15  N   UNL     1      32.900 -13.517 -23.973  0.00  0.00    -0.311 NA
ATOM     16  N   UNL     1      33.978 -15.583 -23.244  0.00  0.00    -0.289 NA
ATOM     17  N   UNL     1      33.359 -15.248 -25.479  0.00  0.00    -0.283 N 
ATOM     18  C   UNL     1      33.005 -13.152 -22.686  0.00  0.00    +0.223 C 
ATOM     19  C   UNL     1      32.907 -12.048 -20.785  0.00  0.00    +0.224 C 
ATOM     20  C   UNL     1      33.552 -13.888 -21.647  0.00  0.00    +0.190 C 
ATOM     21  C   UNL     1      34.050 -15.148 -21.963  0.00  0.00    +0.311 C 
ATOM     22  C   UNL     1      33.416 -14.753 -24.156  0.00  0.00    +0.200 C 
ATOM     23  H   UNL     1      32.963 -14.699 -26.194  0.00  0.00    +0.156 HD
ATOM     24  H   UNL     1      33.715 -16.143 -25.685  0.00  0.00    +0.156 HD
BRANCH  21  25
ATOM     25  O   UNL     1      34.616 -15.973 -21.024  0.00  0.00    -0.450 OA
BRANCH  25  26
ATOM     26  C   UNL     1      34.612 -17.365 -21.313  0.00  0.00    +0.208 C 
ATOM     27  C   UNL     1      36.037 -17.875 -21.302  0.00  0.00    +0.051 C 
ENDBRANCH  25  26
ENDBRANCH  21  25
ENDBRANCH  10  13
BRANCH   1  28
ATOM     28  O   UNL     1      31.308  -5.013 -21.324  0.00  0.00    -0.276 OA
BRANCH  28  29
ATOM     29  C   UNL     1      31.366  -4.401 -22.600  0.00  0.00    +0.126 C 
ATOM     30  C   UNL     1      31.125  -2.906 -22.449  0.00  0.00    +0.033 C 
ATOM     31  C   UNL     1      30.340  -5.050 -23.515  0.00  0.00    +0.033 C 
ENDBRANCH  28  29
ENDBRANCH   1  28
TORSDOF 5
ENDMDL
MODEL 2
REMARK VINA RESULT:      -9.4      1.437      1.660
REMARK  Name = 45102284
REMARK  5 active torsions:
REMARK  status: ('A' for Active; 'I' for Inactive)
REMARK    1  A    between atoms: P_1  and  O_28
REMARK    2  A    between atoms: C_10  and  N_13
REMARK    3  A    between atoms: C_21  and  O_25
REMARK    4  A    between atoms: O_25  and  C_26
REMARK    5  A    between atoms: O_28  and  C_29
REMARK                            x       y       z     vdW  Elec       q    Type
REMARK                         _______ _______ _______ _____ _____    ______ ____
ROOT
ATOM      1  P   UNL     1      32.629  -6.361 -21.902  0.00  0.00    +0.480 P 
ATOM      2  F   UNL     1      30.000  -9.074 -19.896  0.00  0.00    -0.233 F 
ATOM      3  O   UNL     1      30.810 -10.206 -22.609  0.00  0.00    -0.333 OA
ATOM      4  O   UNL     1      31.961  -7.354 -20.797  0.00  0.00    -0.270 OA
ATOM      5  O   UNL     1      31.842  -6.727 -23.277  0.00  0.00    -0.270 OA
ATOM      6  O   UNL     1      34.125  -6.427 -22.000  0.00  0.00    -0.227 OA
ATOM      7  C   UNL     1      31.172  -9.662 -20.293  0.00  0.00    +0.204 C 
ATOM      8  C   UNL     1      31.895  -8.703 -21.208  0.00  0.00    +0.189 C 
ATOM      9  C   UNL     1      31.027  -8.806 -22.444  0.00  0.00    +0.177 C 
ATOM     10  C   UNL     1      30.797 -10.799 -21.274  0.00  0.00    +0.229 C 
ATOM     11  C   UNL     1      31.688  -8.108 -23.617  0.00  0.00    +0.186 C 
ATOM     12  C   UNL     1      31.929 -10.023 -19.030  0.00  0.00    +0.042 C 
ENDROOT
BRANCH  10  13
ATOM     13  N   UNL     1      31.681 -12.024 -21.260  0.00  0.00    -0.236 N 
ATOM     14  N   UNL     1      32.850 -13.741 -20.451  0.00  0.00    -0.239 NA
ATOM     15  N   UNL     1      32.114 -12.307 -23.634  0.00  0.00    -0.311 NA
ATOM     16  N   UNL     1      33.552 -14.235 -24.048  0.00  0.00    -0.289 NA
ATOM     17  N   UNL     1      32.752 -12.905 -25.804  0.00  0.00    -0.283 N 
ATOM     18  C   UNL     1      32.237 -12.647 -22.341  0.00  0.00    +0.223 C 
ATOM     19  C   UNL     1      32.078 -12.718 -20.148  0.00  0.00    +0.224 C 
ATOM     20  C   UNL     1      32.957 -13.709 -21.819  0.00  0.00    +0.190 C 
ATOM     21  C   UNL     1      33.631 -14.520 -22.727  0.00  0.00    +0.311 C 
ATOM     22  C   UNL     1      32.809 -13.162 -24.415  0.00  0.00    +0.200 C 
ATOM     23  H   UNL     1      32.230 -12.141 -26.142  0.00  0.00    +0.156 HD
ATOM     24  H   UNL     1      33.234 -13.489 -26.433  0.00  0.00    +0.156 HD
BRANCH  21  25
ATOM     25  O   UNL     1      34.378 -15.601 -22.335  0.00  0.00    -0.450 OA
BRANCH  25  26
ATOM     26  C   UNL     1      34.401 -16.715 -23.219  0.00  0.00    +0.208 C 
ATOM     27  C   UNL     1      34.967 -17.913 -22.487  0.00  0.00    +0.051 C 
ENDBRANCH  25  26
ENDBRANCH  21  25
ENDBRANCH  10  13
BRANCH   1  28
ATOM     28  O   UNL     1      32.036  -4.909 -21.511  0.00  0.00    -0.276 OA
BRANCH  28  29
ATOM     29  C   UNL     1      30.935  -4.435 -22.265  0.00  0.00    +0.126 C 
ATOM     30  C   UNL     1      31.275  -3.068 -22.842  0.00  0.00    +0.033 C 
ATOM     31  C   UNL     1      29.703  -4.385 -21.377  0.00  0.00    +0.033 C 
ENDBRANCH  28  29
ENDBRANCH   1  28
TORSDOF 5
ENDMDL
MODEL 3
REMARK VINA RESULT:      -8.0     14.492     17.024
REMARK  Name = 45102284
REMARK  5 active torsions:
REMARK  status: ('A' for Active; 'I' for Inactive)
REMARK    1  A    between atoms: P_1  and  O_28
REMARK    2  A    between atoms: C_10  and  N_13
REMARK    3  A    between atoms: C_21  and  O_25
REMARK    4  A    between atoms: O_25  and  C_26
REMARK    5  A    between atoms: O_28  and  C_29
REMARK                            x       y       z     vdW  Elec       q    Type
REMARK                         _______ _______ _______ _____ _____    ______ ____
ROOT
ATOM      1  P   UNL     1      37.271 -22.847 -12.472  0.00  0.00    +0.480 P 
ATOM      2  F   UNL     1      34.820 -25.497 -14.766  0.00  0.00    -0.233 F 
ATOM      3  O   UNL     1      33.240 -24.378 -12.410  0.00  0.00    -0.333 OA
ATOM      4  O   UNL     1      36.467 -23.558 -13.697  0.00  0.00    -0.270 OA
ATOM      5  O   UNL     1      36.587 -23.481 -11.140  0.00  0.00    -0.270 OA
ATOM      6  O   UNL     1      37.295 -21.347 -12.509  0.00  0.00    -0.227 OA
ATOM      7  C   UNL     1      34.252 -24.263 -14.591  0.00  0.00    +0.204 C 
ATOM      8  C   UNL     1      35.063 -23.512 -13.562  0.00  0.00    +0.189 C 
ATOM      9  C   UNL     1      34.657 -24.254 -12.307  0.00  0.00    +0.177 C 
ATOM     10  C   UNL     1      32.921 -24.482 -13.832  0.00  0.00    +0.229 C 
ATOM     11  C   UNL     1      35.159 -23.527 -11.074  0.00  0.00    +0.186 C 
ATOM     12  C   UNL     1      34.201 -23.607 -15.956  0.00  0.00    +0.042 C 
ENDROOT
BRANCH  10  13
ATOM     13  N   UNL     1      31.790 -23.537 -14.162  0.00  0.00    -0.236 N 
ATOM     14  N   UNL     1      30.745 -21.633 -14.666  0.00  0.00    -0.239 NA
ATOM     15  N   UNL     1      29.892 -25.053 -14.108  0.00  0.00    -0.311 NA
ATOM     16  N   UNL     1      27.808 -23.882 -14.601  0.00  0.00    -0.289 NA
ATOM     17  N   UNL     1      27.843 -26.181 -14.151  0.00  0.00    -0.283 N 
ATOM     18  C   UNL     1      30.464 -23.850 -14.270  0.00  0.00    +0.223 C 
ATOM     19  C   UNL     1      31.907 -22.194 -14.409  0.00  0.00    +0.224 C 
ATOM     20  C   UNL     1      29.833 -22.657 -14.583  0.00  0.00    +0.190 C 
ATOM     21  C   UNL     1      28.453 -22.700 -14.750  0.00  0.00    +0.311 C 
ATOM     22  C   UNL     1      28.557 -24.970 -14.294  0.00  0.00    +0.200 C 
ATOM     23  H   UNL     1      28.323 -27.012 -13.928  0.00  0.00    +0.156 HD
ATOM     24  H   UNL     1      26.866 -26.195 -14.274  0.00  0.00    +0.156 HD
BRANCH  21  25
ATOM     25  O   UNL     1      27.713 -21.588 -15.061  0.00  0.00    -0.450 OA
BRANCH  25  26
ATOM     26  C   UNL     1      26.388 -21.811 -15.527  0.00  0.00    +0.208 C 
ATOM     27  C   UNL     1      26.355 -21.623 -17.028  0.00  0.00    +0.051 C 
ENDBRANCH  25  26
ENDBRANCH  21  25
ENDBRANCH  10  13
BRANCH   1  28
ATOM     28  O   UNL     1      38.724 -23.552 -12.514  0.00  0.00    -0.276 OA
BRANCH  28  29
ATOM     29  C   UNL     1      38.907 -24.603 -13.447  0.00  0.00    +0.126 C 
ATOM     30  C   UNL     1      38.406 -25.905 -12.838  0.00  0.00    +0.033 C 
ATOM     31  C   UNL     1      40.376 -24.684 -13.829  0.00  0.00    +0.033 C 
ENDBRANCH  28  29
ENDBRANCH   1  28
TORSDOF 5
ENDMDL
MODEL 4
REMARK VINA RESULT:      -8.0      5.455      8.423
REMARK  Name = 45102284
REMARK  5 active torsions:
REMARK  status: ('A' for Active; 'I' for Inactive)
REMARK    1  A    between atoms: P_1  and  O_28
REMARK    2  A    between atoms: C_10  and  N_13
REMARK    3  A    between atoms: C_21  and  O_25
REMARK    4  A    between atoms: O_25  and  C_26
REMARK    5  A    between atoms: O_28  and  C_29
REMARK                            x       y       z     vdW  Elec       q    Type
REMARK                         _______ _______ _______ _____ _____    ______ ____
ROOT
ATOM      1  P   UNL     1      33.216 -14.124 -22.601  0.00  0.00    +0.480 P 
ATOM      2  F   UNL     1      35.584 -17.614 -23.307  0.00  0.00    -0.233 F 
ATOM      3  O   UNL     1      35.053 -17.290 -20.322  0.00  0.00    -0.333 OA
ATOM      4  O   UNL     1      33.750 -15.558 -23.158  0.00  0.00    -0.270 OA
ATOM      5  O   UNL     1      34.140 -13.848 -21.291  0.00  0.00    -0.270 OA
ATOM      6  O   UNL     1      31.738 -14.045 -22.352  0.00  0.00    -0.227 OA
ATOM      7  C   UNL     1      34.454 -17.876 -22.578  0.00  0.00    +0.204 C 
ATOM      8  C   UNL     1      33.844 -16.557 -22.166  0.00  0.00    +0.189 C 
ATOM      9  C   UNL     1      34.837 -16.121 -21.110  0.00  0.00    +0.177 C 
ATOM     10  C   UNL     1      34.917 -18.439 -21.213  0.00  0.00    +0.229 C 
ATOM     11  C   UNL     1      34.312 -14.915 -20.354  0.00  0.00    +0.186 C 
ATOM     12  C   UNL     1      33.563 -18.740 -23.448  0.00  0.00    +0.042 C 
ENDROOT
BRANCH  10  13
ATOM     13  N   UNL     1      34.022 -19.471 -20.568  0.00  0.00    -0.236 N 
ATOM     14  N   UNL     1      32.184 -20.655 -20.133  0.00  0.00    -0.239 NA
ATOM     15  N   UNL     1      35.563 -20.500 -18.996  0.00  0.00    -0.311 NA
ATOM     16  N   UNL     1      34.472 -22.268 -17.715  0.00  0.00    -0.289 NA
ATOM     17  N   UNL     1      36.728 -21.727 -17.380  0.00  0.00    -0.283 N 
ATOM     18  C   UNL     1      34.366 -20.358 -19.587  0.00  0.00    +0.223 C 
ATOM     19  C   UNL     1      32.702 -19.689 -20.862  0.00  0.00    +0.224 C 
ATOM     20  C   UNL     1      33.214 -21.082 -19.331  0.00  0.00    +0.190 C 
ATOM     21  C   UNL     1      33.295 -22.070 -18.355  0.00  0.00    +0.311 C 
ATOM     22  C   UNL     1      35.518 -21.483 -18.071  0.00  0.00    +0.200 C 
ATOM     23  H   UNL     1      37.529 -21.193 -17.587  0.00  0.00    +0.156 HD
ATOM     24  H   UNL     1      36.768 -22.430 -16.692  0.00  0.00    +0.156 HD
BRANCH  21  25
ATOM     25  O   UNL     1      32.225 -22.855 -18.010  0.00  0.00    -0.450 OA
BRANCH  25  26
ATOM     26  C   UNL     1      31.923 -22.949 -16.624  0.00  0.00    +0.208 C 
ATOM     27  C   UNL     1      30.561 -22.337 -16.373  0.00  0.00    +0.051 C 
ENDBRANCH  25  26
ENDBRANCH  21  25
ENDBRANCH  10  13
BRANCH   1  28
ATOM     28  O   UNL     1      33.781 -13.065 -23.683  0.00  0.00    -0.276 OA
BRANCH  28  29
ATOM     29  C   UNL     1      32.837 -12.217 -24.312  0.00  0.00    +0.126 C 
ATOM     30  C   UNL     1      32.781 -12.545 -25.798  0.00  0.00    +0.033 C 
ATOM     31  C   UNL     1      33.223 -10.767 -24.067  0.00  0.00    +0.033 C 
ENDBRANCH  28  29
ENDBRANCH   1  28
TORSDOF 5
ENDMDL
MODEL 5
REMARK VINA RESULT:      -7.9      7.791     11.180
REMARK  Name = 45102284
REMARK  5 active torsions:
REMARK  status: ('A' for Active; 'I' for Inactive)
REMARK    1  A    between atoms: P_1  and  O_28
REMARK    2  A    between atoms: C_10  and  N_13
REMARK    3  A    between atoms: C_21  and  O_25
REMARK    4  A    between atoms: O_25  and  C_26
REMARK    5  A    between atoms: O_28  and  C_29
REMARK                            x       y       z     vdW  Elec       q    Type
REMARK                         _______ _______ _______ _____ _____    ______ ____
ROOT
ATOM      1  P   UNL     1      34.568 -17.113 -21.420  0.00  0.00    +0.480 P 
ATOM      2  F   UNL     1      33.333 -21.192 -21.059  0.00  0.00    -0.233 F 
ATOM      3  O   UNL     1      36.184 -20.861 -20.028  0.00  0.00    -0.333 OA
ATOM      4  O   UNL     1      33.740 -18.463 -21.038  0.00  0.00    -0.270 OA
ATOM      5  O   UNL     1      36.027 -17.669 -21.874  0.00  0.00    -0.270 OA
ATOM      6  O   UNL     1      34.605 -16.061 -20.351  0.00  0.00    -0.227 OA
ATOM      7  C   UNL     1      33.790 -20.667 -19.878  0.00  0.00    +0.204 C 
ATOM      8  C   UNL     1      34.437 -19.335 -20.175  0.00  0.00    +0.189 C 
ATOM      9  C   UNL     1      35.708 -19.800 -20.854  0.00  0.00    +0.177 C 
ATOM     10  C   UNL     1      35.012 -21.514 -19.450  0.00  0.00    +0.229 C 
ATOM     11  C   UNL     1      36.667 -18.639 -21.040  0.00  0.00    +0.186 C 
ATOM     12  C   UNL     1      32.600 -20.596 -18.942  0.00  0.00    +0.042 C 
ENDROOT
BRANCH  10  13
ATOM     13  N   UNL     1      35.222 -21.697 -17.965  0.00  0.00    -0.236 N 
ATOM     14  N   UNL     1      36.247 -21.665 -15.986  0.00  0.00    -0.239 NA
ATOM     15  N   UNL     1      33.074 -22.622 -17.308  0.00  0.00    -0.311 NA
ATOM     16  N   UNL     1      33.001 -23.077 -14.911  0.00  0.00    -0.289 NA
ATOM     17  N   UNL     1      31.163 -23.519 -16.297  0.00  0.00    -0.283 N 
ATOM     18  C   UNL     1      34.323 -22.196 -17.065  0.00  0.00    +0.223 C 
ATOM     19  C   UNL     1      36.361 -21.393 -17.268  0.00  0.00    +0.224 C 
ATOM     20  C   UNL     1      34.977 -22.168 -15.844  0.00  0.00    +0.190 C 
ATOM     21  C   UNL     1      34.268 -22.631 -14.740  0.00  0.00    +0.311 C 
ATOM     22  C   UNL     1      32.489 -23.046 -16.166  0.00  0.00    +0.200 C 
ATOM     23  H   UNL     1      30.728 -23.525 -17.180  0.00  0.00    +0.156 HD
ATOM     24  H   UNL     1      30.676 -23.842 -15.504  0.00  0.00    +0.156 HD
BRANCH  21  25
ATOM     25  O   UNL     1      34.804 -22.654 -13.478  0.00  0.00    -0.450 OA
BRANCH  25  26
ATOM     26  C   UNL     1      34.698 -23.878 -12.762  0.00  0.00    +0.208 C 
ATOM     27  C   UNL     1      35.148 -23.654 -11.334  0.00  0.00    +0.051 C 
ENDBRANCH  25  26
ENDBRANCH  21  25
ENDBRANCH  10  13
BRANCH   1  28
ATOM     28  O   UNL     1      33.900 -16.644 -22.815  0.00  0.00    -0.276 OA
BRANCH  28  29
ATOM     29  C   UNL     1      34.370 -15.433 -23.382  0.00  0.00    +0.126 C 
ATOM     30  C   UNL     1      33.902 -14.265 -22.526  0.00  0.00    +0.033 C 
ATOM     31  C   UNL     1      33.869 -15.323 -24.813  0.00  0.00    +0.033 C 
ENDBRANCH  28  29
ENDBRANCH   1  28
TORSDOF 5
ENDMDL
MODEL 6
REMARK VINA RESULT:      -7.9      1.963      2.925
REMARK  Name = 45102284
REMARK  5 active torsions:
REMARK  status: ('A' for Active; 'I' for Inactive)
REMARK    1  A    between atoms: P_1  and  O_28
REMARK    2  A    between atoms: C_10  and  N_13
REMARK    3  A    between atoms: C_21  and  O_25
REMARK    4  A    between atoms: O_25  and  C_26
REMARK    5  A    between atoms: O_28  and  C_29
REMARK                            x       y       z     vdW  Elec       q    Type
REMARK                         _______ _______ _______ _____ _____    ______ ____
ROOT
ATOM      1  P   UNL     1      31.823  -4.873 -22.731  0.00  0.00    +0.480 P 
ATOM      2  F   UNL     1      30.439  -8.130 -20.328  0.00  0.00    -0.233 F 
ATOM      3  O   UNL     1      30.400  -8.907 -23.277  0.00  0.00    -0.333 OA
ATOM      4  O   UNL     1      31.719  -6.043 -21.602  0.00  0.00    -0.270 OA
ATOM      5  O   UNL     1      30.663  -5.264 -23.802  0.00  0.00    -0.270 OA
ATOM      6  O   UNL     1      33.186  -4.679 -23.327  0.00  0.00    -0.227 OA
ATOM      7  C   UNL     1      31.468  -8.482 -21.162  0.00  0.00    +0.204 C 
ATOM      8  C   UNL     1      31.694  -7.350 -22.136  0.00  0.00    +0.189 C 
ATOM      9  C   UNL     1      30.472  -7.506 -23.016  0.00  0.00    +0.177 C 
ATOM     10  C   UNL     1      30.930  -9.590 -22.100  0.00  0.00    +0.229 C 
ATOM     11  C   UNL     1      30.586  -6.622 -24.244  0.00  0.00    +0.186 C 
ATOM     12  C   UNL     1      32.657  -8.802 -20.279  0.00  0.00    +0.042 C 
ENDROOT
BRANCH  10  13
ATOM     13  N   UNL     1      31.918 -10.646 -22.535  0.00  0.00    -0.236 N 
ATOM     14  N   UNL     1      33.486 -11.656 -23.758  0.00  0.00    -0.239 NA
ATOM     15  N   UNL     1      31.596 -12.321 -20.805  0.00  0.00    -0.311 NA
ATOM     16  N   UNL     1      33.049 -14.250 -21.158  0.00  0.00    -0.289 NA
ATOM     17  N   UNL     1      31.573 -14.145 -19.340  0.00  0.00    -0.283 N 
ATOM     18  C   UNL     1      32.168 -11.840 -21.919  0.00  0.00    +0.223 C 
ATOM     19  C   UNL     1      32.734 -10.582 -23.634  0.00  0.00    +0.224 C 
ATOM     20  C   UNL     1      33.143 -12.451 -22.692  0.00  0.00    +0.190 C 
ATOM     21  C   UNL     1      33.584 -13.703 -22.274  0.00  0.00    +0.311 C 
ATOM     22  C   UNL     1      32.101 -13.536 -20.501  0.00  0.00    +0.200 C 
ATOM     23  H   UNL     1      30.881 -13.683 -18.813  0.00  0.00    +0.156 HD
ATOM     24  H   UNL     1      31.897 -15.031 -19.058  0.00  0.00    +0.156 HD
BRANCH  21  25
ATOM     25  O   UNL     1      34.543 -14.409 -22.953  0.00  0.00    -0.450 OA
BRANCH  25  26
ATOM     26  C   UNL     1      34.094 -15.235 -24.019  0.00  0.00    +0.208 C 
ATOM     27  C   UNL     1      34.305 -16.686 -23.642  0.00  0.00    +0.051 C 
ENDBRANCH  25  26
ENDBRANCH  21  25
ENDBRANCH  10  13
BRANCH   1  28
ATOM     28  O   UNL     1      31.216  -3.575 -21.984  0.00  0.00    -0.276 OA
BRANCH  28  29
ATOM     29  C   UNL     1      30.515  -2.638 -22.783  0.00  0.00    +0.126 C 
ATOM     30  C   UNL     1      31.517  -1.786 -23.550  0.00  0.00    +0.033 C 
ATOM     31  C   UNL     1      29.617  -1.793 -21.894  0.00  0.00    +0.033 C 
ENDBRANCH  28  29
ENDBRANCH   1  28
TORSDOF 5
ENDMDL
MODEL 7
REMARK VINA RESULT:      -7.8      2.674      3.799
REMARK  Name = 45102284
REMARK  5 active torsions:
REMARK  status: ('A' for Active; 'I' for Inactive)
REMARK    1  A    between atoms: P_1  and  O_28
REMARK    2  A    between atoms: C_10  and  N_13
REMARK    3  A    between atoms: C_21  and  O_25
REMARK    4  A    between atoms: O_25  and  C_26
REMARK    5  A    between atoms: O_28  and  C_29
REMARK                            x       y       z     vdW  Elec       q    Type
REMARK                         _______ _______ _______ _____ _____    ______ ____
ROOT
ATOM      1  P   UNL     1      33.292  -5.471 -25.149  0.00  0.00    +0.480 P 
ATOM      2  F   UNL     1      31.171  -5.372 -21.436  0.00  0.00    -0.233 F 
ATOM      3  O   UNL     1      30.274  -7.767 -23.096  0.00  0.00    -0.333 OA
ATOM      4  O   UNL     1      32.931  -5.429 -23.561  0.00  0.00    -0.270 OA
ATOM      5  O   UNL     1      31.898  -5.927 -25.852  0.00  0.00    -0.270 OA
ATOM      6  O   UNL     1      34.480  -6.314 -25.512  0.00  0.00    -0.227 OA
ATOM      7  C   UNL     1      31.794  -6.572 -21.663  0.00  0.00    +0.204 C 
ATOM      8  C   UNL     1      32.277  -6.589 -23.093  0.00  0.00    +0.189 C 
ATOM      9  C   UNL     1      30.958  -6.746 -23.820  0.00  0.00    +0.177 C 
ATOM     10  C   UNL     1      30.688  -7.654 -21.700  0.00  0.00    +0.229 C 
ATOM     11  C   UNL     1      31.193  -7.038 -25.290  0.00  0.00    +0.186 C 
ATOM     12  C   UNL     1      32.890  -6.699 -20.624  0.00  0.00    +0.042 C 
ENDROOT
BRANCH  10  13
ATOM     13  N   UNL     1      31.060  -9.020 -21.174  0.00  0.00    -0.236 N 
ATOM     14  N   UNL     1      31.316 -10.698 -19.729  0.00  0.00    -0.239 NA
ATOM     15  N   UNL     1      31.960 -10.056 -23.179  0.00  0.00    -0.311 NA
ATOM     16  N   UNL     1      32.701 -12.340 -22.740  0.00  0.00    -0.289 NA
ATOM     17  N   UNL     1      32.886 -11.381 -24.870  0.00  0.00    -0.283 N 
ATOM     18  C   UNL     1      31.624 -10.045 -21.880  0.00  0.00    +0.223 C 
ATOM     19  C   UNL     1      30.895  -9.461 -19.887  0.00  0.00    +0.224 C 
ATOM     20  C   UNL     1      31.775 -11.076 -20.966  0.00  0.00    +0.190 C 
ATOM     21  C   UNL     1      32.336 -12.258 -21.439  0.00  0.00    +0.311 C 
ATOM     22  C   UNL     1      32.493 -11.250 -23.519  0.00  0.00    +0.200 C 
ATOM     23  H   UNL     1      32.765 -10.628 -25.493  0.00  0.00    +0.156 HD
ATOM     24  H   UNL     1      33.281 -12.225 -25.188  0.00  0.00    +0.156 HD
BRANCH  21  25
ATOM     25  O   UNL     1      32.538 -13.350 -20.634  0.00  0.00    -0.450 OA
BRANCH  25  26
ATOM     26  C   UNL     1      33.869 -13.842 -20.547  0.00  0.00    +0.208 C 
ATOM     27  C   UNL     1      34.015 -15.035 -21.467  0.00  0.00    +0.051 C 
ENDBRANCH  25  26
ENDBRANCH  21  25
ENDBRANCH  10  13
BRANCH   1  28
ATOM     28  O   UNL     1      33.416  -3.911 -25.550  0.00  0.00    -0.276 OA
BRANCH  28  29
ATOM     29  C   UNL     1      32.211  -3.205 -25.786  0.00  0.00    +0.126 C 
ATOM     30  C   UNL     1      32.303  -2.491 -27.127  0.00  0.00    +0.033 C 
ATOM     31  C   UNL     1      31.966  -2.234 -24.643  0.00  0.00    +0.033 C 
ENDBRANCH  28  29
ENDBRANCH   1  28
TORSDOF 5
ENDMDL
MODEL 8
REMARK VINA RESULT:      -7.5      8.289     11.014
REMARK  Name = 45102284
REMARK  5 active torsions:
REMARK  status: ('A' for Active; 'I' for Inactive)
REMARK    1  A    between atoms: P_1  and  O_28
REMARK    2  A    between atoms: C_10  and  N_13
REMARK    3  A    between atoms: C_21  and  O_25
REMARK    4  A    between atoms: O_25  and  C_26
REMARK    5  A    between atoms: O_28  and  C_29
REMARK                            x       y       z     vdW  Elec       q    Type
REMARK                         _______ _______ _______ _____ _____    ______ ____
ROOT
ATOM      1  P   UNL     1      34.538 -16.910 -21.148  0.00  0.00    +0.480 P 
ATOM      2  F   UNL     1      32.719 -20.767 -21.478  0.00  0.00    -0.233 F 
ATOM      3  O   UNL     1      35.526 -21.024 -20.315  0.00  0.00    -0.333 OA
ATOM      4  O   UNL     1      33.507 -18.164 -21.012  0.00  0.00    -0.270 OA
ATOM      5  O   UNL     1      35.927 -17.602 -21.636  0.00  0.00    -0.270 OA
ATOM      6  O   UNL     1      34.664 -16.050 -19.925  0.00  0.00    -0.227 OA
ATOM      7  C   UNL     1      33.179 -20.501 -20.215  0.00  0.00    +0.204 C 
ATOM      8  C   UNL     1      34.024 -19.251 -20.276  0.00  0.00    +0.189 C 
ATOM      9  C   UNL     1      35.252 -19.791 -20.978  0.00  0.00    +0.177 C 
ATOM     10  C   UNL     1      34.243 -21.575 -19.887  0.00  0.00    +0.229 C 
ATOM     11  C   UNL     1      36.374 -18.772 -20.945  0.00  0.00    +0.186 C 
ATOM     12  C   UNL     1      31.961 -20.397 -19.319  0.00  0.00    +0.042 C 
ENDROOT
BRANCH  10  13
ATOM     13  N   UNL     1      34.341 -22.011 -18.444  0.00  0.00    -0.236 N 
ATOM     14  N   UNL     1      33.851 -23.089 -16.555  0.00  0.00    -0.239 NA
ATOM     15  N   UNL     1      36.245 -20.702 -17.695  0.00  0.00    -0.311 NA
ATOM     16  N   UNL     1      36.743 -21.126 -15.343  0.00  0.00    -0.289 NA
ATOM     17  N   UNL     1      38.017 -19.623 -16.612  0.00  0.00    -0.283 N 
ATOM     18  C   UNL     1      35.252 -21.586 -17.518  0.00  0.00    +0.223 C 
ATOM     19  C   UNL     1      33.522 -22.913 -17.817  0.00  0.00    +0.224 C 
ATOM     20  C   UNL     1      34.932 -22.266 -16.354  0.00  0.00    +0.190 C 
ATOM     21  C   UNL     1      35.722 -22.010 -15.238  0.00  0.00    +0.311 C 
ATOM     22  C   UNL     1      36.939 -20.535 -16.548  0.00  0.00    +0.200 C 
ATOM     23  H   UNL     1      38.217 -19.157 -17.456  0.00  0.00    +0.156 HD
ATOM     24  H   UNL     1      38.567 -19.454 -15.813  0.00  0.00    +0.156 HD
BRANCH  21  25
ATOM     25  O   UNL     1      35.507 -22.618 -14.028  0.00  0.00    -0.450 OA
BRANCH  25  26
ATOM     26  C   UNL     1      36.638 -23.209 -13.401  0.00  0.00    +0.208 C 
ATOM     27  C   UNL     1      36.799 -22.617 -12.017  0.00  0.00    +0.051 C 
ENDBRANCH  25  26
ENDBRANCH  21  25
ENDBRANCH  10  13
BRANCH   1  28
ATOM     28  O   UNL     1      34.023 -16.140 -22.472  0.00  0.00    -0.276 OA
BRANCH  28  29
ATOM     29  C   UNL     1      34.362 -16.707 -23.724  0.00  0.00    +0.126 C 
ATOM     30  C   UNL     1      34.080 -15.695 -24.826  0.00  0.00    +0.033 C 
ATOM     31  C   UNL     1      33.576 -17.993 -23.922  0.00  0.00    +0.033 C 
ENDBRANCH  28  29
ENDBRANCH   1  28
TORSDOF 5
ENDMDL
MODEL 9
REMARK VINA RESULT:      -7.2      3.383      8.455
REMARK  Name = 45102284
REMARK  5 active torsions:
REMARK  status: ('A' for Active; 'I' for Inactive)
REMARK    1  A    between atoms: P_1  and  O_28
REMARK    2  A    between atoms: C_10  and  N_13
REMARK    3  A    between atoms: C_21  and  O_25
REMARK    4  A    between atoms: O_25  and  C_26
REMARK    5  A    between atoms: O_28  and  C_29
REMARK                            x       y       z     vdW  Elec       q    Type
REMARK                         _______ _______ _______ _____ _____    ______ ____
ROOT
ATOM      1  P   UNL     1      33.674 -13.684 -20.960  0.00  0.00    +0.480 P 
ATOM      2  F   UNL     1      32.439 -11.560 -24.461  0.00  0.00    -0.233 F 
ATOM      3  O   UNL     1      30.751 -10.714 -22.067  0.00  0.00    -0.333 OA
ATOM      4  O   UNL     1      33.668 -12.758 -22.300  0.00  0.00    -0.270 OA
ATOM      5  O   UNL     1      32.101 -13.801 -20.562  0.00  0.00    -0.270 OA
ATOM      6  O   UNL     1      34.565 -13.202 -19.853  0.00  0.00    -0.227 OA
ATOM      7  C   UNL     1      32.745 -10.730 -23.414  0.00  0.00    +0.204 C 
ATOM      8  C   UNL     1      32.906 -11.577 -22.174  0.00  0.00    +0.189 C 
ATOM      9  C   UNL     1      31.460 -11.941 -21.909  0.00  0.00    +0.177 C 
ATOM     10  C   UNL     1      31.461  -9.935 -23.078  0.00  0.00    +0.229 C 
ATOM     11  C   UNL     1      31.320 -12.603 -20.551  0.00  0.00    +0.186 C 
ATOM     12  C   UNL     1      33.985  -9.958 -23.817  0.00  0.00    +0.042 C 
ENDROOT
BRANCH  10  13
ATOM     13  N   UNL     1      31.651  -8.521 -22.581  0.00  0.00    -0.236 N 
ATOM     14  N   UNL     1      31.884  -6.830 -21.147  0.00  0.00    -0.239 NA
ATOM     15  N   UNL     1      31.788  -7.308 -24.681  0.00  0.00    -0.311 NA
ATOM     16  N   UNL     1      32.101  -4.917 -24.305  0.00  0.00    -0.289 NA
ATOM     17  N   UNL     1      31.966  -5.808 -26.468  0.00  0.00    -0.283 N 
ATOM     18  C   UNL     1      31.789  -7.395 -23.342  0.00  0.00    +0.223 C 
ATOM     19  C   UNL     1      31.715  -8.130 -21.269  0.00  0.00    +0.224 C 
ATOM     20  C   UNL     1      31.933  -6.358 -22.435  0.00  0.00    +0.190 C 
ATOM     21  C   UNL     1      32.094  -5.080 -22.961  0.00  0.00    +0.311 C 
ATOM     22  C   UNL     1      31.950  -6.025 -25.071  0.00  0.00    +0.200 C 
ATOM     23  H   UNL     1      31.862  -6.568 -27.085  0.00  0.00    +0.156 HD
ATOM     24  H   UNL     1      32.082  -4.897 -26.824  0.00  0.00    +0.156 HD
BRANCH  21  25
ATOM     25  O   UNL     1      32.245  -3.971 -22.168  0.00  0.00    -0.450 OA
BRANCH  25  26
ATOM     26  C   UNL     1      31.256  -2.958 -22.292  0.00  0.00    +0.208 C 
ATOM     27  C   UNL     1      29.963  -3.452 -21.677  0.00  0.00    +0.051 C 
ENDBRANCH  25  26
ENDBRANCH  21  25
ENDBRANCH  10  13
BRANCH   1  28
ATOM     28  O   UNL     1      34.024 -15.158 -21.522  0.00  0.00    -0.276 OA
BRANCH  28  29
ATOM     29  C   UNL     1      34.421 -15.256 -22.879  0.00  0.00    +0.126 C 
ATOM     30  C   UNL     1      33.251 -14.866 -23.772  0.00  0.00    +0.033 C 
ATOM     31  C   UNL     1      34.901 -16.671 -23.160  0.00  0.00    +0.033 C 
ENDBRANCH  28  29
ENDBRANCH   1  28
TORSDOF 5
ENDMDL
