MODEL 1
REMARK VINA RESULT:     -14.8      0.000      0.000
REMARK  Name = 11560856
REMARK  5 active torsions:
REMARK  status: ('A' for Active; 'I' for Inactive)
REMARK    1  A    between atoms: C_2  and  O_24
REMARK    2  A    between atoms: C_3  and  N_10
REMARK    3  A    between atoms: C_12  and  C_16
REMARK    4  A    between atoms: C_16  and  C_18
REMARK    5  A    between atoms: O_24  and  C_28
REMARK                            x       y       z     vdW  Elec       q    Type
REMARK                         _______ _______ _______ _____ _____    ______ ____
ROOT
ATOM      1  F   UNL     1      33.512 -11.105 -23.837  0.00  0.00    -0.201 F 
ATOM      2  C   UNL     1      31.999 -11.446 -22.042  0.00  0.00    +0.173 C 
ATOM      3  C   UNL     1      33.330 -13.782 -21.383  0.00  0.00    +0.054 C 
ATOM      4  C   UNL     1      33.092 -11.838 -22.796  0.00  0.00    +0.176 C 
ATOM      5  C   UNL     1      31.555 -12.196 -20.966  0.00  0.00    +0.041 C 
ATOM      6  C   UNL     1      33.763 -13.014 -22.463  0.00  0.00    +0.047 C 
ATOM      7  C   UNL     1      32.226 -13.373 -20.634  0.00  0.00    +0.018 C 
ENDROOT
BRANCH   3  10
ATOM      8  O   UNL     1      35.574 -18.503 -22.892  0.00  0.00    -0.274 OA
ATOM      9  O   UNL     1      34.250 -16.054 -23.117  0.00  0.00    -0.252 OA
ATOM     10  N   UNL     1      34.002 -14.958 -21.049  0.00  0.00    -0.268 N 
ATOM     11  N   UNL     1      35.066 -17.015 -21.168  0.00  0.00    -0.239 N 
ATOM     12  C   UNL     1      35.599 -18.191 -21.704  0.00  0.00    +0.234 C 
ATOM     13  C   UNL     1      34.417 -16.003 -21.902  0.00  0.00    +0.310 C 
ATOM     14  H   UNL     1      34.214 -15.075 -20.096  0.00  0.00    +0.156 HD
ATOM     15  H   UNL     1      35.152 -16.884 -20.196  0.00  0.00    +0.159 HD
BRANCH  12  16
ATOM     16  C   UNL     1      36.224 -19.054 -20.625  0.00  0.00    +0.112 C 
BRANCH  16  18
ATOM     17  F   UNL     1      32.565 -22.535 -18.157  0.00  0.00    -0.204 F 
ATOM     18  C   UNL     1      35.243 -19.986 -19.963  0.00  0.00    -0.013 C 
ATOM     19  C   UNL     1      33.898 -19.909 -20.294  0.00  0.00    -0.001 C 
ATOM     20  C   UNL     1      35.700 -20.909 -19.033  0.00  0.00    -0.001 C 
ATOM     21  C   UNL     1      32.990 -20.772 -19.681  0.00  0.00    +0.029 C 
ATOM     22  C   UNL     1      34.792 -21.772 -18.420  0.00  0.00    +0.029 C 
ATOM     23  C   UNL     1      33.438 -21.705 -18.745  0.00  0.00    +0.140 C 
ENDBRANCH  16  18
ENDBRANCH  12  16
ENDBRANCH   3  10
BRANCH   2  24
ATOM     24  O   UNL     1      31.335 -10.280 -22.371  0.00  0.00    -0.451 OA
BRANCH  24  28
ATOM     25  N   UNL     1      33.383  -6.112 -22.036  0.00  0.00    -0.297 N 
ATOM     26  N   UNL     1      32.197  -6.845 -20.071  0.00  0.00    -0.229 NA
ATOM     27  C   UNL     1      32.390  -8.108 -22.163  0.00  0.00    +0.067 C 
ATOM     28  C   UNL     1      31.623  -9.162 -21.640  0.00  0.00    +0.150 C 
ATOM     29  C   UNL     1      32.625  -7.013 -21.336  0.00  0.00    +0.135 C 
ATOM     30  C   UNL     1      33.036  -7.837 -23.398  0.00  0.00    +0.022 C 
ATOM     31  C   UNL     1      33.639  -6.601 -23.290  0.00  0.00    +0.063 C 
ATOM     32  C   UNL     1      31.154  -9.038 -20.333  0.00  0.00    +0.058 C 
ATOM     33  C   UNL     1      31.466  -7.889 -19.618  0.00  0.00    +0.103 C 
ATOM     34  H   UNL     1      33.696  -5.244 -21.690  0.00  0.00    +0.154 HD
ENDBRANCH  24  28
ENDBRANCH   2  24
TORSDOF 5
ENDMDL
MODEL 2
REMARK VINA RESULT:     -14.5      0.922      2.032
REMARK  Name = 11560856
REMARK  5 active torsions:
REMARK  status: ('A' for Active; 'I' for Inactive)
REMARK    1  A    between atoms: C_2  and  O_24
REMARK    2  A    between atoms: C_3  and  N_10
REMARK    3  A    between atoms: C_12  and  C_16
REMARK    4  A    between atoms: C_16  and  C_18
REMARK    5  A    between atoms: O_24  and  C_28
REMARK                            x       y       z     vdW  Elec       q    Type
REMARK                         _______ _______ _______ _____ _____    ______ ____
ROOT
ATOM      1  F   UNL     1      30.607 -11.369 -20.650  0.00  0.00    -0.201 F 
ATOM      2  C   UNL     1      32.088 -11.086 -22.481  0.00  0.00    +0.173 C 
ATOM      3  C   UNL     1      33.368 -13.443 -21.790  0.00  0.00    +0.054 C 
ATOM      4  C   UNL     1      31.643 -11.802 -21.381  0.00  0.00    +0.176 C 
ATOM      5  C   UNL     1      33.159 -11.523 -23.242  0.00  0.00    +0.041 C 
ATOM      6  C   UNL     1      32.287 -12.989 -21.035  0.00  0.00    +0.047 C 
ATOM      7  C   UNL     1      33.804 -12.710 -22.894  0.00  0.00    +0.018 C 
ENDROOT
BRANCH   3  10
ATOM      8  O   UNL     1      35.083 -18.426 -23.142  0.00  0.00    -0.274 OA
ATOM      9  O   UNL     1      33.887 -15.916 -23.412  0.00  0.00    -0.252 OA
ATOM     10  N   UNL     1      34.011 -14.631 -21.444  0.00  0.00    -0.268 N 
ATOM     11  N   UNL     1      34.923 -16.762 -21.514  0.00  0.00    -0.239 N 
ATOM     12  C   UNL     1      35.301 -18.015 -22.005  0.00  0.00    +0.234 C 
ATOM     13  C   UNL     1      34.233 -15.773 -22.242  0.00  0.00    +0.310 C 
ATOM     14  H   UNL     1      34.354 -14.680 -20.523  0.00  0.00    +0.156 HD
ATOM     15  H   UNL     1      35.158 -16.554 -20.581  0.00  0.00    +0.159 HD
BRANCH  12  16
ATOM     16  C   UNL     1      36.026 -18.825 -20.947  0.00  0.00    +0.112 C 
BRANCH  16  18
ATOM     17  F   UNL     1      32.691 -22.457 -18.248  0.00  0.00    -0.204 F 
ATOM     18  C   UNL     1      35.132 -19.798 -20.223  0.00  0.00    -0.013 C 
ATOM     19  C   UNL     1      33.760 -19.742 -20.422  0.00  0.00    -0.001 C 
ATOM     20  C   UNL     1      35.694 -20.735 -19.369  0.00  0.00    -0.001 C 
ATOM     21  C   UNL     1      32.932 -20.644 -19.751  0.00  0.00    +0.029 C 
ATOM     22  C   UNL     1      34.867 -21.637 -18.699  0.00  0.00    +0.029 C 
ATOM     23  C   UNL     1      33.486 -21.591 -18.891  0.00  0.00    +0.140 C 
ENDBRANCH  16  18
ENDBRANCH  12  16
ENDBRANCH   3  10
BRANCH   2  24
ATOM     24  O   UNL     1      31.450  -9.911 -22.825  0.00  0.00    -0.451 OA
BRANCH  24  28
ATOM     25  N   UNL     1      32.378  -6.499 -19.796  0.00  0.00    -0.297 N 
ATOM     26  N   UNL     1      33.430  -6.284 -21.953  0.00  0.00    -0.229 NA
ATOM     27  C   UNL     1      31.952  -8.119 -21.273  0.00  0.00    +0.067 C 
ATOM     28  C   UNL     1      32.084  -8.737 -22.527  0.00  0.00    +0.150 C 
ATOM     29  C   UNL     1      32.641  -6.926 -21.072  0.00  0.00    +0.135 C 
ATOM     30  C   UNL     1      31.258  -8.402 -20.067  0.00  0.00    +0.022 C 
ATOM     31  C   UNL     1      31.540  -7.388 -19.177  0.00  0.00    +0.063 C 
ATOM     32  C   UNL     1      32.890  -8.115 -23.478  0.00  0.00    +0.058 C 
ATOM     33  C   UNL     1      33.519  -6.922 -23.143  0.00  0.00    +0.103 C 
ATOM     34  H   UNL     1      32.738  -5.678 -19.388  0.00  0.00    +0.154 HD
ENDBRANCH  24  28
ENDBRANCH   2  24
TORSDOF 5
ENDMDL
MODEL 3
REMARK VINA RESULT:     -14.3      4.069     11.261
REMARK  Name = 11560856
REMARK  5 active torsions:
REMARK  status: ('A' for Active; 'I' for Inactive)
REMARK    1  A    between atoms: C_2  and  O_24
REMARK    2  A    between atoms: C_3  and  N_10
REMARK    3  A    between atoms: C_12  and  C_16
REMARK    4  A    between atoms: C_16  and  C_18
REMARK    5  A    between atoms: O_24  and  C_28
REMARK                            x       y       z     vdW  Elec       q    Type
REMARK                         _______ _______ _______ _____ _____    ______ ____
ROOT
ATOM      1  F   UNL     1      36.274 -21.837 -18.460  0.00  0.00    -0.201 F 
ATOM      2  C   UNL     1      33.933 -21.874 -18.840  0.00  0.00    +0.173 C 
ATOM      3  C   UNL     1      34.152 -19.545 -20.321  0.00  0.00    +0.054 C 
ATOM      4  C   UNL     1      35.179 -21.292 -19.006  0.00  0.00    +0.176 C 
ATOM      5  C   UNL     1      32.795 -21.319 -19.398  0.00  0.00    +0.041 C 
ATOM      6  C   UNL     1      35.289 -20.119 -19.753  0.00  0.00    +0.047 C 
ATOM      7  C   UNL     1      32.905 -20.145 -20.144  0.00  0.00    +0.018 C 
ENDROOT
BRANCH   3  10
ATOM      8  O   UNL     1      33.830 -16.975 -25.106  0.00  0.00    -0.274 OA
ATOM      9  O   UNL     1      33.725 -19.064 -23.254  0.00  0.00    -0.252 OA
ATOM     10  N   UNL     1      34.262 -18.373 -21.069  0.00  0.00    -0.268 N 
ATOM     11  N   UNL     1      34.266 -16.849 -22.817  0.00  0.00    -0.239 N 
ATOM     12  C   UNL     1      34.143 -16.329 -24.109  0.00  0.00    +0.234 C 
ATOM     13  C   UNL     1      34.051 -18.193 -22.453  0.00  0.00    +0.310 C 
ATOM     14  H   UNL     1      34.521 -17.567 -20.568  0.00  0.00    +0.156 HD
ATOM     15  H   UNL     1      34.526 -16.223 -22.103  0.00  0.00    +0.159 HD
BRANCH  12  16
ATOM     16  C   UNL     1      34.449 -14.844 -24.136  0.00  0.00    +0.112 C 
BRANCH  16  18
ATOM     17  F   UNL     1      31.629 -11.912 -20.258  0.00  0.00    -0.204 F 
ATOM     18  C   UNL     1      33.693 -14.059 -23.097  0.00  0.00    -0.013 C 
ATOM     19  C   UNL     1      33.936 -14.296 -21.751  0.00  0.00    -0.001 C 
ATOM     20  C   UNL     1      32.765 -13.110 -23.500  0.00  0.00    -0.001 C 
ATOM     21  C   UNL     1      33.235 -13.569 -20.789  0.00  0.00    +0.029 C 
ATOM     22  C   UNL     1      32.065 -12.382 -22.538  0.00  0.00    +0.029 C 
ATOM     23  C   UNL     1      32.301 -12.611 -21.183  0.00  0.00    +0.140 C 
ENDBRANCH  16  18
ENDBRANCH  12  16
ENDBRANCH   3  10
BRANCH   2  24
ATOM     24  O   UNL     1      33.824 -23.037 -18.101  0.00  0.00    -0.451 OA
BRANCH  24  28
ATOM     25  N   UNL     1      34.465 -22.715 -13.501  0.00  0.00    -0.297 N 
ATOM     26  N   UNL     1      32.168 -22.730 -14.229  0.00  0.00    -0.229 NA
ATOM     27  C   UNL     1      34.123 -22.869 -15.702  0.00  0.00    +0.067 C 
ATOM     28  C   UNL     1      33.305 -22.937 -16.841  0.00  0.00    +0.150 C 
ATOM     29  C   UNL     1      33.493 -22.768 -14.465  0.00  0.00    +0.135 C 
ATOM     30  C   UNL     1      35.521 -22.875 -15.453  0.00  0.00    +0.022 C 
ATOM     31  C   UNL     1      35.701 -22.778 -14.089  0.00  0.00    +0.063 C 
ATOM     32  C   UNL     1      31.924 -22.901 -16.653  0.00  0.00    +0.058 C 
ATOM     33  C   UNL     1      31.429 -22.800 -15.360  0.00  0.00    +0.103 C 
ATOM     34  H   UNL     1      34.299 -22.642 -12.532  0.00  0.00    +0.154 HD
ENDBRANCH  24  28
ENDBRANCH   2  24
TORSDOF 5
ENDMDL
MODEL 4
REMARK VINA RESULT:     -13.9      1.614      2.076
REMARK  Name = 11560856
REMARK  5 active torsions:
REMARK  status: ('A' for Active; 'I' for Inactive)
REMARK    1  A    between atoms: C_2  and  O_24
REMARK    2  A    between atoms: C_3  and  N_10
REMARK    3  A    between atoms: C_12  and  C_16
REMARK    4  A    between atoms: C_16  and  C_18
REMARK    5  A    between atoms: O_24  and  C_28
REMARK                            x       y       z     vdW  Elec       q    Type
REMARK                         _______ _______ _______ _____ _____    ______ ____
ROOT
ATOM      1  F   UNL     1      30.234 -10.787 -20.558  0.00  0.00    -0.201 F 
ATOM      2  C   UNL     1      31.546 -10.330 -22.481  0.00  0.00    +0.173 C 
ATOM      3  C   UNL     1      33.006 -12.635 -22.015  0.00  0.00    +0.054 C 
ATOM      4  C   UNL     1      31.231 -11.122 -21.389  0.00  0.00    +0.176 C 
ATOM      5  C   UNL     1      32.575 -10.665 -23.345  0.00  0.00    +0.041 C 
ATOM      6  C   UNL     1      31.966 -12.283 -21.155  0.00  0.00    +0.047 C 
ATOM      7  C   UNL     1      33.310 -11.826 -23.110  0.00  0.00    +0.018 C 
ENDROOT
BRANCH   3  10
ATOM      8  O   UNL     1      34.534 -17.621 -23.567  0.00  0.00    -0.274 OA
ATOM      9  O   UNL     1      33.239 -15.147 -23.644  0.00  0.00    -0.252 OA
ATOM     10  N   UNL     1      33.741 -13.798 -21.781  0.00  0.00    -0.268 N 
ATOM     11  N   UNL     1      34.676 -15.911 -21.987  0.00  0.00    -0.239 N 
ATOM     12  C   UNL     1      34.975 -17.170 -22.513  0.00  0.00    +0.234 C 
ATOM     13  C   UNL     1      33.821 -14.960 -22.578  0.00  0.00    +0.310 C 
ATOM     14  H   UNL     1      34.272 -13.811 -20.953  0.00  0.00    +0.156 HD
ATOM     15  H   UNL     1      35.096 -15.668 -21.131  0.00  0.00    +0.159 HD
BRANCH  12  16
ATOM     16  C   UNL     1      35.930 -17.930 -21.612  0.00  0.00    +0.112 C 
BRANCH  16  18
ATOM     17  F   UNL     1      33.442 -22.047 -18.703  0.00  0.00    -0.204 F 
ATOM     18  C   UNL     1      35.263 -19.033 -20.832  0.00  0.00    -0.013 C 
ATOM     19  C   UNL     1      33.885 -19.182 -20.901  0.00  0.00    -0.001 C 
ATOM     20  C   UNL     1      36.037 -19.884 -20.057  0.00  0.00    -0.001 C 
ATOM     21  C   UNL     1      33.268 -20.203 -20.179  0.00  0.00    +0.029 C 
ATOM     22  C   UNL     1      35.419 -20.906 -19.334  0.00  0.00    +0.029 C 
ATOM     23  C   UNL     1      34.036 -21.066 -19.396  0.00  0.00    +0.140 C 
ENDBRANCH  16  18
ENDBRANCH  12  16
ENDBRANCH   3  10
BRANCH   2  24
ATOM     24  O   UNL     1      30.817  -9.180 -22.714  0.00  0.00    -0.451 OA
BRANCH  24  28
ATOM     25  N   UNL     1      32.168  -5.054 -24.397  0.00  0.00    -0.297 N 
ATOM     26  N   UNL     1      32.791  -5.496 -22.112  0.00  0.00    -0.229 NA
ATOM     27  C   UNL     1      31.536  -7.025 -23.559  0.00  0.00    +0.067 C 
ATOM     28  C   UNL     1      31.452  -7.983 -22.535  0.00  0.00    +0.150 C 
ATOM     29  C   UNL     1      32.204  -5.838 -23.273  0.00  0.00    +0.135 C 
ATOM     30  C   UNL     1      31.090  -6.933 -24.904  0.00  0.00    +0.022 C 
ATOM     31  C   UNL     1      31.493  -5.708 -25.394  0.00  0.00    +0.063 C 
ATOM     32  C   UNL     1      32.043  -7.678 -21.310  0.00  0.00    +0.058 C 
ATOM     33  C   UNL     1      32.681  -6.454 -21.163  0.00  0.00    +0.103 C 
ATOM     34  H   UNL     1      32.566  -4.156 -24.475  0.00  0.00    +0.154 HD
ENDBRANCH  24  28
ENDBRANCH   2  24
TORSDOF 5
ENDMDL
MODEL 5
REMARK VINA RESULT:     -13.9      4.693      7.687
REMARK  Name = 11560856
REMARK  5 active torsions:
REMARK  status: ('A' for Active; 'I' for Inactive)
REMARK    1  A    between atoms: C_2  and  O_24
REMARK    2  A    between atoms: C_3  and  N_10
REMARK    3  A    between atoms: C_12  and  C_16
REMARK    4  A    between atoms: C_16  and  C_18
REMARK    5  A    between atoms: O_24  and  C_28
REMARK                            x       y       z     vdW  Elec       q    Type
REMARK                         _______ _______ _______ _____ _____    ______ ____
ROOT
ATOM      1  F   UNL     1      37.228 -17.913 -21.752  0.00  0.00    -0.201 F 
ATOM      2  C   UNL     1      34.916 -18.436 -21.849  0.00  0.00    +0.173 C 
ATOM      3  C   UNL     1      35.263 -20.281 -19.814  0.00  0.00    +0.054 C 
ATOM      4  C   UNL     1      36.178 -18.616 -21.306  0.00  0.00    +0.176 C 
ATOM      5  C   UNL     1      33.824 -19.158 -21.397  0.00  0.00    +0.041 C 
ATOM      6  C   UNL     1      36.352 -19.544 -20.281  0.00  0.00    +0.047 C 
ATOM      7  C   UNL     1      33.999 -20.087 -20.372  0.00  0.00    +0.018 C 
ENDROOT
BRANCH   3  10
ATOM      8  O   UNL     1      37.441 -21.623 -15.012  0.00  0.00    -0.274 OA
ATOM      9  O   UNL     1      36.834 -20.083 -17.262  0.00  0.00    -0.252 OA
ATOM     10  N   UNL     1      35.438 -21.209 -18.787  0.00  0.00    -0.268 N 
ATOM     11  N   UNL     1      36.107 -22.244 -16.822  0.00  0.00    -0.239 N 
ATOM     12  C   UNL     1      36.732 -22.444 -15.589  0.00  0.00    +0.234 C 
ATOM     13  C   UNL     1      36.188 -21.072 -17.600  0.00  0.00    +0.310 C 
ATOM     14  H   UNL     1      34.978 -22.070 -18.905  0.00  0.00    +0.156 HD
ATOM     15  H   UNL     1      35.564 -22.985 -17.178  0.00  0.00    +0.159 HD
BRANCH  12  16
ATOM     16  C   UNL     1      36.428 -23.823 -15.035  0.00  0.00    +0.112 C 
BRANCH  16  18
ATOM     17  F   UNL     1      35.564 -23.846  -9.481  0.00  0.00    -0.204 F 
ATOM     18  C   UNL     1      36.196 -23.831 -13.546  0.00  0.00    -0.013 C 
ATOM     19  C   UNL     1      37.235 -24.180 -12.695  0.00  0.00    -0.001 C 
ATOM     20  C   UNL     1      34.948 -23.486 -13.049  0.00  0.00    -0.001 C 
ATOM     21  C   UNL     1      37.020 -24.186 -11.317  0.00  0.00    +0.029 C 
ATOM     22  C   UNL     1      34.733 -23.492 -11.670  0.00  0.00    +0.029 C 
ATOM     23  C   UNL     1      35.769 -23.841 -10.805  0.00  0.00    +0.140 C 
ENDBRANCH  16  18
ENDBRANCH  12  16
ENDBRANCH   3  10
BRANCH   2  24
ATOM     24  O   UNL     1      34.743 -17.515 -22.864  0.00  0.00    -0.451 OA
BRANCH  24  28
ATOM     25  N   UNL     1      32.954 -13.391 -24.078  0.00  0.00    -0.297 N 
ATOM     26  N   UNL     1      33.451 -13.657 -21.735  0.00  0.00    -0.229 NA
ATOM     27  C   UNL     1      33.814 -15.358 -23.463  0.00  0.00    +0.067 C 
ATOM     28  C   UNL     1      34.321 -16.263 -22.515  0.00  0.00    +0.150 C 
ATOM     29  C   UNL     1      33.410 -14.108 -23.003  0.00  0.00    +0.135 C 
ATOM     30  C   UNL     1      33.585 -15.375 -24.864  0.00  0.00    +0.022 C 
ATOM     31  C   UNL     1      33.055 -14.151 -25.214  0.00  0.00    +0.063 C 
ATOM     32  C   UNL     1      34.384 -15.846 -21.187  0.00  0.00    +0.058 C 
ATOM     33  C   UNL     1      33.948 -14.567 -20.867  0.00  0.00    +0.103 C 
ATOM     34  H   UNL     1      32.606 -12.471 -24.039  0.00  0.00    +0.154 HD
ENDBRANCH  24  28
ENDBRANCH   2  24
TORSDOF 5
ENDMDL
MODEL 6
REMARK VINA RESULT:     -13.5      5.290     12.886
REMARK  Name = 11560856
REMARK  5 active torsions:
REMARK  status: ('A' for Active; 'I' for Inactive)
REMARK    1  A    between atoms: C_2  and  O_24
REMARK    2  A    between atoms: C_3  and  N_10
REMARK    3  A    between atoms: C_12  and  C_16
REMARK    4  A    between atoms: C_16  and  C_18
REMARK    5  A    between atoms: O_24  and  C_28
REMARK                            x       y       z     vdW  Elec       q    Type
REMARK                         _______ _______ _______ _____ _____    ______ ____
ROOT
ATOM      1  F   UNL     1      31.791 -23.630 -16.217  0.00  0.00    -0.201 F 
ATOM      2  C   UNL     1      34.070 -23.067 -15.873  0.00  0.00    +0.173 C 
ATOM      3  C   UNL     1      34.057 -21.632 -18.241  0.00  0.00    +0.054 C 
ATOM      4  C   UNL     1      32.905 -23.005 -16.621  0.00  0.00    +0.176 C 
ATOM      5  C   UNL     1      35.227 -22.427 -16.282  0.00  0.00    +0.041 C 
ATOM      6  C   UNL     1      32.900 -22.282 -17.814  0.00  0.00    +0.047 C 
ATOM      7  C   UNL     1      35.221 -21.705 -17.475  0.00  0.00    +0.018 C 
ENDROOT
BRANCH   3  10
ATOM      8  O   UNL     1      36.547 -18.253 -21.702  0.00  0.00    -0.274 OA
ATOM      9  O   UNL     1      36.147 -19.840 -19.438  0.00  0.00    -0.252 OA
ATOM     10  N   UNL     1      34.050 -20.908 -19.433  0.00  0.00    -0.268 N 
ATOM     11  N   UNL     1      34.659 -19.524 -21.193  0.00  0.00    -0.239 N 
ATOM     12  C   UNL     1      35.421 -18.656 -21.979  0.00  0.00    +0.234 C 
ATOM     13  C   UNL     1      35.060 -20.074 -19.959  0.00  0.00    +0.310 C 
ATOM     14  H   UNL     1      33.235 -20.988 -19.979  0.00  0.00    +0.156 HD
ATOM     15  H   UNL     1      33.767 -19.772 -21.528  0.00  0.00    +0.159 HD
BRANCH  12  16
ATOM     16  C   UNL     1      34.678 -18.262 -23.241  0.00  0.00    +0.112 C 
BRANCH  16  18
ATOM     17  F   UNL     1      33.274 -12.821 -23.392  0.00  0.00    -0.204 F 
ATOM     18  C   UNL     1      34.300 -16.804 -23.281  0.00  0.00    -0.013 C 
ATOM     19  C   UNL     1      34.442 -16.031 -22.138  0.00  0.00    -0.001 C 
ATOM     20  C   UNL     1      33.818 -16.256 -24.461  0.00  0.00    -0.001 C 
ATOM     21  C   UNL     1      34.093 -14.680 -22.175  0.00  0.00    +0.029 C 
ATOM     22  C   UNL     1      33.469 -14.906 -24.499  0.00  0.00    +0.029 C 
ATOM     23  C   UNL     1      33.608 -14.118 -23.356  0.00  0.00    +0.140 C 
ENDBRANCH  16  18
ENDBRANCH  12  16
ENDBRANCH   3  10
BRANCH   2  24
ATOM     24  O   UNL     1      34.076 -23.782 -14.691  0.00  0.00    -0.451 OA
BRANCH  24  28
ATOM     25  N   UNL     1      37.941 -24.058 -12.110  0.00  0.00    -0.297 N 
ATOM     26  N   UNL     1      37.621 -25.846 -13.693  0.00  0.00    -0.229 NA
ATOM     27  C   UNL     1      36.096 -23.955 -13.365  0.00  0.00    +0.067 C 
ATOM     28  C   UNL     1      35.227 -24.438 -14.356  0.00  0.00    +0.150 C 
ATOM     29  C   UNL     1      37.242 -24.700 -13.099  0.00  0.00    +0.135 C 
ATOM     30  C   UNL     1      36.124 -22.832 -12.496  0.00  0.00    +0.022 C 
ATOM     31  C   UNL     1      37.271 -22.923 -11.735  0.00  0.00    +0.063 C 
ATOM     32  C   UNL     1      35.572 -25.623 -15.003  0.00  0.00    +0.058 C 
ATOM     33  C   UNL     1      36.749 -26.264 -14.639  0.00  0.00    +0.103 C 
ATOM     34  H   UNL     1      38.794 -24.367 -11.726  0.00  0.00    +0.154 HD
ENDBRANCH  24  28
ENDBRANCH   2  24
TORSDOF 5
ENDMDL
MODEL 7
REMARK VINA RESULT:     -13.5      2.850     11.231
REMARK  Name = 11560856
REMARK  5 active torsions:
REMARK  status: ('A' for Active; 'I' for Inactive)
REMARK    1  A    between atoms: C_2  and  O_24
REMARK    2  A    between atoms: C_3  and  N_10
REMARK    3  A    between atoms: C_12  and  C_16
REMARK    4  A    between atoms: C_16  and  C_18
REMARK    5  A    between atoms: O_24  and  C_28
REMARK                            x       y       z     vdW  Elec       q    Type
REMARK                         _______ _______ _______ _____ _____    ______ ____
ROOT
ATOM      1  F   UNL     1      34.234 -17.944 -24.391  0.00  0.00    -0.201 F 
ATOM      2  C   UNL     1      34.618 -17.423 -22.109  0.00  0.00    +0.173 C 
ATOM      3  C   UNL     1      33.877 -14.800 -22.598  0.00  0.00    +0.054 C 
ATOM      4  C   UNL     1      34.242 -17.053 -23.390  0.00  0.00    +0.176 C 
ATOM      5  C   UNL     1      34.631 -16.511 -21.067  0.00  0.00    +0.041 C 
ATOM      6  C   UNL     1      33.869 -15.732 -23.635  0.00  0.00    +0.047 C 
ATOM      7  C   UNL     1      34.258 -15.190 -21.314  0.00  0.00    +0.018 C 
ENDROOT
BRANCH   3  10
ATOM      8  O   UNL     1      30.755 -10.504 -21.420  0.00  0.00    -0.274 OA
ATOM      9  O   UNL     1      31.803 -13.089 -21.264  0.00  0.00    -0.252 OA
ATOM     10  N   UNL     1      33.502 -13.479 -22.844  0.00  0.00    -0.268 N 
ATOM     11  N   UNL     1      32.448 -11.416 -22.740  0.00  0.00    -0.239 N 
ATOM     12  C   UNL     1      31.579 -10.404 -22.325  0.00  0.00    +0.234 C 
ATOM     13  C   UNL     1      32.517 -12.711 -22.189  0.00  0.00    +0.310 C 
ATOM     14  H   UNL     1      33.987 -13.024 -23.569  0.00  0.00    +0.156 HD
ATOM     15  H   UNL     1      33.063 -11.208 -23.480  0.00  0.00    +0.159 HD
BRANCH  12  16
ATOM     16  C   UNL     1      31.777  -9.140 -23.141  0.00  0.00    +0.112 C 
BRANCH  16  18
ATOM     17  F   UNL     1      30.567  -4.441 -20.304  0.00  0.00    -0.204 F 
ATOM     18  C   UNL     1      31.452  -7.881 -22.380  0.00  0.00    -0.013 C 
ATOM     19  C   UNL     1      32.023  -7.670 -21.133  0.00  0.00    -0.001 C 
ATOM     20  C   UNL     1      30.588  -6.951 -22.938  0.00  0.00    -0.001 C 
ATOM     21  C   UNL     1      31.722  -6.504 -20.428  0.00  0.00    +0.029 C 
ATOM     22  C   UNL     1      30.287  -5.784 -22.234  0.00  0.00    +0.029 C 
ATOM     23  C   UNL     1      30.855  -5.561 -20.980  0.00  0.00    +0.140 C 
ENDBRANCH  16  18
ENDBRANCH  12  16
ENDBRANCH   3  10
BRANCH   2  24
ATOM     24  O   UNL     1      34.986 -18.732 -21.864  0.00  0.00    -0.451 OA
BRANCH  24  28
ATOM     25  N   UNL     1      34.502 -21.643 -18.264  0.00  0.00    -0.297 N 
ATOM     26  N   UNL     1      32.455 -21.003 -19.362  0.00  0.00    -0.229 NA
ATOM     27  C   UNL     1      34.700 -20.248 -19.996  0.00  0.00    +0.067 C 
ATOM     28  C   UNL     1      34.181 -19.472 -21.046  0.00  0.00    +0.150 C 
ATOM     29  C   UNL     1      33.792 -20.964 -19.220  0.00  0.00    +0.135 C 
ATOM     30  C   UNL     1      35.992 -20.518 -19.473  0.00  0.00    +0.022 C 
ATOM     31  C   UNL     1      35.838 -21.379 -18.407  0.00  0.00    +0.063 C 
ATOM     32  C   UNL     1      32.800 -19.476 -21.237  0.00  0.00    +0.058 C 
ATOM     33  C   UNL     1      32.011 -20.240 -20.387  0.00  0.00    +0.103 C 
ATOM     34  H   UNL     1      34.109 -22.231 -17.577  0.00  0.00    +0.154 HD
ENDBRANCH  24  28
ENDBRANCH   2  24
TORSDOF 5
ENDMDL
MODEL 8
REMARK VINA RESULT:     -13.4      4.108     11.370
REMARK  Name = 11560856
REMARK  5 active torsions:
REMARK  status: ('A' for Active; 'I' for Inactive)
REMARK    1  A    between atoms: C_2  and  O_24
REMARK    2  A    between atoms: C_3  and  N_10
REMARK    3  A    between atoms: C_12  and  C_16
REMARK    4  A    between atoms: C_16  and  C_18
REMARK    5  A    between atoms: O_24  and  C_28
REMARK                            x       y       z     vdW  Elec       q    Type
REMARK                         _______ _______ _______ _____ _____    ______ ____
ROOT
ATOM      1  F   UNL     1      31.575 -21.654 -18.538  0.00  0.00    -0.201 F 
ATOM      2  C   UNL     1      33.924 -21.975 -18.627  0.00  0.00    +0.173 C 
ATOM      3  C   UNL     1      34.161 -19.697 -20.183  0.00  0.00    +0.054 C 
ATOM      4  C   UNL     1      32.785 -21.259 -18.958  0.00  0.00    +0.176 C 
ATOM      5  C   UNL     1      35.178 -21.577 -19.057  0.00  0.00    +0.041 C 
ATOM      6  C   UNL     1      32.905 -20.112 -19.741  0.00  0.00    +0.047 C 
ATOM      7  C   UNL     1      35.297 -20.429 -19.841  0.00  0.00    +0.018 C 
ENDROOT
BRANCH   3  10
ATOM      8  O   UNL     1      33.728 -17.235 -25.016  0.00  0.00    -0.274 OA
ATOM      9  O   UNL     1      33.629 -19.273 -23.108  0.00  0.00    -0.252 OA
ATOM     10  N   UNL     1      34.280 -18.548 -20.966  0.00  0.00    -0.268 N 
ATOM     11  N   UNL     1      34.264 -17.068 -22.751  0.00  0.00    -0.239 N 
ATOM     12  C   UNL     1      34.105 -16.576 -24.050  0.00  0.00    +0.234 C 
ATOM     13  C   UNL     1      34.018 -18.394 -22.344  0.00  0.00    +0.310 C 
ATOM     14  H   UNL     1      34.587 -17.740 -20.496  0.00  0.00    +0.156 HD
ATOM     15  H   UNL     1      34.574 -16.435 -22.064  0.00  0.00    +0.159 HD
BRANCH  12  16
ATOM     16  C   UNL     1      34.460 -15.104 -24.128  0.00  0.00    +0.112 C 
BRANCH  16  18
ATOM     17  F   UNL     1      31.763 -11.952 -20.335  0.00  0.00    -0.204 F 
ATOM     18  C   UNL     1      33.737 -14.260 -23.111  0.00  0.00    -0.013 C 
ATOM     19  C   UNL     1      33.997 -14.444 -21.761  0.00  0.00    -0.001 C 
ATOM     20  C   UNL     1      32.822 -13.310 -23.541  0.00  0.00    -0.001 C 
ATOM     21  C   UNL     1      33.327 -13.662 -20.819  0.00  0.00    +0.029 C 
ATOM     22  C   UNL     1      32.152 -12.528 -22.599  0.00  0.00    +0.029 C 
ATOM     23  C   UNL     1      32.406 -12.703 -21.239  0.00  0.00    +0.140 C 
ENDBRANCH  16  18
ENDBRANCH  12  16
ENDBRANCH   3  10
BRANCH   2  24
ATOM     24  O   UNL     1      33.806 -23.111 -17.851  0.00  0.00    -0.451 OA
BRANCH  24  28
ATOM     25  N   UNL     1      31.984 -22.825 -13.575  0.00  0.00    -0.297 N 
ATOM     26  N   UNL     1      34.387 -22.686 -13.690  0.00  0.00    -0.229 NA
ATOM     27  C   UNL     1      32.890 -22.958 -15.612  0.00  0.00    +0.067 C 
ATOM     28  C   UNL     1      33.977 -22.974 -16.502  0.00  0.00    +0.150 C 
ATOM     29  C   UNL     1      33.173 -22.815 -14.257  0.00  0.00    +0.135 C 
ATOM     30  C   UNL     1      31.478 -23.057 -15.730  0.00  0.00    +0.022 C 
ATOM     31  C   UNL     1      30.948 -22.972 -14.459  0.00  0.00    +0.063 C 
ATOM     32  C   UNL     1      35.257 -22.845 -15.967  0.00  0.00    +0.058 C 
ATOM     33  C   UNL     1      35.395 -22.706 -14.592  0.00  0.00    +0.103 C 
ATOM     34  H   UNL     1      31.890 -22.741 -12.598  0.00  0.00    +0.154 HD
ENDBRANCH  24  28
ENDBRANCH   2  24
TORSDOF 5
ENDMDL
MODEL 9
REMARK VINA RESULT:     -13.4      4.675      7.704
REMARK  Name = 11560856
REMARK  5 active torsions:
REMARK  status: ('A' for Active; 'I' for Inactive)
REMARK    1  A    between atoms: C_2  and  O_24
REMARK    2  A    between atoms: C_3  and  N_10
REMARK    3  A    between atoms: C_12  and  C_16
REMARK    4  A    between atoms: C_16  and  C_18
REMARK    5  A    between atoms: O_24  and  C_28
REMARK                            x       y       z     vdW  Elec       q    Type
REMARK                         _______ _______ _______ _____ _____    ______ ____
ROOT
ATOM      1  F   UNL     1      32.937 -19.044 -22.338  0.00  0.00    -0.201 F 
ATOM      2  C   UNL     1      35.127 -18.229 -21.927  0.00  0.00    +0.173 C 
ATOM      3  C   UNL     1      35.411 -20.069 -19.879  0.00  0.00    +0.054 C 
ATOM      4  C   UNL     1      34.080 -19.090 -21.641  0.00  0.00    +0.176 C 
ATOM      5  C   UNL     1      36.311 -18.267 -21.212  0.00  0.00    +0.041 C 
ATOM      6  C   UNL     1      34.225 -20.018 -20.610  0.00  0.00    +0.047 C 
ATOM      7  C   UNL     1      36.455 -19.194 -20.180  0.00  0.00    +0.018 C 
ENDROOT
BRANCH   3  10
ATOM      8  O   UNL     1      37.363 -21.382 -14.973  0.00  0.00    -0.274 OA
ATOM      9  O   UNL     1      36.836 -19.845 -17.245  0.00  0.00    -0.252 OA
ATOM     10  N   UNL     1      35.555 -20.999 -18.848  0.00  0.00    -0.268 N 
ATOM     11  N   UNL     1      36.146 -22.028 -16.855  0.00  0.00    -0.239 N 
ATOM     12  C   UNL     1      36.709 -22.218 -15.591  0.00  0.00    +0.234 C 
ATOM     13  C   UNL     1      36.237 -20.849 -17.621  0.00  0.00    +0.310 C 
ATOM     14  H   UNL     1      35.127 -21.872 -18.995  0.00  0.00    +0.156 HD
ATOM     15  H   UNL     1      35.644 -22.780 -17.243  0.00  0.00    +0.159 HD
BRANCH  12  16
ATOM     16  C   UNL     1      36.414 -23.608 -15.060  0.00  0.00    +0.112 C 
BRANCH  16  18
ATOM     17  F   UNL     1      41.002 -26.346 -13.316  0.00  0.00    -0.204 F 
ATOM     18  C   UNL     1      37.643 -24.343 -14.593  0.00  0.00    -0.013 C 
ATOM     19  C   UNL     1      38.800 -24.293 -15.358  0.00  0.00    -0.001 C 
ATOM     20  C   UNL     1      37.601 -25.058 -13.405  0.00  0.00    -0.001 C 
ATOM     21  C   UNL     1      39.939 -24.973 -14.925  0.00  0.00    +0.029 C 
ATOM     22  C   UNL     1      38.740 -25.738 -12.972  0.00  0.00    +0.029 C 
ATOM     23  C   UNL     1      39.908 -25.694 -13.731  0.00  0.00    +0.140 C 
ENDBRANCH  16  18
ENDBRANCH  12  16
ENDBRANCH   3  10
BRANCH   2  24
ATOM     24  O   UNL     1      34.985 -17.310 -22.949  0.00  0.00    -0.451 OA
BRANCH  24  28
ATOM     25  N   UNL     1      32.754 -13.453 -24.301  0.00  0.00    -0.297 N 
ATOM     26  N   UNL     1      33.244 -13.596 -21.947  0.00  0.00    -0.229 NA
ATOM     27  C   UNL     1      33.824 -15.291 -23.620  0.00  0.00    +0.067 C 
ATOM     28  C   UNL     1      34.417 -16.106 -22.642  0.00  0.00    +0.150 C 
ATOM     29  C   UNL     1      33.274 -14.083 -23.201  0.00  0.00    +0.135 C 
ATOM     30  C   UNL     1      33.619 -15.372 -25.023  0.00  0.00    +0.022 C 
ATOM     31  C   UNL     1      32.958 -14.227 -25.413  0.00  0.00    +0.063 C 
ATOM     32  C   UNL     1      34.413 -15.649 -21.325  0.00  0.00    +0.058 C 
ATOM     33  C   UNL     1      33.829 -14.420 -21.047  0.00  0.00    +0.103 C 
ATOM     34  H   UNL     1      32.303 -12.578 -24.293  0.00  0.00    +0.154 HD
ENDBRANCH  24  28
ENDBRANCH   2  24
TORSDOF 5
ENDMDL
