MODEL 1
REMARK VINA RESULT:     -11.9      0.000      0.000
REMARK  Name = 25113181
REMARK  3 active torsions:
REMARK  status: ('A' for Active; 'I' for Inactive)
REMARK    1  A    between atoms: C_14  and  C_19
REMARK    2  A    between atoms: C_17  and  C_30
REMARK    3  A    between atoms: C_22  and  O_25
REMARK                            x       y       z     vdW  Elec       q    Type
REMARK                         _______ _______ _______ _____ _____    ______ ____
ROOT
ATOM      1  N   UNL     1      35.190 -24.092 -13.823  0.00  0.00    -0.290 N 
ATOM      2  N   UNL     1      38.023 -24.343 -13.554  0.00  0.00    +0.388 N 
ATOM      3  N   UNL     1      33.400 -23.257 -15.139  0.00  0.00    -0.392 NA
ATOM      4  N   UNL     1      31.622 -24.063 -13.160  0.00  0.00    -0.263 NA
ATOM      5  C   UNL     1      36.025 -24.319 -15.009  0.00  0.00    +0.070 C 
ATOM      6  C   UNL     1      35.874 -23.498 -12.670  0.00  0.00    +0.070 C 
ATOM      7  C   UNL     1      37.314 -25.050 -14.627  0.00  0.00    -0.056 C 
ATOM      8  C   UNL     1      37.169 -24.256 -12.364  0.00  0.00    -0.056 C 
ATOM      9  C   UNL     1      33.824 -23.860 -14.015  0.00  0.00    +0.184 C 
ATOM     10  C   UNL     1      39.279 -25.020 -13.235  0.00  0.00    -0.101 C 
ATOM     11  C   UNL     1      32.077 -23.054 -15.280  0.00  0.00    +0.131 C 
ATOM     12  C   UNL     1      32.948 -24.258 -13.040  0.00  0.00    +0.199 C 
ATOM     13  C   UNL     1      31.177 -23.462 -14.279  0.00  0.00    +0.084 C 
ATOM     14  C   UNL     1      31.582 -22.434 -16.425  0.00  0.00    +0.097 C 
ATOM     15  C   UNL     1      29.816 -23.235 -14.457  0.00  0.00    +0.078 C 
ATOM     16  C   UNL     1      30.216 -22.212 -16.594  0.00  0.00    -0.015 C 
ATOM     17  C   UNL     1      29.329 -22.615 -15.607  0.00  0.00    +0.052 C 
ATOM     18  H   UNL     1      38.243 -23.399 -13.872  0.00  0.00    -0.080 HD
ENDROOT
BRANCH  14  19
ATOM     19  C   UNL     1      32.480 -22.000 -17.480  0.00  0.00    -0.009 C 
ATOM     20  C   UNL     1      31.984 -21.279 -18.566  0.00  0.00    +0.033 C 
ATOM     21  C   UNL     1      33.839 -22.302 -17.406  0.00  0.00    -0.003 C 
ATOM     22  C   UNL     1      32.847 -20.862 -19.578  0.00  0.00    +0.133 C 
ATOM     23  C   UNL     1      34.703 -21.885 -18.419  0.00  0.00    +0.003 C 
ATOM     24  C   UNL     1      34.207 -21.164 -19.505  0.00  0.00    +0.037 C 
BRANCH  22  25
ATOM     25  O   UNL     1      32.364 -20.157 -20.638  0.00  0.00    -0.506 OA
ATOM     26  H   UNL     1      32.953 -19.694 -21.201  0.00  0.00    +0.292 HD
ENDBRANCH  22  25
ENDBRANCH  14  19
BRANCH  17  30
ATOM     27  F   UNL     1      27.320 -21.592 -14.804  0.00  0.00    -0.166 F 
ATOM     28  F   UNL     1      27.537 -21.782 -16.953  0.00  0.00    -0.166 F 
ATOM     29  F   UNL     1      27.145 -23.546 -15.744  0.00  0.00    -0.166 F 
ATOM     30  C   UNL     1      27.866 -22.386 -15.773  0.00  0.00    +0.415 C 
ENDBRANCH  17  30
TORSDOF 3
ENDMDL
MODEL 2
REMARK VINA RESULT:     -10.1      3.096      5.053
REMARK  Name = 25113181
REMARK  3 active torsions:
REMARK  status: ('A' for Active; 'I' for Inactive)
REMARK    1  A    between atoms: C_14  and  C_19
REMARK    2  A    between atoms: C_17  and  C_30
REMARK    3  A    between atoms: C_22  and  O_25
REMARK                            x       y       z     vdW  Elec       q    Type
REMARK                         _______ _______ _______ _____ _____    ______ ____
ROOT
ATOM      1  N   UNL     1      36.144 -23.571 -14.521  0.00  0.00    -0.290 N 
ATOM      2  N   UNL     1      36.560 -25.166 -12.188  0.00  0.00    +0.388 N 
ATOM      3  N   UNL     1      34.561 -22.720 -16.073  0.00  0.00    -0.392 NA
ATOM      4  N   UNL     1      36.652 -21.651 -17.558  0.00  0.00    -0.263 NA
ATOM      5  C   UNL     1      35.163 -23.548 -13.429  0.00  0.00    +0.070 C 
ATOM      6  C   UNL     1      36.987 -24.769 -14.591  0.00  0.00    +0.070 C 
ATOM      7  C   UNL     1      35.833 -23.893 -12.097  0.00  0.00    -0.056 C 
ATOM      8  C   UNL     1      37.598 -25.076 -13.221  0.00  0.00    -0.056 C 
ATOM      9  C   UNL     1      35.842 -22.866 -15.692  0.00  0.00    +0.184 C 
ATOM     10  C   UNL     1      37.150 -25.513 -10.896  0.00  0.00    -0.101 C 
ATOM     11  C   UNL     1      34.318 -22.035 -17.205  0.00  0.00    +0.131 C 
ATOM     12  C   UNL     1      36.873 -22.339 -16.423  0.00  0.00    +0.199 C 
ATOM     13  C   UNL     1      35.377 -21.494 -17.957  0.00  0.00    +0.084 C 
ATOM     14  C   UNL     1      33.010 -21.853 -17.648  0.00  0.00    +0.097 C 
ATOM     15  C   UNL     1      35.090 -20.791 -19.124  0.00  0.00    +0.078 C 
ATOM     16  C   UNL     1      32.733 -21.147 -18.818  0.00  0.00    -0.015 C 
ATOM     17  C   UNL     1      33.777 -20.613 -19.558  0.00  0.00    +0.052 C 
ATOM     18  H   UNL     1      35.902 -25.903 -12.445  0.00  0.00    -0.080 HD
ENDROOT
BRANCH  14  19
ATOM     19  C   UNL     1      31.892 -22.397 -16.897  0.00  0.00    -0.009 C 
ATOM     20  C   UNL     1      30.592 -21.985 -17.187  0.00  0.00    +0.033 C 
ATOM     21  C   UNL     1      32.119 -23.332 -15.888  0.00  0.00    -0.003 C 
ATOM     22  C   UNL     1      29.518 -22.508 -16.467  0.00  0.00    +0.133 C 
ATOM     23  C   UNL     1      31.045 -23.855 -15.167  0.00  0.00    +0.003 C 
ATOM     24  C   UNL     1      29.745 -23.444 -15.457  0.00  0.00    +0.037 C 
BRANCH  22  25
ATOM     25  O   UNL     1      28.248 -22.108 -16.750  0.00  0.00    -0.506 OA
ATOM     26  H   UNL     1      27.967 -21.245 -16.521  0.00  0.00    +0.292 HD
ENDBRANCH  22  25
ENDBRANCH  14  19
BRANCH  17  30
ATOM     27  F   UNL     1      33.728 -18.513 -20.703  0.00  0.00    -0.166 F 
ATOM     28  F   UNL     1      34.253 -20.260 -21.875  0.00  0.00    -0.166 F 
ATOM     29  F   UNL     1      32.200 -19.973 -21.218  0.00  0.00    -0.166 F 
ATOM     30  C   UNL     1      33.498 -19.855 -20.810  0.00  0.00    +0.415 C 
ENDBRANCH  17  30
TORSDOF 3
ENDMDL
MODEL 3
REMARK VINA RESULT:      -9.9      4.181      6.993
REMARK  Name = 25113181
REMARK  3 active torsions:
REMARK  status: ('A' for Active; 'I' for Inactive)
REMARK    1  A    between atoms: C_14  and  C_19
REMARK    2  A    between atoms: C_17  and  C_30
REMARK    3  A    between atoms: C_22  and  O_25
REMARK                            x       y       z     vdW  Elec       q    Type
REMARK                         _______ _______ _______ _____ _____    ______ ____
ROOT
ATOM      1  N   UNL     1      35.758 -21.050 -18.270  0.00  0.00    -0.290 N 
ATOM      2  N   UNL     1      34.939 -19.589 -20.585  0.00  0.00    +0.388 N 
ATOM      3  N   UNL     1      35.068 -22.119 -16.266  0.00  0.00    -0.392 NA
ATOM      4  N   UNL     1      37.737 -22.558 -15.629  0.00  0.00    -0.263 NA
ATOM      5  C   UNL     1      34.497 -21.384 -18.944  0.00  0.00    +0.070 C 
ATOM      6  C   UNL     1      36.254 -19.689 -18.493  0.00  0.00    +0.070 C 
ATOM      7  C   UNL     1      34.559 -20.998 -20.423  0.00  0.00    -0.056 C 
ATOM      8  C   UNL     1      36.260 -19.357 -19.988  0.00  0.00    -0.056 C 
ATOM      9  C   UNL     1      36.061 -21.712 -17.075  0.00  0.00    +0.184 C 
ATOM     10  C   UNL     1      34.942 -19.217 -21.999  0.00  0.00    -0.101 C 
ATOM     11  C   UNL     1      35.406 -22.751 -15.127  0.00  0.00    +0.131 C 
ATOM     12  C   UNL     1      37.376 -21.929 -16.762  0.00  0.00    +0.199 C 
ATOM     13  C   UNL     1      36.758 -22.974 -14.805  0.00  0.00    +0.084 C 
ATOM     14  C   UNL     1      34.419 -23.195 -14.251  0.00  0.00    +0.097 C 
ATOM     15  C   UNL     1      37.072 -23.631 -13.618  0.00  0.00    +0.078 C 
ATOM     16  C   UNL     1      34.744 -23.852 -13.066  0.00  0.00    -0.015 C 
ATOM     17  C   UNL     1      36.076 -24.071 -12.749  0.00  0.00    +0.052 C 
ATOM     18  H   UNL     1      34.253 -19.006 -20.105  0.00  0.00    -0.080 HD
ENDROOT
BRANCH  14  19
ATOM     19  C   UNL     1      33.013 -22.984 -14.551  0.00  0.00    -0.009 C 
ATOM     20  C   UNL     1      32.612 -22.709 -15.858  0.00  0.00    +0.033 C 
ATOM     21  C   UNL     1      32.065 -23.059 -13.531  0.00  0.00    -0.003 C 
ATOM     22  C   UNL     1      31.262 -22.508 -16.144  0.00  0.00    +0.133 C 
ATOM     23  C   UNL     1      30.714 -22.858 -13.818  0.00  0.00    +0.003 C 
ATOM     24  C   UNL     1      30.313 -22.583 -15.125  0.00  0.00    +0.037 C 
BRANCH  22  25
ATOM     25  O   UNL     1      30.870 -22.240 -17.420  0.00  0.00    -0.506 OA
ATOM     26  H   UNL     1      31.024 -22.867 -18.099  0.00  0.00    +0.292 HD
ENDBRANCH  22  25
ENDBRANCH  14  19
BRANCH  17  30
ATOM     27  F   UNL     1      36.745 -26.094 -11.659  0.00  0.00    -0.166 F 
ATOM     28  F   UNL     1      37.530 -24.238 -10.857  0.00  0.00    -0.166 F 
ATOM     29  F   UNL     1      35.437 -24.748 -10.560  0.00  0.00    -0.166 F 
ATOM     30  C   UNL     1      36.441 -24.773 -11.485  0.00  0.00    +0.415 C 
ENDBRANCH  17  30
TORSDOF 3
ENDMDL
MODEL 4
REMARK VINA RESULT:      -9.1      3.037      4.937
REMARK  Name = 25113181
REMARK  3 active torsions:
REMARK  status: ('A' for Active; 'I' for Inactive)
REMARK    1  A    between atoms: C_14  and  C_19
REMARK    2  A    between atoms: C_17  and  C_30
REMARK    3  A    between atoms: C_22  and  O_25
REMARK                            x       y       z     vdW  Elec       q    Type
REMARK                         _______ _______ _______ _____ _____    ______ ____
ROOT
ATOM      1  N   UNL     1      36.223 -23.663 -14.332  0.00  0.00    -0.290 N 
ATOM      2  N   UNL     1      37.119 -25.145 -12.060  0.00  0.00    +0.388 N 
ATOM      3  N   UNL     1      34.357 -22.977 -15.629  0.00  0.00    -0.392 NA
ATOM      4  N   UNL     1      36.102 -21.816 -17.453  0.00  0.00    -0.263 NA
ATOM      5  C   UNL     1      35.428 -23.670 -13.098  0.00  0.00    +0.070 C 
ATOM      6  C   UNL     1      37.130 -24.800 -14.508  0.00  0.00    +0.070 C 
ATOM      7  C   UNL     1      36.324 -23.923 -11.883  0.00  0.00    -0.056 C 
ATOM      8  C   UNL     1      37.971 -25.018 -13.248  0.00  0.00    -0.056 C 
ATOM      9  C   UNL     1      35.689 -23.020 -15.454  0.00  0.00    +0.184 C 
ATOM     10  C   UNL     1      37.930 -25.407 -10.872  0.00  0.00    -0.101 C 
ATOM     11  C   UNL     1      33.888 -22.349 -16.723  0.00  0.00    +0.131 C 
ATOM     12  C   UNL     1      36.549 -22.448 -16.353  0.00  0.00    +0.199 C 
ATOM     13  C   UNL     1      34.772 -21.761 -17.646  0.00  0.00    +0.084 C 
ATOM     14  C   UNL     1      32.517 -22.273 -16.955  0.00  0.00    +0.097 C 
ATOM     15  C   UNL     1      34.253 -21.120 -18.768  0.00  0.00    +0.078 C 
ATOM     16  C   UNL     1      32.007 -21.628 -18.081  0.00  0.00    -0.015 C 
ATOM     17  C   UNL     1      32.879 -21.048 -18.990  0.00  0.00    +0.052 C 
ATOM     18  H   UNL     1      36.485 -25.934 -12.192  0.00  0.00    -0.080 HD
ENDROOT
BRANCH  14  19
ATOM     19  C   UNL     1      31.574 -22.867 -16.023  0.00  0.00    -0.009 C 
ATOM     20  C   UNL     1      32.039 -23.556 -14.903  0.00  0.00    +0.033 C 
ATOM     21  C   UNL     1      30.203 -22.747 -16.249  0.00  0.00    -0.003 C 
ATOM     22  C   UNL     1      31.133 -24.125 -14.009  0.00  0.00    +0.133 C 
ATOM     23  C   UNL     1      29.296 -23.316 -15.354  0.00  0.00    +0.003 C 
ATOM     24  C   UNL     1      29.761 -24.005 -14.234  0.00  0.00    +0.037 C 
BRANCH  22  25
ATOM     25  O   UNL     1      31.586 -24.796 -12.915  0.00  0.00    -0.506 OA
ATOM     26  H   UNL     1      31.559 -25.732 -12.894  0.00  0.00    +0.292 HD
ENDBRANCH  22  25
ENDBRANCH  14  19
BRANCH  17  30
ATOM     27  F   UNL     1      31.601 -19.248 -19.913  0.00  0.00    -0.166 F 
ATOM     28  F   UNL     1      33.326 -19.913 -21.047  0.00  0.00    -0.166 F 
ATOM     29  F   UNL     1      31.544 -21.156 -20.955  0.00  0.00    -0.166 F 
ATOM     30  C   UNL     1      32.350 -20.354 -20.199  0.00  0.00    +0.415 C 
ENDBRANCH  17  30
TORSDOF 3
ENDMDL
