MODEL 1
REMARK VINA RESULT:     -11.8      0.000      0.000
REMARK  Name = 197033
REMARK  3 active torsions:
REMARK  status: ('A' for Active; 'I' for Inactive)
REMARK    1  A    between atoms: N_1  and  C_17
REMARK    2  A    between atoms: C_17  and  C_18
REMARK    3  A    between atoms: C_18  and  C_20
REMARK                            x       y       z     vdW  Elec       q    Type
REMARK                         _______ _______ _______ _____ _____    ______ ____
ROOT
ATOM      1  N   UNL     1      35.219 -22.193 -16.652  0.00  0.00    -0.331 N 
ATOM      2  N   UNL     1      36.742 -23.597 -13.107  0.00  0.00    +0.388 N 
ATOM      3  C   UNL     1      35.883 -22.745 -15.598  0.00  0.00    +0.029 A 
ATOM      4  C   UNL     1      34.968 -23.329 -14.750  0.00  0.00    -0.030 A 
ATOM      5  C   UNL     1      37.348 -22.701 -15.367  0.00  0.00    +0.021 C 
ATOM      6  C   UNL     1      35.382 -24.040 -13.505  0.00  0.00    -0.049 C 
ATOM      7  C   UNL     1      33.679 -23.132 -15.322  0.00  0.00    +0.011 A 
ATOM      8  C   UNL     1      37.707 -23.682 -14.228  0.00  0.00    -0.071 C 
ATOM      9  C   UNL     1      33.866 -22.417 -16.511  0.00  0.00    +0.059 A 
ATOM     10  C   UNL     1      32.369 -23.493 -14.948  0.00  0.00    -0.003 C 
ATOM     11  C   UNL     1      32.801 -22.043 -17.339  0.00  0.00    +0.017 C 
ATOM     12  C   UNL     1      37.210 -24.384 -11.966  0.00  0.00    -0.100 C 
ATOM     13  C   UNL     1      31.297 -23.125 -15.769  0.00  0.00    -0.022 C 
ATOM     14  C   UNL     1      31.513 -22.411 -16.946  0.00  0.00    -0.003 C 
ATOM     15  C   UNL     1      29.907 -23.504 -15.377  0.00  0.00    +0.031 C 
ATOM     16  H   UNL     1      36.681 -22.615 -12.838  0.00  0.00    -0.079 HD
ENDROOT
BRANCH   1  17
ATOM     17  C   UNL     1      35.837 -21.488 -17.755  0.00  0.00    +0.110 C 
BRANCH  17  18
ATOM     18  C   UNL     1      35.083 -21.643 -19.080  0.00  0.00    +0.052 C 
BRANCH  18  20
ATOM     19  N   UNL     1      36.155 -18.410 -20.693  0.00  0.00    -0.248 NA
ATOM     20  C   UNL     1      35.030 -20.371 -19.890  0.00  0.00    -0.001 C 
ATOM     21  C   UNL     1      33.868 -20.010 -20.541  0.00  0.00    -0.001 C 
ATOM     22  C   UNL     1      36.136 -19.561 -19.985  0.00  0.00    +0.094 C 
ATOM     23  C   UNL     1      33.848 -18.833 -21.280  0.00  0.00    +0.014 C 
ATOM     24  C   UNL     1      35.007 -18.075 -21.323  0.00  0.00    +0.059 C 
ATOM     25  C   UNL     1      35.022 -16.805 -22.107  0.00  0.00    +0.052 C 
ENDBRANCH  18  20
ENDBRANCH  17  18
ENDBRANCH   1  17
TORSDOF 3
ENDMDL
MODEL 2
REMARK VINA RESULT:     -11.5      2.504      7.236
REMARK  Name = 197033
REMARK  3 active torsions:
REMARK  status: ('A' for Active; 'I' for Inactive)
REMARK    1  A    between atoms: N_1  and  C_17
REMARK    2  A    between atoms: C_17  and  C_18
REMARK    3  A    between atoms: C_18  and  C_20
REMARK                            x       y       z     vdW  Elec       q    Type
REMARK                         _______ _______ _______ _____ _____    ______ ____
ROOT
ATOM      1  N   UNL     1      34.050 -22.896 -14.529  0.00  0.00    -0.331 N 
ATOM      2  N   UNL     1      30.048 -22.960 -15.442  0.00  0.00    +0.388 N 
ATOM      3  C   UNL     1      32.719 -23.109 -14.728  0.00  0.00    +0.029 A 
ATOM      4  C   UNL     1      32.403 -22.773 -16.026  0.00  0.00    -0.030 A 
ATOM      5  C   UNL     1      31.749 -23.589 -13.714  0.00  0.00    +0.021 C 
ATOM      6  C   UNL     1      31.018 -22.912 -16.564  0.00  0.00    -0.049 C 
ATOM      7  C   UNL     1      33.605 -22.342 -16.655  0.00  0.00    +0.011 A 
ATOM      8  C   UNL     1      30.427 -23.964 -14.420  0.00  0.00    -0.071 C 
ATOM      9  C   UNL     1      34.620 -22.428 -15.694  0.00  0.00    +0.059 A 
ATOM     10  C   UNL     1      33.932 -21.888 -17.948  0.00  0.00    -0.003 C 
ATOM     11  C   UNL     1      35.947 -22.076 -15.969  0.00  0.00    +0.017 C 
ATOM     12  C   UNL     1      28.705 -23.231 -15.953  0.00  0.00    -0.100 C 
ATOM     13  C   UNL     1      35.256 -21.534 -18.234  0.00  0.00    -0.022 C 
ATOM     14  C   UNL     1      36.246 -21.628 -17.258  0.00  0.00    -0.003 C 
ATOM     15  C   UNL     1      35.609 -21.051 -19.602  0.00  0.00    +0.031 C 
ATOM     16  H   UNL     1      30.059 -22.049 -14.985  0.00  0.00    -0.079 HD
ENDROOT
BRANCH   1  17
ATOM     17  C   UNL     1      34.761 -23.134 -13.291  0.00  0.00    +0.110 C 
BRANCH  17  18
ATOM     18  C   UNL     1      35.096 -24.609 -13.049  0.00  0.00    +0.052 C 
BRANCH  18  20
ATOM     19  N   UNL     1      38.119 -26.481 -14.296  0.00  0.00    -0.248 NA
ATOM     20  C   UNL     1      36.535 -24.952 -13.342  0.00  0.00    -0.001 C 
ATOM     21  C   UNL     1      37.546 -24.101 -12.948  0.00  0.00    -0.001 C 
ATOM     22  C   UNL     1      36.852 -26.115 -14.003  0.00  0.00    +0.094 C 
ATOM     23  C   UNL     1      38.864 -24.442 -13.231  0.00  0.00    +0.014 C 
ATOM     24  C   UNL     1      39.095 -25.633 -13.901  0.00  0.00    +0.059 C 
ATOM     25  C   UNL     1      40.497 -26.032 -14.222  0.00  0.00    +0.052 C 
ENDBRANCH  18  20
ENDBRANCH  17  18
ENDBRANCH   1  17
TORSDOF 3
ENDMDL
MODEL 3
REMARK VINA RESULT:     -11.1      1.449      4.159
REMARK  Name = 197033
REMARK  3 active torsions:
REMARK  status: ('A' for Active; 'I' for Inactive)
REMARK    1  A    between atoms: N_1  and  C_17
REMARK    2  A    between atoms: C_17  and  C_18
REMARK    3  A    between atoms: C_18  and  C_20
REMARK                            x       y       z     vdW  Elec       q    Type
REMARK                         _______ _______ _______ _____ _____    ______ ____
ROOT
ATOM      1  N   UNL     1      34.717 -22.638 -15.783  0.00  0.00    -0.331 N 
ATOM      2  N   UNL     1      31.129 -24.161 -14.495  0.00  0.00    +0.388 N 
ATOM      3  C   UNL     1      33.452 -22.939 -15.375  0.00  0.00    +0.029 A 
ATOM      4  C   UNL     1      33.523 -23.780 -14.286  0.00  0.00    -0.030 A 
ATOM      5  C   UNL     1      32.195 -22.476 -16.011  0.00  0.00    +0.021 C 
ATOM      6  C   UNL     1      32.300 -24.278 -13.591  0.00  0.00    -0.049 C 
ATOM      7  C   UNL     1      34.902 -23.994 -14.009  0.00  0.00    +0.011 A 
ATOM      8  C   UNL     1      31.008 -22.804 -15.077  0.00  0.00    -0.071 C 
ATOM      9  C   UNL     1      35.627 -23.269 -14.962  0.00  0.00    +0.059 A 
ATOM     10  C   UNL     1      35.609 -24.733 -13.038  0.00  0.00    -0.003 C 
ATOM     11  C   UNL     1      37.027 -23.254 -14.990  0.00  0.00    +0.017 C 
ATOM     12  C   UNL     1      29.906 -24.521 -13.778  0.00  0.00    -0.100 C 
ATOM     13  C   UNL     1      37.008 -24.725 -13.057  0.00  0.00    -0.022 C 
ATOM     14  C   UNL     1      37.704 -23.995 -14.019  0.00  0.00    -0.003 C 
ATOM     15  C   UNL     1      37.762 -25.506 -12.033  0.00  0.00    +0.031 C 
ATOM     16  H   UNL     1      31.270 -24.808 -15.270  0.00  0.00    -0.079 HD
ENDROOT
BRANCH   1  17
ATOM     17  C   UNL     1      35.056 -21.780 -16.899  0.00  0.00    +0.110 C 
BRANCH  17  18
ATOM     18  C   UNL     1      34.330 -22.149 -18.197  0.00  0.00    +0.052 C 
BRANCH  18  20
ATOM     19  N   UNL     1      35.665 -19.504 -20.525  0.00  0.00    -0.248 NA
ATOM     20  C   UNL     1      34.366 -21.054 -19.235  0.00  0.00    -0.001 C 
ATOM     21  C   UNL     1      33.198 -20.613 -19.821  0.00  0.00    -0.001 C 
ATOM     22  C   UNL     1      35.563 -20.487 -19.604  0.00  0.00    +0.094 C 
ATOM     23  C   UNL     1      33.263 -19.603 -20.775  0.00  0.00    +0.014 C 
ATOM     24  C   UNL     1      34.509 -19.086 -21.088  0.00  0.00    +0.059 C 
ATOM     25  C   UNL     1      34.616 -18.001 -22.107  0.00  0.00    +0.052 C 
ENDBRANCH  18  20
ENDBRANCH  17  18
ENDBRANCH   1  17
TORSDOF 3
ENDMDL
MODEL 4
REMARK VINA RESULT:     -11.1      1.375      2.182
REMARK  Name = 197033
REMARK  3 active torsions:
REMARK  status: ('A' for Active; 'I' for Inactive)
REMARK    1  A    between atoms: N_1  and  C_17
REMARK    2  A    between atoms: C_17  and  C_18
REMARK    3  A    between atoms: C_18  and  C_20
REMARK                            x       y       z     vdW  Elec       q    Type
REMARK                         _______ _______ _______ _____ _____    ______ ____
ROOT
ATOM      1  N   UNL     1      32.406 -22.533 -16.487  0.00  0.00    -0.331 N 
ATOM      2  N   UNL     1      35.182 -22.811 -13.474  0.00  0.00    +0.388 N 
ATOM      3  C   UNL     1      33.469 -22.675 -15.645  0.00  0.00    +0.029 A 
ATOM      4  C   UNL     1      33.065 -23.379 -14.532  0.00  0.00    -0.030 A 
ATOM      5  C   UNL     1      34.833 -22.135 -15.861  0.00  0.00    +0.021 C 
ATOM      6  C   UNL     1      34.008 -23.718 -13.426  0.00  0.00    -0.049 C 
ATOM      7  C   UNL     1      31.688 -23.691 -14.707  0.00  0.00    +0.011 A 
ATOM      8  C   UNL     1      35.792 -22.761 -14.823  0.00  0.00    -0.071 C 
ATOM      9  C   UNL     1      31.301 -23.149 -15.939  0.00  0.00    +0.059 A 
ATOM     10  C   UNL     1      30.729 -24.385 -13.941  0.00  0.00    -0.003 C 
ATOM     11  C   UNL     1      29.997 -23.265 -16.435  0.00  0.00    +0.017 C 
ATOM     12  C   UNL     1      36.172 -23.221 -12.479  0.00  0.00    -0.100 C 
ATOM     13  C   UNL     1      29.423 -24.508 -14.429  0.00  0.00    -0.022 C 
ATOM     14  C   UNL     1      29.066 -23.956 -15.657  0.00  0.00    -0.003 C 
ATOM     15  C   UNL     1      28.404 -25.241 -13.621  0.00  0.00    +0.031 C 
ATOM     16  H   UNL     1      34.854 -21.870 -13.258  0.00  0.00    -0.079 HD
ENDROOT
BRANCH   1  17
ATOM     17  C   UNL     1      32.433 -21.851 -17.763  0.00  0.00    +0.110 C 
BRANCH  17  18
ATOM     18  C   UNL     1      33.626 -22.242 -18.642  0.00  0.00    +0.052 C 
BRANCH  18  20
ATOM     19  N   UNL     1      36.111 -19.778 -20.038  0.00  0.00    -0.248 NA
ATOM     20  C   UNL     1      34.196 -21.087 -19.427  0.00  0.00    -0.001 C 
ATOM     21  C   UNL     1      33.373 -20.310 -20.216  0.00  0.00    -0.001 C 
ATOM     22  C   UNL     1      35.538 -20.797 -19.361  0.00  0.00    +0.094 C 
ATOM     23  C   UNL     1      33.926 -19.252 -20.929  0.00  0.00    +0.014 C 
ATOM     24  C   UNL     1      35.288 -19.029 -20.806  0.00  0.00    +0.059 C 
ATOM     25  C   UNL     1      35.916 -17.902 -21.556  0.00  0.00    +0.052 C 
ENDBRANCH  18  20
ENDBRANCH  17  18
ENDBRANCH   1  17
TORSDOF 3
ENDMDL
MODEL 5
REMARK VINA RESULT:     -11.0      1.385      4.044
REMARK  Name = 197033
REMARK  3 active torsions:
REMARK  status: ('A' for Active; 'I' for Inactive)
REMARK    1  A    between atoms: N_1  and  C_17
REMARK    2  A    between atoms: C_17  and  C_18
REMARK    3  A    between atoms: C_18  and  C_20
REMARK                            x       y       z     vdW  Elec       q    Type
REMARK                         _______ _______ _______ _____ _____    ______ ____
ROOT
ATOM      1  N   UNL     1      33.967 -22.431 -16.821  0.00  0.00    -0.331 N 
ATOM      2  N   UNL     1      30.685 -23.692 -14.700  0.00  0.00    +0.388 N 
ATOM      3  C   UNL     1      32.775 -22.683 -16.211  0.00  0.00    +0.029 A 
ATOM      4  C   UNL     1      33.005 -22.981 -14.886  0.00  0.00    -0.030 A 
ATOM      5  C   UNL     1      31.442 -22.676 -16.861  0.00  0.00    +0.021 C 
ATOM      6  C   UNL     1      31.893 -23.287 -13.939  0.00  0.00    -0.049 C 
ATOM      7  C   UNL     1      34.410 -22.899 -14.674  0.00  0.00    +0.011 A 
ATOM      8  C   UNL     1      30.349 -22.724 -15.769  0.00  0.00    -0.071 C 
ATOM      9  C   UNL     1      34.988 -22.554 -15.902  0.00  0.00    +0.059 A 
ATOM     10  C   UNL     1      35.250 -23.080 -13.557  0.00  0.00    -0.003 C 
ATOM     11  C   UNL     1      36.369 -22.388 -16.063  0.00  0.00    +0.017 C 
ATOM     12  C   UNL     1      29.554 -23.864 -13.789  0.00  0.00    -0.100 C 
ATOM     13  C   UNL     1      36.632 -22.916 -13.707  0.00  0.00    -0.022 C 
ATOM     14  C   UNL     1      37.180 -22.575 -14.942  0.00  0.00    -0.003 C 
ATOM     15  C   UNL     1      37.527 -23.108 -12.528  0.00  0.00    +0.031 C 
ATOM     16  H   UNL     1      30.891 -24.582 -15.155  0.00  0.00    -0.079 HD
ENDROOT
BRANCH   1  17
ATOM     17  C   UNL     1      34.138 -22.081 -18.215  0.00  0.00    +0.110 C 
BRANCH  17  18
ATOM     18  C   UNL     1      35.451 -21.345 -18.505  0.00  0.00    +0.052 C 
BRANCH  18  20
ATOM     19  N   UNL     1      36.299 -18.428 -20.734  0.00  0.00    -0.248 NA
ATOM     20  C   UNL     1      35.316 -20.273 -19.558  0.00  0.00    -0.001 C 
ATOM     21  C   UNL     1      34.147 -20.153 -20.281  0.00  0.00    -0.001 C 
ATOM     22  C   UNL     1      36.355 -19.408 -19.806  0.00  0.00    +0.094 C 
ATOM     23  C   UNL     1      34.051 -19.156 -21.245  0.00  0.00    +0.014 C 
ATOM     24  C   UNL     1      35.145 -18.326 -21.431  0.00  0.00    +0.059 C 
ATOM     25  C   UNL     1      35.078 -17.246 -22.459  0.00  0.00    +0.052 C 
ENDBRANCH  18  20
ENDBRANCH  17  18
ENDBRANCH   1  17
TORSDOF 3
ENDMDL
MODEL 6
REMARK VINA RESULT:     -10.9      1.861      4.445
REMARK  Name = 197033
REMARK  3 active torsions:
REMARK  status: ('A' for Active; 'I' for Inactive)
REMARK    1  A    between atoms: N_1  and  C_17
REMARK    2  A    between atoms: C_17  and  C_18
REMARK    3  A    between atoms: C_18  and  C_20
REMARK                            x       y       z     vdW  Elec       q    Type
REMARK                         _______ _______ _______ _____ _____    ______ ____
ROOT
ATOM      1  N   UNL     1      32.449 -22.474 -16.598  0.00  0.00    -0.331 N 
ATOM      2  N   UNL     1      29.591 -24.674 -14.636  0.00  0.00    +0.388 N 
ATOM      3  C   UNL     1      31.373 -23.029 -15.973  0.00  0.00    +0.029 A 
ATOM      4  C   UNL     1      31.804 -23.681 -14.838  0.00  0.00    -0.030 A 
ATOM      5  C   UNL     1      29.968 -22.980 -16.443  0.00  0.00    +0.021 C 
ATOM      6  C   UNL     1      30.857 -24.379 -13.919  0.00  0.00    -0.049 C 
ATOM      7  C   UNL     1      33.214 -23.507 -14.761  0.00  0.00    +0.011 A 
ATOM      8  C   UNL     1      29.040 -23.475 -15.310  0.00  0.00    -0.071 C 
ATOM      9  C   UNL     1      33.592 -22.749 -15.876  0.00  0.00    +0.059 A 
ATOM     10  C   UNL     1      34.210 -23.917 -13.852  0.00  0.00    -0.003 C 
ATOM     11  C   UNL     1      34.921 -22.386 -16.124  0.00  0.00    +0.017 C 
ATOM     12  C   UNL     1      28.610 -25.236 -13.708  0.00  0.00    -0.100 C 
ATOM     13  C   UNL     1      35.542 -23.559 -14.089  0.00  0.00    -0.022 C 
ATOM     14  C   UNL     1      35.889 -22.806 -15.209  0.00  0.00    -0.003 C 
ATOM     15  C   UNL     1      36.601 -23.991 -13.130  0.00  0.00    +0.031 C 
ATOM     16  H   UNL     1      29.800 -25.357 -15.363  0.00  0.00    -0.079 HD
ENDROOT
BRANCH   1  17
ATOM     17  C   UNL     1      32.402 -21.707 -17.825  0.00  0.00    +0.110 C 
BRANCH  17  18
ATOM     18  C   UNL     1      33.402 -22.183 -18.884  0.00  0.00    +0.052 C 
BRANCH  18  20
ATOM     19  N   UNL     1      33.965 -19.129 -21.017  0.00  0.00    -0.248 NA
ATOM     20  C   UNL     1      34.108 -21.053 -19.592  0.00  0.00    -0.001 C 
ATOM     21  C   UNL     1      35.474 -20.906 -19.476  0.00  0.00    -0.001 C 
ATOM     22  C   UNL     1      33.395 -20.161 -20.358  0.00  0.00    +0.094 C 
ATOM     23  C   UNL     1      36.097 -19.856 -20.140  0.00  0.00    +0.014 C 
ATOM     24  C   UNL     1      35.305 -19.003 -20.891  0.00  0.00    +0.059 C 
ATOM     25  C   UNL     1      35.940 -17.863 -21.617  0.00  0.00    +0.052 C 
ENDBRANCH  18  20
ENDBRANCH  17  18
ENDBRANCH   1  17
TORSDOF 3
ENDMDL
MODEL 7
REMARK VINA RESULT:     -10.8      2.655      5.947
REMARK  Name = 197033
REMARK  3 active torsions:
REMARK  status: ('A' for Active; 'I' for Inactive)
REMARK    1  A    between atoms: N_1  and  C_17
REMARK    2  A    between atoms: C_17  and  C_18
REMARK    3  A    between atoms: C_18  and  C_20
REMARK                            x       y       z     vdW  Elec       q    Type
REMARK                         _______ _______ _______ _____ _____    ______ ____
ROOT
ATOM      1  N   UNL     1      33.063 -23.607 -14.586  0.00  0.00    -0.331 N 
ATOM      2  N   UNL     1      36.650 -23.641 -12.590  0.00  0.00    +0.388 N 
ATOM      3  C   UNL     1      34.137 -23.556 -13.750  0.00  0.00    +0.029 A 
ATOM      4  C   UNL     1      35.187 -22.955 -14.409  0.00  0.00    -0.030 A 
ATOM      5  C   UNL     1      34.195 -24.088 -12.367  0.00  0.00    +0.021 C 
ATOM      6  C   UNL     1      36.509 -22.731 -13.753  0.00  0.00    -0.049 C 
ATOM      7  C   UNL     1      34.726 -22.613 -15.711  0.00  0.00    +0.011 A 
ATOM      8  C   UNL     1      35.481 -23.572 -11.682  0.00  0.00    -0.071 C 
ATOM      9  C   UNL     1      33.394 -23.034 -15.795  0.00  0.00    +0.059 A 
ATOM     10  C   UNL     1      35.310 -21.983 -16.829  0.00  0.00    -0.003 C 
ATOM     11  C   UNL     1      32.621 -22.858 -16.949  0.00  0.00    +0.017 C 
ATOM     12  C   UNL     1      37.882 -23.337 -11.863  0.00  0.00    -0.100 C 
ATOM     13  C   UNL     1      34.546 -21.801 -17.988  0.00  0.00    -0.022 C 
ATOM     14  C   UNL     1      33.222 -22.233 -18.044  0.00  0.00    -0.003 C 
ATOM     15  C   UNL     1      35.159 -21.137 -19.176  0.00  0.00    +0.031 C 
ATOM     16  H   UNL     1      36.695 -24.595 -12.947  0.00  0.00    -0.079 HD
ENDROOT
BRANCH   1  17
ATOM     17  C   UNL     1      31.769 -24.168 -14.255  0.00  0.00    +0.110 C 
BRANCH  17  18
ATOM     18  C   UNL     1      30.772 -23.134 -13.721  0.00  0.00    +0.052 C 
BRANCH  18  20
ATOM     19  N   UNL     1      27.815 -21.452 -15.341  0.00  0.00    -0.248 NA
ATOM     20  C   UNL     1      29.613 -22.883 -14.654  0.00  0.00    -0.001 C 
ATOM     21  C   UNL     1      29.295 -23.805 -15.630  0.00  0.00    -0.001 C 
ATOM     22  C   UNL     1      28.865 -21.736 -14.539  0.00  0.00    +0.094 C 
ATOM     23  C   UNL     1      28.222 -23.547 -16.476  0.00  0.00    +0.014 C 
ATOM     24  C   UNL     1      27.520 -22.367 -16.291  0.00  0.00    +0.059 C 
ATOM     25  C   UNL     1      26.362 -22.057 -17.180  0.00  0.00    +0.052 C 
ENDBRANCH  18  20
ENDBRANCH  17  18
ENDBRANCH   1  17
TORSDOF 3
ENDMDL
MODEL 8
REMARK VINA RESULT:     -10.7      2.172      6.080
REMARK  Name = 197033
REMARK  3 active torsions:
REMARK  status: ('A' for Active; 'I' for Inactive)
REMARK    1  A    between atoms: N_1  and  C_17
REMARK    2  A    between atoms: C_17  and  C_18
REMARK    3  A    between atoms: C_18  and  C_20
REMARK                            x       y       z     vdW  Elec       q    Type
REMARK                         _______ _______ _______ _____ _____    ______ ____
ROOT
ATOM      1  N   UNL     1      33.524 -22.704 -16.887  0.00  0.00    -0.331 N 
ATOM      2  N   UNL     1      37.018 -23.671 -14.960  0.00  0.00    +0.388 N 
ATOM      3  C   UNL     1      34.570 -22.995 -16.064  0.00  0.00    +0.029 A 
ATOM      4  C   UNL     1      35.702 -22.374 -16.543  0.00  0.00    -0.030 A 
ATOM      5  C   UNL     1      34.522 -23.867 -14.864  0.00  0.00    +0.021 C 
ATOM      6  C   UNL     1      37.019 -22.483 -15.850  0.00  0.00    -0.049 C 
ATOM      7  C   UNL     1      35.325 -21.658 -17.715  0.00  0.00    +0.011 A 
ATOM      8  C   UNL     1      35.836 -23.698 -14.068  0.00  0.00    -0.071 C 
ATOM      9  C   UNL     1      33.957 -21.883 -17.907  0.00  0.00    +0.059 A 
ATOM     10  C   UNL     1      36.012 -20.837 -18.632  0.00  0.00    -0.003 C 
ATOM     11  C   UNL     1      33.246 -21.328 -18.978  0.00  0.00    +0.017 C 
ATOM     12  C   UNL     1      38.252 -23.710 -14.177  0.00  0.00    -0.100 C 
ATOM     13  C   UNL     1      35.312 -20.276 -19.706  0.00  0.00    -0.022 C 
ATOM     14  C   UNL     1      33.950 -20.519 -19.873  0.00  0.00    -0.003 C 
ATOM     15  C   UNL     1      36.034 -19.407 -20.681  0.00  0.00    +0.031 C 
ATOM     16  H   UNL     1      36.966 -24.500 -15.551  0.00  0.00    -0.079 HD
ENDROOT
BRANCH   1  17
ATOM     17  C   UNL     1      32.165 -23.173 -16.714  0.00  0.00    +0.110 C 
BRANCH  17  18
ATOM     18  C   UNL     1      31.528 -22.733 -15.392  0.00  0.00    +0.052 C 
BRANCH  18  20
ATOM     19  N   UNL     1      28.105 -22.264 -16.895  0.00  0.00    -0.248 NA
ATOM     20  C   UNL     1      30.049 -22.457 -15.503  0.00  0.00    -0.001 C 
ATOM     21  C   UNL     1      29.312 -22.158 -14.376  0.00  0.00    -0.001 C 
ATOM     22  C   UNL     1      29.425 -22.501 -16.727  0.00  0.00    +0.094 C 
ATOM     23  C   UNL     1      27.951 -21.908 -14.509  0.00  0.00    +0.014 C 
ATOM     24  C   UNL     1      27.400 -21.972 -15.779  0.00  0.00    +0.059 C 
ATOM     25  C   UNL     1      25.942 -21.710 -15.959  0.00  0.00    +0.052 C 
ENDBRANCH  18  20
ENDBRANCH  17  18
ENDBRANCH   1  17
TORSDOF 3
ENDMDL
MODEL 9
REMARK VINA RESULT:     -10.6      2.034      7.312
REMARK  Name = 197033
REMARK  3 active torsions:
REMARK  status: ('A' for Active; 'I' for Inactive)
REMARK    1  A    between atoms: N_1  and  C_17
REMARK    2  A    between atoms: C_17  and  C_18
REMARK    3  A    between atoms: C_18  and  C_20
REMARK                            x       y       z     vdW  Elec       q    Type
REMARK                         _______ _______ _______ _____ _____    ______ ____
ROOT
ATOM      1  N   UNL     1      33.711 -22.898 -16.479  0.00  0.00    -0.331 N 
ATOM      2  N   UNL     1      29.732 -22.507 -15.547  0.00  0.00    +0.388 N 
ATOM      3  C   UNL     1      32.397 -22.982 -16.129  0.00  0.00    +0.029 A 
ATOM      4  C   UNL     1      31.649 -22.248 -17.023  0.00  0.00    -0.030 A 
ATOM      5  C   UNL     1      31.849 -23.710 -14.959  0.00  0.00    +0.021 C 
ATOM      6  C   UNL     1      30.163 -22.156 -16.923  0.00  0.00    -0.049 C 
ATOM      7  C   UNL     1      32.553 -21.695 -17.973  0.00  0.00    +0.011 A 
ATOM      8  C   UNL     1      30.311 -23.792 -15.092  0.00  0.00    -0.071 C 
ATOM      9  C   UNL     1      33.837 -22.117 -17.608  0.00  0.00    +0.059 A 
ATOM     10  C   UNL     1      32.406 -20.878 -19.113  0.00  0.00    -0.003 C 
ATOM     11  C   UNL     1      34.981 -21.754 -18.328  0.00  0.00    +0.017 C 
ATOM     12  C   UNL     1      28.272 -22.549 -15.475  0.00  0.00    -0.100 C 
ATOM     13  C   UNL     1      33.543 -20.510 -19.841  0.00  0.00    -0.022 C 
ATOM     14  C   UNL     1      34.810 -20.943 -19.453  0.00  0.00    -0.003 C 
ATOM     15  C   UNL     1      33.395 -19.644 -21.048  0.00  0.00    +0.031 C 
ATOM     16  H   UNL     1      30.081 -21.782 -14.919  0.00  0.00    -0.079 HD
ENDROOT
BRANCH   1  17
ATOM     17  C   UNL     1      34.807 -23.536 -15.780  0.00  0.00    +0.110 C 
BRANCH  17  18
ATOM     18  C   UNL     1      35.607 -22.578 -14.891  0.00  0.00    +0.052 C 
BRANCH  18  20
ATOM     19  N   UNL     1      34.447 -24.076 -11.634  0.00  0.00    -0.248 NA
ATOM     20  C   UNL     1      35.570 -22.947 -13.429  0.00  0.00    -0.001 C 
ATOM     21  C   UNL     1      36.568 -22.519 -12.578  0.00  0.00    -0.001 C 
ATOM     22  C   UNL     1      34.541 -23.712 -12.932  0.00  0.00    +0.094 C 
ATOM     23  C   UNL     1      36.507 -22.875 -11.236  0.00  0.00    +0.014 C 
ATOM     24  C   UNL     1      35.435 -23.647 -10.817  0.00  0.00    +0.059 C 
ATOM     25  C   UNL     1      35.338 -24.048  -9.383  0.00  0.00    +0.052 C 
ENDBRANCH  18  20
ENDBRANCH  17  18
ENDBRANCH   1  17
TORSDOF 3
ENDMDL
