MODEL 1
REMARK VINA RESULT:     -12.8      0.000      0.000
REMARK  Name = 71226662
REMARK  4 active torsions:
REMARK  status: ('A' for Active; 'I' for Inactive)
REMARK    1  A    between atoms: C_5  and  C_15
REMARK    2  A    between atoms: C_7  and  C_23
REMARK    3  A    between atoms: C_19  and  C_20
REMARK    4  A    between atoms: C_28  and  C_31
REMARK                            x       y       z     vdW  Elec       q    Type
REMARK                         _______ _______ _______ _____ _____    ______ ____
ROOT
ATOM      1  N   UNL     1      32.518 -23.941 -14.411  0.00  0.00    -0.251 N 
ATOM      2  N   UNL     1      34.423 -23.211 -15.286  0.00  0.00    -0.392 NA
ATOM      3  N   UNL     1      29.859 -23.700 -15.165  0.00  0.00    -0.231 NA
ATOM      4  N   UNL     1      30.366 -22.455 -17.054  0.00  0.00    -0.344 N 
ATOM      5  C   UNL     1      33.879 -23.890 -14.297  0.00  0.00    +0.182 C 
ATOM      6  C   UNL     1      32.174 -23.249 -15.547  0.00  0.00    +0.185 C 
ATOM      7  C   UNL     1      33.367 -22.808 -16.071  0.00  0.00    +0.136 C 
ATOM      8  C   UNL     1      31.539 -24.522 -13.633  0.00  0.00    +0.089 C 
ATOM      9  C   UNL     1      30.775 -23.133 -15.928  0.00  0.00    +0.128 C 
ATOM     10  C   UNL     1      30.263 -24.385 -14.030  0.00  0.00    +0.116 C 
ATOM     11  H   UNL     1      29.407 -22.401 -17.274  0.00  0.00    +0.143 HD
ATOM     12  H   UNL     1      31.030 -22.024 -17.638  0.00  0.00    +0.143 HD
ENDROOT
BRANCH   5  15
ATOM     13  O   UNL     1      35.941 -26.340 -15.019  0.00  0.00    -0.260 OA
ATOM     14  N   UNL     1      36.071 -24.693 -13.390  0.00  0.00    -0.263 N 
ATOM     15  C   UNL     1      34.631 -24.549 -13.155  0.00  0.00    +0.143 C 
ATOM     16  C   UNL     1      34.550 -23.739 -11.855  0.00  0.00    +0.030 C 
ATOM     17  C   UNL     1      35.826 -22.903 -11.867  0.00  0.00    +0.024 C 
ATOM     18  C   UNL     1      36.847 -23.838 -12.496  0.00  0.00    +0.095 C 
ATOM     19  C   UNL     1      36.599 -25.625 -14.271  0.00  0.00    +0.293 C 
BRANCH  19  20
ATOM     20  C   UNL     1      38.038 -25.759 -14.307  0.00  0.00    -0.007 C 
ATOM     21  C   UNL     1      39.233 -25.870 -14.336  0.00  0.00    -0.081 C 
ATOM     22  C   UNL     1      40.689 -26.007 -14.371  0.00  0.00    +0.090 C 
ENDBRANCH  19  20
ENDBRANCH   5  15
BRANCH   7  23
ATOM     23  C   UNL     1      33.548 -22.035 -17.261  0.00  0.00    +0.028 C 
ATOM     24  C   UNL     1      32.442 -21.651 -18.020  0.00  0.00    +0.002 C 
ATOM     25  C   UNL     1      34.832 -21.665 -17.663  0.00  0.00    +0.002 C 
ATOM     26  C   UNL     1      32.620 -20.899 -19.180  0.00  0.00    +0.005 C 
ATOM     27  C   UNL     1      35.009 -20.913 -18.823  0.00  0.00    +0.005 C 
ATOM     28  C   UNL     1      33.904 -20.529 -19.582  0.00  0.00    +0.054 C 
BRANCH  28  31
ATOM     29  O   UNL     1      34.244 -20.331 -21.875  0.00  0.00    -0.270 OA
ATOM     30  N   UNL     1      34.098 -18.352 -20.622  0.00  0.00    -0.266 N 
ATOM     31  C   UNL     1      34.089 -19.743 -20.792  0.00  0.00    +0.251 C 
ATOM     32  H   UNL     1      33.960 -18.031 -19.701  0.00  0.00    +0.157 HD
ATOM     33  N   UNL     1      34.251 -16.052 -21.211  0.00  0.00    -0.229 NA
ATOM     34  C   UNL     1      34.280 -17.346 -21.603  0.00  0.00    +0.134 C 
ATOM     35  C   UNL     1      34.476 -17.756 -22.911  0.00  0.00    +0.034 C 
ATOM     36  C   UNL     1      34.657 -16.776 -23.881  0.00  0.00    +0.004 C 
ATOM     37  C   UNL     1      34.429 -15.127 -22.181  0.00  0.00    +0.100 C 
ATOM     38  C   UNL     1      34.634 -15.433 -23.517  0.00  0.00    +0.021 C 
ENDBRANCH  28  31
ENDBRANCH   7  23
TORSDOF 4
ENDMDL
MODEL 2
REMARK VINA RESULT:     -12.4      7.702     15.906
REMARK  Name = 71226662
REMARK  4 active torsions:
REMARK  status: ('A' for Active; 'I' for Inactive)
REMARK    1  A    between atoms: C_5  and  C_15
REMARK    2  A    between atoms: C_7  and  C_23
REMARK    3  A    between atoms: C_19  and  C_20
REMARK    4  A    between atoms: C_28  and  C_31
REMARK                            x       y       z     vdW  Elec       q    Type
REMARK                         _______ _______ _______ _____ _____    ______ ____
ROOT
ATOM      1  N   UNL     1      31.423  -7.550 -21.734  0.00  0.00    -0.251 N 
ATOM      2  N   UNL     1      31.888  -8.651 -23.604  0.00  0.00    -0.392 NA
ATOM      3  N   UNL     1      31.338  -8.286 -19.060  0.00  0.00    -0.231 NA
ATOM      4  N   UNL     1      31.935 -10.482 -19.504  0.00  0.00    -0.344 N 
ATOM      5  C   UNL     1      31.544  -7.486 -23.093  0.00  0.00    +0.182 C 
ATOM      6  C   UNL     1      31.709  -8.839 -21.355  0.00  0.00    +0.185 C 
ATOM      7  C   UNL     1      31.992  -9.500 -22.526  0.00  0.00    +0.136 C 
ATOM      8  C   UNL     1      31.090  -6.608 -20.783  0.00  0.00    +0.089 C 
ATOM      9  C   UNL     1      31.659  -9.208 -19.948  0.00  0.00    +0.128 C 
ATOM     10  C   UNL     1      31.059  -7.001 -19.499  0.00  0.00    +0.116 C 
ATOM     11  H   UNL     1      31.889 -10.688 -18.542  0.00  0.00    +0.143 HD
ATOM     12  H   UNL     1      32.177 -11.186 -20.148  0.00  0.00    +0.143 HD
ENDROOT
BRANCH   5  15
ATOM     13  O   UNL     1      33.855  -5.156 -22.993  0.00  0.00    -0.260 OA
ATOM     14  N   UNL     1      32.437  -5.798 -24.714  0.00  0.00    -0.263 N 
ATOM     15  C   UNL     1      31.304  -6.210 -23.878  0.00  0.00    +0.143 C 
ATOM     16  C   UNL     1      30.144  -6.343 -24.873  0.00  0.00    +0.030 C 
ATOM     17  C   UNL     1      30.829  -6.712 -26.185  0.00  0.00    +0.024 C 
ATOM     18  C   UNL     1      32.124  -5.916 -26.136  0.00  0.00    +0.095 C 
ATOM     19  C   UNL     1      33.599  -5.253 -24.188  0.00  0.00    +0.293 C 
BRANCH  19  20
ATOM     20  C   UNL     1      34.581  -4.761 -25.128  0.00  0.00    -0.007 C 
ATOM     21  C   UNL     1      35.397  -4.352 -25.908  0.00  0.00    -0.081 C 
ATOM     22  C   UNL     1      36.390  -3.854 -26.859  0.00  0.00    +0.090 C 
ENDBRANCH  19  20
ENDBRANCH   5  15
BRANCH   7  23
ATOM     23  C   UNL     1      32.353 -10.877 -22.669  0.00  0.00    +0.028 C 
ATOM     24  C   UNL     1      31.624 -11.863 -22.002  0.00  0.00    +0.002 C 
ATOM     25  C   UNL     1      33.433 -11.235 -23.476  0.00  0.00    +0.002 C 
ATOM     26  C   UNL     1      31.977 -13.205 -22.141  0.00  0.00    +0.005 C 
ATOM     27  C   UNL     1      33.785 -12.577 -23.615  0.00  0.00    +0.005 C 
ATOM     28  C   UNL     1      33.057 -13.563 -22.948  0.00  0.00    +0.054 C 
BRANCH  28  31
ATOM     29  O   UNL     1      33.075 -15.573 -24.118  0.00  0.00    -0.270 OA
ATOM     30  N   UNL     1      34.138 -15.523 -22.027  0.00  0.00    -0.266 N 
ATOM     31  C   UNL     1      33.423 -14.962 -23.094  0.00  0.00    +0.251 C 
ATOM     32  H   UNL     1      34.343 -14.913 -21.281  0.00  0.00    +0.157 HD
ATOM     33  N   UNL     1      35.278 -17.179 -20.754  0.00  0.00    -0.229 NA
ATOM     34  C   UNL     1      34.603 -16.853 -21.879  0.00  0.00    +0.134 C 
ATOM     35  C   UNL     1      34.334 -17.742 -22.907  0.00  0.00    +0.034 C 
ATOM     36  C   UNL     1      34.785 -19.050 -22.772  0.00  0.00    +0.004 C 
ATOM     37  C   UNL     1      35.703 -18.459 -20.658  0.00  0.00    +0.100 C 
ATOM     38  C   UNL     1      35.484 -19.424 -21.628  0.00  0.00    +0.021 C 
ENDBRANCH  28  31
ENDBRANCH   7  23
TORSDOF 4
ENDMDL
MODEL 3
REMARK VINA RESULT:     -11.6      8.498     16.492
REMARK  Name = 71226662
REMARK  4 active torsions:
REMARK  status: ('A' for Active; 'I' for Inactive)
REMARK    1  A    between atoms: C_5  and  C_15
REMARK    2  A    between atoms: C_7  and  C_23
REMARK    3  A    between atoms: C_19  and  C_20
REMARK    4  A    between atoms: C_28  and  C_31
REMARK                            x       y       z     vdW  Elec       q    Type
REMARK                         _______ _______ _______ _____ _____    ______ ____
ROOT
ATOM      1  N   UNL     1      32.031  -6.758 -21.627  0.00  0.00    -0.251 N 
ATOM      2  N   UNL     1      32.711  -7.700 -23.518  0.00  0.00    -0.392 NA
ATOM      3  N   UNL     1      31.262  -7.773 -19.162  0.00  0.00    -0.231 NA
ATOM      4  N   UNL     1      31.596  -9.974 -19.811  0.00  0.00    -0.344 N 
ATOM      5  C   UNL     1      32.450  -6.560 -22.913  0.00  0.00    +0.182 C 
ATOM      6  C   UNL     1      32.027  -8.113 -21.400  0.00  0.00    +0.185 C 
ATOM      7  C   UNL     1      32.450  -8.674 -22.582  0.00  0.00    +0.136 C 
ATOM      8  C   UNL     1      31.650  -5.889 -20.626  0.00  0.00    +0.089 C 
ATOM      9  C   UNL     1      31.620  -8.629 -20.101  0.00  0.00    +0.128 C 
ATOM     10  C   UNL     1      31.285  -6.418 -19.446  0.00  0.00    +0.116 C 
ATOM     11  H   UNL     1      31.314 -10.280 -18.918  0.00  0.00    +0.143 HD
ATOM     12  H   UNL     1      31.860 -10.631 -20.495  0.00  0.00    +0.143 HD
ENDROOT
BRANCH   5  15
ATOM     13  O   UNL     1      34.624  -6.152 -25.337  0.00  0.00    -0.260 OA
ATOM     14  N   UNL     1      32.551  -5.168 -24.992  0.00  0.00    -0.263 N 
ATOM     15  C   UNL     1      32.582  -5.178 -23.526  0.00  0.00    +0.143 C 
ATOM     16  C   UNL     1      31.429  -4.247 -23.129  0.00  0.00    +0.030 C 
ATOM     17  C   UNL     1      30.440  -4.379 -24.283  0.00  0.00    +0.024 C 
ATOM     18  C   UNL     1      31.342  -4.524 -25.498  0.00  0.00    +0.095 C 
ATOM     19  C   UNL     1      33.612  -5.612 -25.769  0.00  0.00    +0.293 C 
BRANCH  19  20
ATOM     20  C   UNL     1      33.510  -5.420 -27.198  0.00  0.00    -0.007 C 
ATOM     21  C   UNL     1      33.425  -5.260 -28.385  0.00  0.00    -0.081 C 
ATOM     22  C   UNL     1      33.323  -5.067 -29.831  0.00  0.00    +0.090 C 
ENDBRANCH  19  20
ENDBRANCH   5  15
BRANCH   7  23
ATOM     23  C   UNL     1      32.617 -10.067 -22.860  0.00  0.00    +0.028 C 
ATOM     24  C   UNL     1      33.618 -10.489 -23.736  0.00  0.00    +0.002 C 
ATOM     25  C   UNL     1      31.778 -11.004 -22.256  0.00  0.00    +0.002 C 
ATOM     26  C   UNL     1      33.779 -11.848 -24.008  0.00  0.00    +0.005 C 
ATOM     27  C   UNL     1      31.940 -12.362 -22.528  0.00  0.00    +0.005 C 
ATOM     28  C   UNL     1      32.940 -12.785 -23.403  0.00  0.00    +0.054 C 
BRANCH  28  31
ATOM     29  O   UNL     1      32.571 -14.683 -24.696  0.00  0.00    -0.270 OA
ATOM     30  N   UNL     1      33.869 -14.924 -22.756  0.00  0.00    -0.266 N 
ATOM     31  C   UNL     1      33.110 -14.201 -23.686  0.00  0.00    +0.251 C 
ATOM     32  H   UNL     1      34.234 -14.404 -22.004  0.00  0.00    +0.157 HD
ATOM     33  N   UNL     1      34.936 -16.797 -21.748  0.00  0.00    -0.229 NA
ATOM     34  C   UNL     1      34.179 -16.307 -22.755  0.00  0.00    +0.134 C 
ATOM     35  C   UNL     1      33.683 -17.074 -23.797  0.00  0.00    +0.034 C 
ATOM     36  C   UNL     1      33.981 -18.431 -23.805  0.00  0.00    +0.004 C 
ATOM     37  C   UNL     1      35.206 -18.121 -21.789  0.00  0.00    +0.100 C 
ATOM     38  C   UNL     1      34.757 -18.973 -22.785  0.00  0.00    +0.021 C 
ENDBRANCH  28  31
ENDBRANCH   7  23
TORSDOF 4
ENDMDL
MODEL 4
REMARK VINA RESULT:     -11.3      1.606      2.880
REMARK  Name = 71226662
REMARK  4 active torsions:
REMARK  status: ('A' for Active; 'I' for Inactive)
REMARK    1  A    between atoms: C_5  and  C_15
REMARK    2  A    between atoms: C_7  and  C_23
REMARK    3  A    between atoms: C_19  and  C_20
REMARK    4  A    between atoms: C_28  and  C_31
REMARK                            x       y       z     vdW  Elec       q    Type
REMARK                         _______ _______ _______ _____ _____    ______ ____
ROOT
ATOM      1  N   UNL     1      34.562 -23.401 -15.386  0.00  0.00    -0.251 N 
ATOM      2  N   UNL     1      36.168 -22.447 -16.584  0.00  0.00    -0.392 NA
ATOM      3  N   UNL     1      31.796 -23.444 -15.597  0.00  0.00    -0.231 NA
ATOM      4  N   UNL     1      31.785 -22.111 -17.495  0.00  0.00    -0.344 N 
ATOM      5  C   UNL     1      35.906 -23.202 -15.536  0.00  0.00    +0.182 C 
ATOM      6  C   UNL     1      33.929 -22.730 -16.403  0.00  0.00    +0.185 C 
ATOM      7  C   UNL     1      34.941 -22.148 -17.130  0.00  0.00    +0.136 C 
ATOM      8  C   UNL     1      33.823 -24.104 -14.457  0.00  0.00    +0.089 C 
ATOM      9  C   UNL     1      32.478 -22.762 -16.499  0.00  0.00    +0.128 C 
ATOM     10  C   UNL     1      32.487 -24.102 -14.592  0.00  0.00    +0.116 C 
ATOM     11  H   UNL     1      30.801 -22.160 -17.523  0.00  0.00    +0.143 HD
ATOM     12  H   UNL     1      32.271 -21.598 -18.179  0.00  0.00    +0.143 HD
ENDROOT
BRANCH   5  15
ATOM     13  O   UNL     1      36.144 -21.928 -12.520  0.00  0.00    -0.260 OA
ATOM     14  N   UNL     1      36.409 -24.112 -13.258  0.00  0.00    -0.263 N 
ATOM     15  C   UNL     1      36.933 -23.796 -14.591  0.00  0.00    +0.143 C 
ATOM     16  C   UNL     1      37.487 -25.135 -15.094  0.00  0.00    +0.030 C 
ATOM     17  C   UNL     1      36.621 -26.176 -14.390  0.00  0.00    +0.024 C 
ATOM     18  C   UNL     1      36.373 -25.553 -13.025  0.00  0.00    +0.095 C 
ATOM     19  C   UNL     1      36.111 -23.137 -12.318  0.00  0.00    +0.293 C 
BRANCH  19  20
ATOM     20  C   UNL     1      35.734 -23.587 -10.997  0.00  0.00    -0.007 C 
ATOM     21  C   UNL     1      35.421 -23.960  -9.899  0.00  0.00    -0.081 C 
ATOM     22  C   UNL     1      35.038 -24.415  -8.564  0.00  0.00    +0.090 C 
ENDBRANCH  19  20
ENDBRANCH   5  15
BRANCH   7  23
ATOM     23  C   UNL     1      34.802 -21.336 -18.299  0.00  0.00    +0.028 C 
ATOM     24  C   UNL     1      33.547 -21.171 -18.889  0.00  0.00    +0.002 C 
ATOM     25  C   UNL     1      35.919 -20.709 -18.851  0.00  0.00    +0.002 C 
ATOM     26  C   UNL     1      33.412 -20.380 -20.030  0.00  0.00    +0.005 C 
ATOM     27  C   UNL     1      35.783 -19.918 -19.991  0.00  0.00    +0.005 C 
ATOM     28  C   UNL     1      34.530 -19.753 -20.581  0.00  0.00    +0.054 C 
BRANCH  28  31
ATOM     29  O   UNL     1      34.335 -19.476 -22.882  0.00  0.00    -0.270 OA
ATOM     30  N   UNL     1      34.345 -17.544 -21.552  0.00  0.00    -0.266 N 
ATOM     31  C   UNL     1      34.388 -18.927 -21.769  0.00  0.00    +0.251 C 
ATOM     32  H   UNL     1      34.396 -17.256 -20.612  0.00  0.00    +0.157 HD
ATOM     33  N   UNL     1      34.213 -15.225 -22.070  0.00  0.00    -0.229 NA
ATOM     34  C   UNL     1      34.237 -16.504 -22.508  0.00  0.00    +0.134 C 
ATOM     35  C   UNL     1      34.162 -16.868 -23.843  0.00  0.00    +0.034 C 
ATOM     36  C   UNL     1      34.056 -15.854 -24.789  0.00  0.00    +0.004 C 
ATOM     37  C   UNL     1      34.109 -14.267 -23.018  0.00  0.00    +0.100 C 
ATOM     38  C   UNL     1      34.029 -14.526 -24.376  0.00  0.00    +0.021 C 
ENDBRANCH  28  31
ENDBRANCH   7  23
TORSDOF 4
ENDMDL
