MODEL 1
REMARK VINA RESULT:     -11.8      0.000      0.000
REMARK  Name = 52938427
REMARK  9 active torsions:
REMARK  status: ('A' for Active; 'I' for Inactive)
REMARK    1  A    between atoms: C_4  and  C_11
REMARK    2  A    between atoms: C_5  and  C_22
REMARK    3  A    between atoms: C_6  and  N_15
REMARK    4  A    between atoms: N_15  and  C_18
REMARK    5  A    between atoms: C_18  and  C_19
REMARK    6  A    between atoms: C_19  and  O_20
REMARK    7  A    between atoms: C_25  and  O_30
REMARK    8  A    between atoms: C_26  and  C_29
REMARK    9  A    between atoms: O_30  and  C_31
REMARK                            x       y       z     vdW  Elec       q    Type
REMARK                         _______ _______ _______ _____ _____    ______ ____
ROOT
ATOM      1  O   UNL     1      36.202 -18.990 -20.995  0.00  0.00    -0.311 OA
ATOM      2  N   UNL     1      34.057 -18.366 -21.165  0.00  0.00    -0.309 NA
ATOM      3  N   UNL     1      36.173 -17.945 -21.927  0.00  0.00    -0.007 NA
ATOM      4  C   UNL     1      34.875 -17.630 -21.973  0.00  0.00    +0.127 C 
ATOM      5  C   UNL     1      34.915 -19.174 -20.596  0.00  0.00    +0.317 C 
ENDROOT
BRANCH   4  11
ATOM      6  C   UNL     1      33.285 -13.075 -22.360  0.00  0.00    -0.038 C 
ATOM      7  C   UNL     1      33.200 -13.644 -20.929  0.00  0.00    -0.012 C 
ATOM      8  C   UNL     1      34.129 -14.867 -20.898  0.00  0.00    +0.025 C 
ATOM      9  C   UNL     1      33.527 -14.332 -23.148  0.00  0.00    -0.045 C 
ATOM     10  C   UNL     1      34.013 -15.346 -22.312  0.00  0.00    -0.018 C 
ATOM     11  C   UNL     1      34.362 -16.588 -22.816  0.00  0.00    +0.073 C 
ATOM     12  C   UNL     1      33.390 -14.544 -24.512  0.00  0.00    -0.007 C 
ATOM     13  C   UNL     1      34.210 -16.813 -24.186  0.00  0.00    +0.011 C 
ATOM     14  C   UNL     1      33.727 -15.798 -25.027  0.00  0.00    +0.000 C 
BRANCH   6  15
ATOM     15  N   UNL     1      32.069 -12.358 -22.711  0.00  0.00    +0.389 N 
ATOM     16  H   UNL     1      31.339 -12.592 -22.039  0.00  0.00    -0.084 HD
ATOM     17  H   UNL     1      31.790 -12.634 -23.653  0.00  0.00    -0.084 HD
BRANCH  15  18
ATOM     18  C   UNL     1      32.289 -10.918 -22.696  0.00  0.00    -0.049 C 
BRANCH  18  19
ATOM     19  C   UNL     1      31.175 -10.213 -21.939  0.00  0.00    +0.114 C 
BRANCH  19  20
ATOM     20  O   UNL     1      30.329 -11.192 -21.351  0.00  0.00    -0.384 OA
ATOM     21  H   UNL     1      30.861 -11.951 -21.067  0.00  0.00    +0.210 HD
ENDBRANCH  19  20
ENDBRANCH  18  19
ENDBRANCH  15  18
ENDBRANCH   6  15
ENDBRANCH   4  11
BRANCH   5  22
ATOM     22  C   UNL     1      34.709 -20.211 -19.627  0.00  0.00    +0.070 C 
ATOM     23  C   UNL     1      35.719 -20.531 -18.719  0.00  0.00    +0.019 C 
ATOM     24  C   UNL     1      33.497 -20.901 -19.592  0.00  0.00    +0.009 C 
ATOM     25  C   UNL     1      34.305 -22.229 -17.742  0.00  0.00    +0.148 C 
ATOM     26  C   UNL     1      35.518 -21.539 -17.777  0.00  0.00    +0.102 C 
ATOM     27  C   UNL     1      33.295 -21.909 -18.650  0.00  0.00    +0.038 C 
BRANCH  26  29
ATOM     28  N   UNL     1      37.416 -22.105 -16.106  0.00  0.00    -0.191 NA
ATOM     29  C   UNL     1      36.565 -21.851 -16.855  0.00  0.00    +0.103 C 
ENDBRANCH  26  29
BRANCH  25  30
ATOM     30  O   UNL     1      34.081 -23.219 -16.832  0.00  0.00    -0.478 OA
BRANCH  30  31
ATOM     31  C   UNL     1      33.516 -22.831 -15.582  0.00  0.00    +0.166 C 
ATOM     32  C   UNL     1      32.023 -23.123 -15.595  0.00  0.00    +0.047 C 
ATOM     33  C   UNL     1      34.228 -23.572 -14.459  0.00  0.00    +0.047 C 
ENDBRANCH  30  31
ENDBRANCH  25  30
ENDBRANCH   5  22
TORSDOF 9
ENDMDL
MODEL 2
REMARK VINA RESULT:     -11.7      1.422      1.792
REMARK  Name = 52938427
REMARK  9 active torsions:
REMARK  status: ('A' for Active; 'I' for Inactive)
REMARK    1  A    between atoms: C_4  and  C_11
REMARK    2  A    between atoms: C_5  and  C_22
REMARK    3  A    between atoms: C_6  and  N_15
REMARK    4  A    between atoms: N_15  and  C_18
REMARK    5  A    between atoms: C_18  and  C_19
REMARK    6  A    between atoms: C_19  and  O_20
REMARK    7  A    between atoms: C_25  and  O_30
REMARK    8  A    between atoms: C_26  and  C_29
REMARK    9  A    between atoms: O_30  and  C_31
REMARK                            x       y       z     vdW  Elec       q    Type
REMARK                         _______ _______ _______ _____ _____    ______ ____
ROOT
ATOM      1  O   UNL     1      36.135 -19.761 -19.849  0.00  0.00    -0.311 OA
ATOM      2  N   UNL     1      34.025 -19.768 -20.602  0.00  0.00    -0.309 NA
ATOM      3  N   UNL     1      36.113 -18.900 -20.953  0.00  0.00    -0.007 NA
ATOM      4  C   UNL     1      34.836 -18.956 -21.342  0.00  0.00    +0.127 C 
ATOM      5  C   UNL     1      34.866 -20.229 -19.711  0.00  0.00    +0.317 C 
ENDROOT
BRANCH   4  11
ATOM      6  C   UNL     1      33.861 -14.642 -23.308  0.00  0.00    -0.038 C 
ATOM      7  C   UNL     1      33.944 -14.620 -21.769  0.00  0.00    -0.012 C 
ATOM      8  C   UNL     1      34.684 -15.903 -21.360  0.00  0.00    +0.025 C 
ATOM      9  C   UNL     1      33.783 -16.121 -23.563  0.00  0.00    -0.045 C 
ATOM     10  C   UNL     1      34.259 -16.833 -22.453  0.00  0.00    -0.018 C 
ATOM     11  C   UNL     1      34.337 -18.216 -22.466  0.00  0.00    +0.073 C 
ATOM     12  C   UNL     1      33.385 -16.786 -24.713  0.00  0.00    -0.007 C 
ATOM     13  C   UNL     1      33.920 -18.892 -23.615  0.00  0.00    +0.011 C 
ATOM     14  C   UNL     1      33.448 -18.182 -24.729  0.00  0.00    +0.000 C 
BRANCH   6  15
ATOM     15  N   UNL     1      32.716 -13.880 -23.781  0.00  0.00    +0.389 N 
ATOM     16  H   UNL     1      31.913 -14.503 -23.865  0.00  0.00    -0.084 HD
ATOM     17  H   UNL     1      32.949 -13.472 -24.687  0.00  0.00    -0.084 HD
BRANCH  15  18
ATOM     18  C   UNL     1      32.389 -12.801 -22.858  0.00  0.00    -0.049 C 
BRANCH  18  19
ATOM     19  C   UNL     1      32.574 -11.448 -23.525  0.00  0.00    +0.114 C 
BRANCH  19  20
ATOM     20  O   UNL     1      33.963 -11.156 -23.591  0.00  0.00    -0.384 OA
ATOM     21  H   UNL     1      34.291 -11.338 -24.485  0.00  0.00    +0.210 HD
ENDBRANCH  19  20
ENDBRANCH  18  19
ENDBRANCH  15  18
ENDBRANCH   6  15
ENDBRANCH   4  11
BRANCH   5  22
ATOM     22  C   UNL     1      34.656 -21.142 -18.625  0.00  0.00    +0.070 C 
ATOM     23  C   UNL     1      35.668 -21.359 -17.689  0.00  0.00    +0.019 C 
ATOM     24  C   UNL     1      33.439 -21.812 -18.504  0.00  0.00    +0.009 C 
ATOM     25  C   UNL     1      34.245 -22.917 -16.511  0.00  0.00    +0.148 C 
ATOM     26  C   UNL     1      35.463 -22.246 -16.633  0.00  0.00    +0.102 C 
ATOM     27  C   UNL     1      33.234 -22.700 -17.447  0.00  0.00    +0.038 C 
BRANCH  26  29
ATOM     28  N   UNL     1      37.364 -22.625 -14.912  0.00  0.00    -0.191 NA
ATOM     29  C   UNL     1      36.512 -22.455 -15.684  0.00  0.00    +0.103 C 
ENDBRANCH  26  29
BRANCH  25  30
ATOM     30  O   UNL     1      34.018 -23.790 -15.489  0.00  0.00    -0.478 OA
BRANCH  30  31
ATOM     31  C   UNL     1      33.414 -23.261 -14.311  0.00  0.00    +0.166 C 
ATOM     32  C   UNL     1      31.951 -23.676 -14.268  0.00  0.00    +0.047 C 
ATOM     33  C   UNL     1      34.180 -23.754 -13.091  0.00  0.00    +0.047 C 
ENDBRANCH  30  31
ENDBRANCH  25  30
ENDBRANCH   5  22
TORSDOF 9
ENDMDL
MODEL 3
REMARK VINA RESULT:     -11.6      2.600     10.349
REMARK  Name = 52938427
REMARK  9 active torsions:
REMARK  status: ('A' for Active; 'I' for Inactive)
REMARK    1  A    between atoms: C_4  and  C_11
REMARK    2  A    between atoms: C_5  and  C_22
REMARK    3  A    between atoms: C_6  and  N_15
REMARK    4  A    between atoms: N_15  and  C_18
REMARK    5  A    between atoms: C_18  and  C_19
REMARK    6  A    between atoms: C_19  and  O_20
REMARK    7  A    between atoms: C_25  and  O_30
REMARK    8  A    between atoms: C_26  and  C_29
REMARK    9  A    between atoms: O_30  and  C_31
REMARK                            x       y       z     vdW  Elec       q    Type
REMARK                         _______ _______ _______ _____ _____    ______ ____
ROOT
ATOM      1  O   UNL     1      36.082 -20.277 -20.641  0.00  0.00    -0.311 OA
ATOM      2  N   UNL     1      34.069 -20.081 -19.676  0.00  0.00    -0.309 NA
ATOM      3  N   UNL     1      36.063 -21.201 -19.590  0.00  0.00    -0.007 NA
ATOM      4  C   UNL     1      34.844 -21.027 -19.069  0.00  0.00    +0.127 C 
ATOM      5  C   UNL     1      34.871 -19.660 -20.622  0.00  0.00    +0.317 C 
ENDROOT
BRANCH   4  11
ATOM      6  C   UNL     1      35.735 -22.823 -14.664  0.00  0.00    -0.038 C 
ATOM      7  C   UNL     1      37.007 -22.511 -15.478  0.00  0.00    -0.012 C 
ATOM      8  C   UNL     1      36.573 -21.563 -16.606  0.00  0.00    +0.025 C 
ATOM      9  C   UNL     1      34.689 -22.751 -15.740  0.00  0.00    -0.045 C 
ATOM     10  C   UNL     1      35.169 -22.028 -16.841  0.00  0.00    -0.018 C 
ATOM     11  C   UNL     1      34.369 -21.779 -17.943  0.00  0.00    +0.073 C 
ATOM     12  C   UNL     1      33.388 -23.231 -15.723  0.00  0.00    -0.007 C 
ATOM     13  C   UNL     1      33.063 -22.276 -17.939  0.00  0.00    +0.011 C 
ATOM     14  C   UNL     1      32.577 -22.997 -16.837  0.00  0.00    +0.000 C 
BRANCH   6  15
ATOM     15  N   UNL     1      35.841 -24.112 -14.000  0.00  0.00    +0.389 N 
ATOM     16  H   UNL     1      34.939 -24.586 -14.045  0.00  0.00    -0.084 HD
ATOM     17  H   UNL     1      36.116 -23.957 -13.030  0.00  0.00    -0.084 HD
BRANCH  15  18
ATOM     18  C   UNL     1      36.849 -24.948 -14.639  0.00  0.00    -0.049 C 
BRANCH  18  19
ATOM     19  C   UNL     1      36.419 -26.406 -14.638  0.00  0.00    +0.114 C 
BRANCH  19  20
ATOM     20  O   UNL     1      36.373 -26.871 -15.980  0.00  0.00    -0.384 OA
ATOM     21  H   UNL     1      35.990 -26.185 -16.549  0.00  0.00    +0.210 HD
ENDBRANCH  19  20
ENDBRANCH  18  19
ENDBRANCH  15  18
ENDBRANCH   6  15
ENDBRANCH   4  11
BRANCH   5  22
ATOM     22  C   UNL     1      34.669 -18.659 -21.629  0.00  0.00    +0.070 C 
ATOM     23  C   UNL     1      33.739 -18.871 -22.648  0.00  0.00    +0.019 C 
ATOM     24  C   UNL     1      35.403 -17.473 -21.590  0.00  0.00    +0.009 C 
ATOM     25  C   UNL     1      34.276 -16.711 -23.588  0.00  0.00    +0.148 C 
ATOM     26  C   UNL     1      33.542 -17.898 -23.627  0.00  0.00    +0.102 C 
ATOM     27  C   UNL     1      35.206 -16.500 -22.570  0.00  0.00    +0.038 C 
BRANCH  26  29
ATOM     28  N   UNL     1      31.807 -18.324 -25.503  0.00  0.00    -0.191 NA
ATOM     29  C   UNL     1      32.585 -18.133 -24.663  0.00  0.00    +0.103 C 
ENDBRANCH  26  29
BRANCH  25  30
ATOM     30  O   UNL     1      34.105 -15.743 -24.532  0.00  0.00    -0.478 OA
BRANCH  30  31
ATOM     31  C   UNL     1      33.201 -14.686 -24.217  0.00  0.00    +0.166 C 
ATOM     32  C   UNL     1      33.788 -13.843 -23.095  0.00  0.00    +0.047 C 
ATOM     33  C   UNL     1      32.939 -13.861 -25.469  0.00  0.00    +0.047 C 
ENDBRANCH  30  31
ENDBRANCH  25  30
ENDBRANCH   5  22
TORSDOF 9
ENDMDL
MODEL 4
REMARK VINA RESULT:     -11.1      2.778     10.434
REMARK  Name = 52938427
REMARK  9 active torsions:
REMARK  status: ('A' for Active; 'I' for Inactive)
REMARK    1  A    between atoms: C_4  and  C_11
REMARK    2  A    between atoms: C_5  and  C_22
REMARK    3  A    between atoms: C_6  and  N_15
REMARK    4  A    between atoms: N_15  and  C_18
REMARK    5  A    between atoms: C_18  and  C_19
REMARK    6  A    between atoms: C_19  and  O_20
REMARK    7  A    between atoms: C_25  and  O_30
REMARK    8  A    between atoms: C_26  and  C_29
REMARK    9  A    between atoms: O_30  and  C_31
REMARK                            x       y       z     vdW  Elec       q    Type
REMARK                         _______ _______ _______ _____ _____    ______ ____
ROOT
ATOM      1  O   UNL     1      34.131 -21.315 -20.267  0.00  0.00    -0.311 OA
ATOM      2  N   UNL     1      35.510 -20.207 -18.893  0.00  0.00    -0.309 NA
ATOM      3  N   UNL     1      34.341 -22.155 -19.167  0.00  0.00    -0.007 NA
ATOM      4  C   UNL     1      35.164 -21.432 -18.400  0.00  0.00    +0.127 C 
ATOM      5  C   UNL     1      34.855 -20.190 -20.025  0.00  0.00    +0.317 C 
ENDROOT
BRANCH   4  11
ATOM      6  C   UNL     1      34.203 -23.468 -14.116  0.00  0.00    -0.038 C 
ATOM      7  C   UNL     1      32.979 -22.804 -14.777  0.00  0.00    -0.012 C 
ATOM      8  C   UNL     1      33.336 -22.627 -16.260  0.00  0.00    +0.025 C 
ATOM      9  C   UNL     1      35.316 -22.900 -14.950  0.00  0.00    -0.045 C 
ATOM     10  C   UNL     1      34.817 -22.428 -16.173  0.00  0.00    -0.018 C 
ATOM     11  C   UNL     1      35.660 -21.904 -17.139  0.00  0.00    +0.073 C 
ATOM     12  C   UNL     1      36.676 -22.862 -14.679  0.00  0.00    -0.007 C 
ATOM     13  C   UNL     1      37.028 -21.846 -16.864  0.00  0.00    +0.011 C 
ATOM     14  C   UNL     1      37.531 -22.322 -15.643  0.00  0.00    +0.000 C 
BRANCH   6  15
ATOM     15  N   UNL     1      34.274 -23.143 -12.700  0.00  0.00    +0.389 N 
ATOM     16  H   UNL     1      33.340 -22.909 -12.364  0.00  0.00    -0.084 HD
ATOM     17  H   UNL     1      34.906 -22.351 -12.580  0.00  0.00    -0.084 HD
BRANCH  15  18
ATOM     18  C   UNL     1      34.789 -24.267 -11.930  0.00  0.00    -0.049 C 
BRANCH  18  19
ATOM     19  C   UNL     1      35.661 -23.779 -10.784  0.00  0.00    +0.114 C 
BRANCH  19  20
ATOM     20  O   UNL     1      35.063 -24.168  -9.555  0.00  0.00    -0.384 OA
ATOM     21  H   UNL     1      34.209 -23.719  -9.453  0.00  0.00    +0.210 HD
ENDBRANCH  19  20
ENDBRANCH  18  19
ENDBRANCH  15  18
ENDBRANCH   6  15
ENDBRANCH   4  11
BRANCH   5  22
ATOM     22  C   UNL     1      34.785 -19.177 -21.039  0.00  0.00    +0.070 C 
ATOM     23  C   UNL     1      33.917 -19.331 -22.121  0.00  0.00    +0.019 C 
ATOM     24  C   UNL     1      35.585 -18.039 -20.944  0.00  0.00    +0.009 C 
ATOM     25  C   UNL     1      34.649 -17.207 -23.010  0.00  0.00    +0.148 C 
ATOM     26  C   UNL     1      33.848 -18.347 -23.106  0.00  0.00    +0.102 C 
ATOM     27  C   UNL     1      35.517 -17.054 -21.929  0.00  0.00    +0.038 C 
BRANCH  26  29
ATOM     28  N   UNL     1      32.225 -18.664 -25.101  0.00  0.00    -0.191 NA
ATOM     29  C   UNL     1      32.952 -18.522 -24.207  0.00  0.00    +0.103 C 
ENDBRANCH  26  29
BRANCH  25  30
ATOM     30  O   UNL     1      34.603 -16.229 -23.959  0.00  0.00    -0.478 OA
BRANCH  30  31
ATOM     31  C   UNL     1      33.586 -15.240 -23.817  0.00  0.00    +0.166 C 
ATOM     32  C   UNL     1      34.068 -14.161 -22.859  0.00  0.00    +0.047 C 
ATOM     33  C   UNL     1      33.247 -14.670 -25.187  0.00  0.00    +0.047 C 
ENDBRANCH  30  31
ENDBRANCH  25  30
ENDBRANCH   5  22
TORSDOF 9
ENDMDL
MODEL 5
REMARK VINA RESULT:     -10.9      1.738      2.426
REMARK  Name = 52938427
REMARK  9 active torsions:
REMARK  status: ('A' for Active; 'I' for Inactive)
REMARK    1  A    between atoms: C_4  and  C_11
REMARK    2  A    between atoms: C_5  and  C_22
REMARK    3  A    between atoms: C_6  and  N_15
REMARK    4  A    between atoms: N_15  and  C_18
REMARK    5  A    between atoms: C_18  and  C_19
REMARK    6  A    between atoms: C_19  and  O_20
REMARK    7  A    between atoms: C_25  and  O_30
REMARK    8  A    between atoms: C_26  and  C_29
REMARK    9  A    between atoms: O_30  and  C_31
REMARK                            x       y       z     vdW  Elec       q    Type
REMARK                         _______ _______ _______ _____ _____    ______ ____
ROOT
ATOM      1  O   UNL     1      36.361 -19.531 -20.098  0.00  0.00    -0.311 OA
ATOM      2  N   UNL     1      34.198 -19.546 -20.680  0.00  0.00    -0.309 NA
ATOM      3  N   UNL     1      36.251 -18.683 -21.206  0.00  0.00    -0.007 NA
ATOM      4  C   UNL     1      34.946 -18.743 -21.491  0.00  0.00    +0.127 C 
ATOM      5  C   UNL     1      35.108 -19.997 -19.854  0.00  0.00    +0.317 C 
ENDROOT
BRANCH   4  11
ATOM      6  C   UNL     1      33.706 -14.457 -23.367  0.00  0.00    -0.038 C 
ATOM      7  C   UNL     1      33.875 -14.440 -21.834  0.00  0.00    -0.012 C 
ATOM      8  C   UNL     1      34.682 -15.697 -21.478  0.00  0.00    +0.025 C 
ATOM      9  C   UNL     1      33.668 -15.936 -23.628  0.00  0.00    -0.045 C 
ATOM     10  C   UNL     1      34.230 -16.637 -22.552  0.00  0.00    -0.018 C 
ATOM     11  C   UNL     1      34.358 -18.015 -22.580  0.00  0.00    +0.073 C 
ATOM     12  C   UNL     1      33.230 -16.609 -24.759  0.00  0.00    -0.007 C 
ATOM     13  C   UNL     1      33.903 -18.700 -23.708  0.00  0.00    +0.011 C 
ATOM     14  C   UNL     1      33.343 -18.002 -24.789  0.00  0.00    +0.000 C 
BRANCH   6  15
ATOM     15  N   UNL     1      32.509 -13.735 -23.769  0.00  0.00    +0.389 N 
ATOM     16  H   UNL     1      31.955 -13.519 -22.941  0.00  0.00    -0.084 HD
ATOM     17  H   UNL     1      31.977 -14.321 -24.413  0.00  0.00    -0.084 HD
BRANCH  15  18
ATOM     18  C   UNL     1      32.852 -12.493 -24.450  0.00  0.00    -0.049 C 
BRANCH  18  19
ATOM     19  C   UNL     1      33.038 -11.365 -23.449  0.00  0.00    +0.114 C 
BRANCH  19  20
ATOM     20  O   UNL     1      32.012 -11.448 -22.469  0.00  0.00    -0.384 OA
ATOM     21  H   UNL     1      32.257 -12.105 -21.798  0.00  0.00    +0.210 HD
ENDBRANCH  19  20
ENDBRANCH  18  19
ENDBRANCH  15  18
ENDBRANCH   6  15
ENDBRANCH   4  11
BRANCH   5  22
ATOM     22  C   UNL     1      34.986 -20.897 -18.743  0.00  0.00    +0.070 C 
ATOM     23  C   UNL     1      33.746 -21.457 -18.431  0.00  0.00    +0.019 C 
ATOM     24  C   UNL     1      36.107 -21.213 -17.976  0.00  0.00    +0.009 C 
ATOM     25  C   UNL     1      34.749 -22.648 -16.584  0.00  0.00    +0.148 C 
ATOM     26  C   UNL     1      33.628 -22.332 -17.352  0.00  0.00    +0.102 C 
ATOM     27  C   UNL     1      35.988 -22.088 -16.896  0.00  0.00    +0.038 C 
BRANCH  26  29
ATOM     28  N   UNL     1      31.311 -23.354 -16.801  0.00  0.00    -0.191 NA
ATOM     29  C   UNL     1      32.349 -22.896 -17.047  0.00  0.00    +0.103 C 
ENDBRANCH  26  29
BRANCH  25  30
ATOM     30  O   UNL     1      34.662 -23.500 -15.523  0.00  0.00    -0.478 OA
BRANCH  30  31
ATOM     31  C   UNL     1      35.835 -23.664 -14.729  0.00  0.00    +0.166 C 
ATOM     32  C   UNL     1      35.626 -22.987 -13.382  0.00  0.00    +0.047 C 
ATOM     33  C   UNL     1      36.133 -25.149 -14.577  0.00  0.00    +0.047 C 
ENDBRANCH  30  31
ENDBRANCH  25  30
ENDBRANCH   5  22
TORSDOF 9
ENDMDL
MODEL 6
REMARK VINA RESULT:     -10.9      2.029      9.795
REMARK  Name = 52938427
REMARK  9 active torsions:
REMARK  status: ('A' for Active; 'I' for Inactive)
REMARK    1  A    between atoms: C_4  and  C_11
REMARK    2  A    between atoms: C_5  and  C_22
REMARK    3  A    between atoms: C_6  and  N_15
REMARK    4  A    between atoms: N_15  and  C_18
REMARK    5  A    between atoms: C_18  and  C_19
REMARK    6  A    between atoms: C_19  and  O_20
REMARK    7  A    between atoms: C_25  and  O_30
REMARK    8  A    between atoms: C_26  and  C_29
REMARK    9  A    between atoms: O_30  and  C_31
REMARK                            x       y       z     vdW  Elec       q    Type
REMARK                         _______ _______ _______ _____ _____    ______ ____
ROOT
ATOM      1  O   UNL     1      34.565 -17.409 -23.201  0.00  0.00    -0.311 OA
ATOM      2  N   UNL     1      34.395 -17.217 -20.976  0.00  0.00    -0.309 NA
ATOM      3  N   UNL     1      34.856 -18.675 -22.679  0.00  0.00    -0.007 NA
ATOM      4  C   UNL     1      34.734 -18.482 -21.361  0.00  0.00    +0.127 C 
ATOM      5  C   UNL     1      34.306 -16.610 -22.132  0.00  0.00    +0.317 C 
ENDROOT
BRANCH   4  11
ATOM      6  C   UNL     1      32.825 -21.987 -18.624  0.00  0.00    -0.038 C 
ATOM      7  C   UNL     1      31.809 -20.910 -19.053  0.00  0.00    -0.012 C 
ATOM      8  C   UNL     1      32.445 -20.168 -20.238  0.00  0.00    +0.025 C 
ATOM      9  C   UNL     1      34.120 -21.305 -18.968  0.00  0.00    -0.045 C 
ATOM     10  C   UNL     1      33.897 -20.274 -19.891  0.00  0.00    -0.018 C 
ATOM     11  C   UNL     1      34.947 -19.529 -20.403  0.00  0.00    +0.073 C 
ATOM     12  C   UNL     1      35.405 -21.613 -18.547  0.00  0.00    -0.007 C 
ATOM     13  C   UNL     1      36.241 -19.823 -19.970  0.00  0.00    +0.011 C 
ATOM     14  C   UNL     1      36.468 -20.857 -19.048  0.00  0.00    +0.000 C 
BRANCH   6  15
ATOM     15  N   UNL     1      32.668 -22.325 -17.219  0.00  0.00    +0.389 N 
ATOM     16  H   UNL     1      33.125 -21.612 -16.650  0.00  0.00    -0.084 HD
ATOM     17  H   UNL     1      33.091 -23.239 -17.054  0.00  0.00    -0.084 HD
BRANCH  15  18
ATOM     18  C   UNL     1      31.259 -22.395 -16.852  0.00  0.00    -0.049 C 
BRANCH  18  19
ATOM     19  C   UNL     1      31.102 -22.791 -15.393  0.00  0.00    +0.114 C 
BRANCH  19  20
ATOM     20  O   UNL     1      30.198 -23.884 -15.310  0.00  0.00    -0.384 OA
ATOM     21  H   UNL     1      29.715 -23.842 -14.469  0.00  0.00    +0.210 HD
ENDBRANCH  19  20
ENDBRANCH  18  19
ENDBRANCH  15  18
ENDBRANCH   6  15
ENDBRANCH   4  11
BRANCH   5  22
ATOM     22  C   UNL     1      33.979 -15.248 -22.440  0.00  0.00    +0.070 C 
ATOM     23  C   UNL     1      33.553 -14.905 -23.724  0.00  0.00    +0.019 C 
ATOM     24  C   UNL     1      34.088 -14.266 -21.456  0.00  0.00    +0.009 C 
ATOM     25  C   UNL     1      33.343 -12.598 -23.038  0.00  0.00    +0.148 C 
ATOM     26  C   UNL     1      33.234 -13.581 -24.023  0.00  0.00    +0.102 C 
ATOM     27  C   UNL     1      33.770 -12.941 -21.756  0.00  0.00    +0.038 C 
BRANCH  26  29
ATOM     28  N   UNL     1      32.444 -12.979 -26.417  0.00  0.00    -0.191 NA
ATOM     29  C   UNL     1      32.798 -13.249 -25.344  0.00  0.00    +0.103 C 
ENDBRANCH  26  29
BRANCH  25  30
ATOM     30  O   UNL     1      33.039 -11.295 -23.303  0.00  0.00    -0.478 OA
BRANCH  30  31
ATOM     31  C   UNL     1      32.239 -10.611 -22.342  0.00  0.00    +0.166 C 
ATOM     32  C   UNL     1      31.733  -9.310 -22.948  0.00  0.00    +0.047 C 
ATOM     33  C   UNL     1      31.096 -11.515 -21.906  0.00  0.00    +0.047 C 
ENDBRANCH  30  31
ENDBRANCH  25  30
ENDBRANCH   5  22
TORSDOF 9
ENDMDL
MODEL 7
REMARK VINA RESULT:     -10.6      2.250      3.387
REMARK  Name = 52938427
REMARK  9 active torsions:
REMARK  status: ('A' for Active; 'I' for Inactive)
REMARK    1  A    between atoms: C_4  and  C_11
REMARK    2  A    between atoms: C_5  and  C_22
REMARK    3  A    between atoms: C_6  and  N_15
REMARK    4  A    between atoms: N_15  and  C_18
REMARK    5  A    between atoms: C_18  and  C_19
REMARK    6  A    between atoms: C_19  and  O_20
REMARK    7  A    between atoms: C_25  and  O_30
REMARK    8  A    between atoms: C_26  and  C_29
REMARK    9  A    between atoms: O_30  and  C_31
REMARK                            x       y       z     vdW  Elec       q    Type
REMARK                         _______ _______ _______ _____ _____    ______ ____
ROOT
ATOM      1  O   UNL     1      33.260 -21.024 -19.164  0.00  0.00    -0.311 OA
ATOM      2  N   UNL     1      35.079 -19.973 -19.940  0.00  0.00    -0.309 NA
ATOM      3  N   UNL     1      32.859 -20.363 -20.331  0.00  0.00    -0.007 NA
ATOM      4  C   UNL     1      33.986 -19.767 -20.731  0.00  0.00    +0.127 C 
ATOM      5  C   UNL     1      34.580 -20.742 -19.006  0.00  0.00    +0.317 C 
ENDROOT
BRANCH   4  11
ATOM      6  C   UNL     1      34.634 -15.379 -22.669  0.00  0.00    -0.038 C 
ATOM      7  C   UNL     1      34.200 -15.348 -21.189  0.00  0.00    -0.012 C 
ATOM      8  C   UNL     1      34.480 -16.751 -20.631  0.00  0.00    +0.025 C 
ATOM      9  C   UNL     1      34.343 -16.812 -23.016  0.00  0.00    -0.045 C 
ATOM     10  C   UNL     1      34.263 -17.590 -21.852  0.00  0.00    -0.018 C 
ATOM     11  C   UNL     1      34.055 -18.957 -21.914  0.00  0.00    +0.073 C 
ATOM     12  C   UNL     1      34.225 -17.397 -24.268  0.00  0.00    -0.007 C 
ATOM     13  C   UNL     1      33.917 -19.550 -23.172  0.00  0.00    +0.011 C 
ATOM     14  C   UNL     1      34.001 -18.775 -24.339  0.00  0.00    +0.000 C 
BRANCH   6  15
ATOM     15  N   UNL     1      33.896 -14.400 -23.450  0.00  0.00    +0.389 N 
ATOM     16  H   UNL     1      32.975 -14.777 -23.676  0.00  0.00    -0.084 HD
ATOM     17  H   UNL     1      34.419 -14.203 -24.303  0.00  0.00    -0.084 HD
BRANCH  15  18
ATOM     18  C   UNL     1      33.732 -13.155 -22.710  0.00  0.00    -0.049 C 
BRANCH  18  19
ATOM     19  C   UNL     1      33.022 -12.114 -23.560  0.00  0.00    +0.114 C 
BRANCH  19  20
ATOM     20  O   UNL     1      33.837 -10.952 -23.637  0.00  0.00    -0.384 OA
ATOM     21  H   UNL     1      34.615 -11.064 -23.069  0.00  0.00    +0.210 HD
ENDBRANCH  19  20
ENDBRANCH  18  19
ENDBRANCH  15  18
ENDBRANCH   6  15
ENDBRANCH   4  11
BRANCH   5  22
ATOM     22  C   UNL     1      35.206 -21.326 -17.855  0.00  0.00    +0.070 C 
ATOM     23  C   UNL     1      34.470 -22.146 -17.000  0.00  0.00    +0.019 C 
ATOM     24  C   UNL     1      36.552 -21.072 -17.590  0.00  0.00    +0.009 C 
ATOM     25  C   UNL     1      36.425 -22.461 -15.617  0.00  0.00    +0.148 C 
ATOM     26  C   UNL     1      35.078 -22.714 -15.882  0.00  0.00    +0.102 C 
ATOM     27  C   UNL     1      37.161 -21.640 -16.471  0.00  0.00    +0.038 C 
BRANCH  26  29
ATOM     28  N   UNL     1      33.681 -24.235 -14.316  0.00  0.00    -0.191 NA
ATOM     29  C   UNL     1      34.307 -23.554 -15.018  0.00  0.00    +0.103 C 
ENDBRANCH  26  29
BRANCH  25  30
ATOM     30  O   UNL     1      37.046 -23.003 -14.530  0.00  0.00    -0.478 OA
BRANCH  30  31
ATOM     31  C   UNL     1      37.520 -24.341 -14.658  0.00  0.00    +0.166 C 
ATOM     32  C   UNL     1      39.017 -24.318 -14.929  0.00  0.00    +0.047 C 
ATOM     33  C   UNL     1      37.185 -25.115 -13.391  0.00  0.00    +0.047 C 
ENDBRANCH  30  31
ENDBRANCH  25  30
ENDBRANCH   5  22
TORSDOF 9
ENDMDL
MODEL 8
REMARK VINA RESULT:     -10.4      4.034     12.629
REMARK  Name = 52938427
REMARK  9 active torsions:
REMARK  status: ('A' for Active; 'I' for Inactive)
REMARK    1  A    between atoms: C_4  and  C_11
REMARK    2  A    between atoms: C_5  and  C_22
REMARK    3  A    between atoms: C_6  and  N_15
REMARK    4  A    between atoms: N_15  and  C_18
REMARK    5  A    between atoms: C_18  and  C_19
REMARK    6  A    between atoms: C_19  and  O_20
REMARK    7  A    between atoms: C_25  and  O_30
REMARK    8  A    between atoms: C_26  and  C_29
REMARK    9  A    between atoms: O_30  and  C_31
REMARK                            x       y       z     vdW  Elec       q    Type
REMARK                         _______ _______ _______ _____ _____    ______ ____
ROOT
ATOM      1  O   UNL     1      31.157 -10.044 -21.634  0.00  0.00    -0.311 OA
ATOM      2  N   UNL     1      32.643 -10.207 -23.302  0.00  0.00    -0.309 NA
ATOM      3  N   UNL     1      31.314 -11.413 -21.883  0.00  0.00    -0.007 NA
ATOM      4  C   UNL     1      32.206 -11.429 -22.878  0.00  0.00    +0.127 C 
ATOM      5  C   UNL     1      31.974  -9.406 -22.513  0.00  0.00    +0.317 C 
ENDROOT
BRANCH   4  11
ATOM      6  C   UNL     1      34.022 -15.870 -22.243  0.00  0.00    -0.038 C 
ATOM      7  C   UNL     1      34.242 -14.930 -21.040  0.00  0.00    -0.012 C 
ATOM      8  C   UNL     1      33.248 -13.772 -21.214  0.00  0.00    +0.025 C 
ATOM      9  C   UNL     1      33.610 -14.883 -23.299  0.00  0.00    -0.045 C 
ATOM     10  C   UNL     1      33.164 -13.693 -22.706  0.00  0.00    -0.018 C 
ATOM     11  C   UNL     1      32.680 -12.646 -23.473  0.00  0.00    +0.073 C 
ATOM     12  C   UNL     1      33.569 -15.047 -24.675  0.00  0.00    -0.007 C 
ATOM     13  C   UNL     1      32.653 -12.799 -24.861  0.00  0.00    +0.011 C 
ATOM     14  C   UNL     1      33.094 -13.990 -25.457  0.00  0.00    +0.000 C 
BRANCH   6  15
ATOM     15  N   UNL     1      35.230 -16.620 -22.548  0.00  0.00    +0.389 N 
ATOM     16  H   UNL     1      35.994 -16.273 -21.967  0.00  0.00    -0.084 HD
ATOM     17  H   UNL     1      35.449 -16.498 -23.536  0.00  0.00    -0.084 HD
BRANCH  15  18
ATOM     18  C   UNL     1      35.042 -18.042 -22.288  0.00  0.00    -0.049 C 
BRANCH  18  19
ATOM     19  C   UNL     1      35.905 -18.494 -21.121  0.00  0.00    +0.114 C 
BRANCH  19  20
ATOM     20  O   UNL     1      37.258 -18.155 -21.394  0.00  0.00    -0.384 OA
ATOM     21  H   UNL     1      37.835 -18.892 -21.139  0.00  0.00    +0.210 HD
ENDBRANCH  19  20
ENDBRANCH  18  19
ENDBRANCH  15  18
ENDBRANCH   6  15
ENDBRANCH   4  11
BRANCH   5  22
ATOM     22  C   UNL     1      31.972  -7.973 -22.434  0.00  0.00    +0.070 C 
ATOM     23  C   UNL     1      32.810  -7.227 -23.263  0.00  0.00    +0.019 C 
ATOM     24  C   UNL     1      31.132  -7.327 -21.527  0.00  0.00    +0.009 C 
ATOM     25  C   UNL     1      31.967  -5.187 -22.279  0.00  0.00    +0.148 C 
ATOM     26  C   UNL     1      32.808  -5.835 -23.186  0.00  0.00    +0.102 C 
ATOM     27  C   UNL     1      31.130  -5.934 -21.450  0.00  0.00    +0.038 C 
BRANCH  26  29
ATOM     28  N   UNL     1      34.376  -4.480 -24.743  0.00  0.00    -0.191 NA
ATOM     29  C   UNL     1      33.673  -5.087 -24.045  0.00  0.00    +0.103 C 
ENDBRANCH  26  29
BRANCH  25  30
ATOM     30  O   UNL     1      31.945  -3.828 -22.183  0.00  0.00    -0.478 OA
BRANCH  30  31
ATOM     31  C   UNL     1      30.934  -3.144 -22.920  0.00  0.00    +0.166 C 
ATOM     32  C   UNL     1      30.010  -2.422 -21.952  0.00  0.00    +0.047 C 
ATOM     33  C   UNL     1      31.592  -2.183 -23.900  0.00  0.00    +0.047 C 
ENDBRANCH  30  31
ENDBRANCH  25  30
ENDBRANCH   5  22
TORSDOF 9
ENDMDL
MODEL 9
REMARK VINA RESULT:     -10.3      3.781     12.146
REMARK  Name = 52938427
REMARK  9 active torsions:
REMARK  status: ('A' for Active; 'I' for Inactive)
REMARK    1  A    between atoms: C_4  and  C_11
REMARK    2  A    between atoms: C_5  and  C_22
REMARK    3  A    between atoms: C_6  and  N_15
REMARK    4  A    between atoms: N_15  and  C_18
REMARK    5  A    between atoms: C_18  and  C_19
REMARK    6  A    between atoms: C_19  and  O_20
REMARK    7  A    between atoms: C_25  and  O_30
REMARK    8  A    between atoms: C_26  and  C_29
REMARK    9  A    between atoms: O_30  and  C_31
REMARK                            x       y       z     vdW  Elec       q    Type
REMARK                         _______ _______ _______ _____ _____    ______ ____
ROOT
ATOM      1  O   UNL     1      30.848 -10.778 -21.406  0.00  0.00    -0.311 OA
ATOM      2  N   UNL     1      32.277 -10.737 -23.130  0.00  0.00    -0.309 NA
ATOM      3  N   UNL     1      31.208 -12.109 -21.644  0.00  0.00    -0.007 NA
ATOM      4  C   UNL     1      32.053 -12.004 -22.674  0.00  0.00    +0.127 C 
ATOM      5  C   UNL     1      31.521 -10.035 -22.324  0.00  0.00    +0.317 C 
ENDROOT
BRANCH   4  11
ATOM      6  C   UNL     1      34.277 -16.258 -22.056  0.00  0.00    -0.038 C 
ATOM      7  C   UNL     1      34.318 -15.348 -20.812  0.00  0.00    -0.012 C 
ATOM      8  C   UNL     1      33.222 -14.291 -21.017  0.00  0.00    +0.025 C 
ATOM      9  C   UNL     1      33.833 -15.278 -23.106  0.00  0.00    -0.045 C 
ATOM     10  C   UNL     1      33.228 -14.164 -22.508  0.00  0.00    -0.018 C 
ATOM     11  C   UNL     1      32.689 -13.143 -23.273  0.00  0.00    +0.073 C 
ATOM     12  C   UNL     1      33.899 -15.393 -24.486  0.00  0.00    -0.007 C 
ATOM     13  C   UNL     1      32.769 -13.244 -24.664  0.00  0.00    +0.011 C 
ATOM     14  C   UNL     1      33.370 -14.361 -25.265  0.00  0.00    +0.000 C 
BRANCH   6  15
ATOM     15  N   UNL     1      35.573 -16.870 -22.300  0.00  0.00    +0.389 N 
ATOM     16  H   UNL     1      36.215 -16.601 -21.554  0.00  0.00    -0.084 HD
ATOM     17  H   UNL     1      35.921 -16.546 -23.203  0.00  0.00    -0.084 HD
BRANCH  15  18
ATOM     18  C   UNL     1      35.468 -18.323 -22.338  0.00  0.00    -0.049 C 
BRANCH  18  19
ATOM     19  C   UNL     1      35.853 -18.925 -20.997  0.00  0.00    +0.114 C 
BRANCH  19  20
ATOM     20  O   UNL     1      36.947 -18.191 -20.462  0.00  0.00    -0.384 OA
ATOM     21  H   UNL     1      37.011 -18.353 -19.508  0.00  0.00    +0.210 HD
ENDBRANCH  19  20
ENDBRANCH  18  19
ENDBRANCH  15  18
ENDBRANCH   6  15
ENDBRANCH   4  11
BRANCH   5  22
ATOM     22  C   UNL     1      31.298  -8.620 -22.262  0.00  0.00    +0.070 C 
ATOM     23  C   UNL     1      31.758  -7.887 -21.168  0.00  0.00    +0.019 C 
ATOM     24  C   UNL     1      30.619  -7.976 -23.297  0.00  0.00    +0.009 C 
ATOM     25  C   UNL     1      30.863  -5.866 -22.143  0.00  0.00    +0.148 C 
ATOM     26  C   UNL     1      31.541  -6.511 -21.108  0.00  0.00    +0.102 C 
ATOM     27  C   UNL     1      30.402  -6.599 -23.237  0.00  0.00    +0.038 C 
BRANCH  26  29
ATOM     28  N   UNL     1      32.411  -5.181 -19.061  0.00  0.00    -0.191 NA
ATOM     29  C   UNL     1      32.021  -5.777 -19.978  0.00  0.00    +0.103 C 
ENDBRANCH  26  29
BRANCH  25  30
ATOM     30  O   UNL     1      30.636  -4.522 -22.110  0.00  0.00    -0.478 OA
BRANCH  30  31
ATOM     31  C   UNL     1      30.935  -3.788 -23.295  0.00  0.00    +0.166 C 
ATOM     32  C   UNL     1      30.770  -2.301 -23.018  0.00  0.00    +0.047 C 
ATOM     33  C   UNL     1      32.347  -4.125 -23.751  0.00  0.00    +0.047 C 
ENDBRANCH  30  31
ENDBRANCH  25  30
ENDBRANCH   5  22
TORSDOF 9
ENDMDL
