MODEL 1
REMARK VINA RESULT:     -11.2      0.000      0.000
REMARK  Name = 22609888
REMARK  5 active torsions:
REMARK  status: ('A' for Active; 'I' for Inactive)
REMARK    1  A    between atoms: C_5  and  C_18
REMARK    2  A    between atoms: C_6  and  O_22
REMARK    3  A    between atoms: C_9  and  C_12
REMARK    4  A    between atoms: O_22  and  C_23
REMARK    5  A    between atoms: C_23  and  C_27
REMARK                            x       y       z     vdW  Elec       q    Type
REMARK                         _______ _______ _______ _____ _____    ______ ____
ROOT
ATOM      1  N   UNL     1      35.760 -22.646 -15.932  0.00  0.00    -0.188 N 
ATOM      2  N   UNL     1      34.500 -23.141 -15.820  0.00  0.00    -0.125 NA
ATOM      3  N   UNL     1      37.527 -21.592 -16.699  0.00  0.00    -0.127 NA
ATOM      4  N   UNL     1      37.858 -22.185 -15.498  0.00  0.00    -0.127 NA
ATOM      5  C   UNL     1      34.129 -21.986 -18.001  0.00  0.00    +0.035 C 
ATOM      6  C   UNL     1      33.753 -22.806 -16.822  0.00  0.00    +0.239 C 
ATOM      7  C   UNL     1      35.398 -21.544 -18.019  0.00  0.00    +0.041 C 
ATOM      8  C   UNL     1      36.266 -21.873 -16.953  0.00  0.00    +0.187 A 
ATOM      9  C   UNL     1      36.790 -22.811 -15.054  0.00  0.00    +0.191 A 
ENDROOT
BRANCH   9  12
ATOM     10  F   UNL     1      36.579 -25.607 -15.043  0.00  0.00    -0.204 F 
ATOM     11  F   UNL     1      36.805 -21.567 -12.541  0.00  0.00    -0.204 F 
ATOM     12  C   UNL     1      36.695 -23.565 -13.828  0.00  0.00    +0.092 C 
ATOM     13  C   UNL     1      36.592 -24.956 -13.870  0.00  0.00    +0.145 C 
ATOM     14  C   UNL     1      36.706 -22.904 -12.600  0.00  0.00    +0.145 C 
ATOM     15  C   UNL     1      36.500 -25.685 -12.684  0.00  0.00    +0.030 C 
ATOM     16  C   UNL     1      36.615 -23.633 -11.414  0.00  0.00    +0.030 C 
ATOM     17  C   UNL     1      36.512 -25.024 -11.456  0.00  0.00    +0.005 C 
ENDBRANCH   9  12
BRANCH   5  18
ATOM     18  C   UNL     1      33.194 -21.662 -19.098  0.00  0.00    +0.027 C 
ATOM     19  C   UNL     1      33.638 -20.519 -20.033  0.00  0.00    +0.005 C 
ATOM     20  C   UNL     1      31.994 -20.773 -18.707  0.00  0.00    +0.005 C 
ATOM     21  C   UNL     1      32.160 -20.082 -20.077  0.00  0.00    +0.001 C 
ENDBRANCH   5  18
BRANCH   6  22
ATOM     22  O   UNL     1      32.467 -23.209 -16.884  0.00  0.00    -0.451 OA
BRANCH  22  23
ATOM     23  C   UNL     1      31.800 -23.187 -15.633  0.00  0.00    +0.269 C 
BRANCH  23  27
ATOM     24  N   UNL     1      29.413 -23.953 -15.444  0.00  0.00    -0.192 N 
ATOM     25  N   UNL     1      29.736 -22.151 -16.637  0.00  0.00    -0.207 NA
ATOM     26  N   UNL     1      28.175 -23.624 -15.845  0.00  0.00    -0.154 NA
ATOM     27  C   UNL     1      30.334 -23.073 -15.919  0.00  0.00    +0.174 C 
ATOM     28  C   UNL     1      29.627 -25.112 -14.615  0.00  0.00    +0.141 C 
ATOM     29  C   UNL     1      28.426 -22.527 -16.565  0.00  0.00    +0.218 C 
ENDBRANCH  23  27
ENDBRANCH  22  23
ENDBRANCH   6  22
TORSDOF 5
ENDMDL
MODEL 2
REMARK VINA RESULT:     -11.2      0.034      1.538
REMARK  Name = 22609888
REMARK  5 active torsions:
REMARK  status: ('A' for Active; 'I' for Inactive)
REMARK    1  A    between atoms: C_5  and  C_18
REMARK    2  A    between atoms: C_6  and  O_22
REMARK    3  A    between atoms: C_9  and  C_12
REMARK    4  A    between atoms: O_22  and  C_23
REMARK    5  A    between atoms: C_23  and  C_27
REMARK                            x       y       z     vdW  Elec       q    Type
REMARK                         _______ _______ _______ _____ _____    ______ ____
ROOT
ATOM      1  N   UNL     1      35.749 -22.662 -15.941  0.00  0.00    -0.188 N 
ATOM      2  N   UNL     1      34.491 -23.161 -15.828  0.00  0.00    -0.125 NA
ATOM      3  N   UNL     1      37.510 -21.597 -16.708  0.00  0.00    -0.127 NA
ATOM      4  N   UNL     1      37.848 -22.197 -15.512  0.00  0.00    -0.127 NA
ATOM      5  C   UNL     1      34.109 -21.992 -18.000  0.00  0.00    +0.035 C 
ATOM      6  C   UNL     1      33.740 -22.820 -16.825  0.00  0.00    +0.239 C 
ATOM      7  C   UNL     1      35.376 -21.546 -18.019  0.00  0.00    +0.041 C 
ATOM      8  C   UNL     1      36.249 -21.879 -16.959  0.00  0.00    +0.187 A 
ATOM      9  C   UNL     1      36.783 -22.829 -15.068  0.00  0.00    +0.191 A 
ENDROOT
BRANCH   9  12
ATOM     10  F   UNL     1      36.836 -21.605 -12.546  0.00  0.00    -0.204 F 
ATOM     11  F   UNL     1      36.548 -25.623 -15.076  0.00  0.00    -0.204 F 
ATOM     12  C   UNL     1      36.695 -23.592 -13.847  0.00  0.00    +0.092 C 
ATOM     13  C   UNL     1      36.724 -22.940 -12.614  0.00  0.00    +0.145 C 
ATOM     14  C   UNL     1      36.578 -24.981 -13.899  0.00  0.00    +0.145 C 
ATOM     15  C   UNL     1      36.637 -23.678 -11.433  0.00  0.00    +0.030 C 
ATOM     16  C   UNL     1      36.492 -25.718 -12.718  0.00  0.00    +0.030 C 
ATOM     17  C   UNL     1      36.521 -25.067 -11.485  0.00  0.00    +0.005 C 
ENDBRANCH   9  12
BRANCH   5  18
ATOM     18  C   UNL     1      33.169 -21.663 -19.090  0.00  0.00    +0.027 C 
ATOM     19  C   UNL     1      33.609 -20.516 -20.024  0.00  0.00    +0.005 C 
ATOM     20  C   UNL     1      31.971 -20.775 -18.691  0.00  0.00    +0.005 C 
ATOM     21  C   UNL     1      32.130 -20.079 -20.059  0.00  0.00    +0.001 C 
ENDBRANCH   5  18
BRANCH   6  22
ATOM     22  O   UNL     1      32.454 -23.227 -16.885  0.00  0.00    -0.451 OA
BRANCH  22  23
ATOM     23  C   UNL     1      31.789 -23.207 -15.633  0.00  0.00    +0.269 C 
BRANCH  23  27
ATOM     24  N   UNL     1      29.406 -23.982 -15.437  0.00  0.00    -0.192 N 
ATOM     25  N   UNL     1      29.719 -22.182 -16.636  0.00  0.00    -0.207 NA
ATOM     26  N   UNL     1      28.166 -23.660 -15.836  0.00  0.00    -0.154 NA
ATOM     27  C   UNL     1      30.323 -23.099 -15.916  0.00  0.00    +0.174 C 
ATOM     28  C   UNL     1      29.627 -25.139 -14.606  0.00  0.00    +0.141 C 
ATOM     29  C   UNL     1      28.411 -22.564 -16.560  0.00  0.00    +0.218 C 
ENDBRANCH  23  27
ENDBRANCH  22  23
ENDBRANCH   6  22
TORSDOF 5
ENDMDL
MODEL 3
REMARK VINA RESULT:     -11.2      2.934      6.970
REMARK  Name = 22609888
REMARK  5 active torsions:
REMARK  status: ('A' for Active; 'I' for Inactive)
REMARK    1  A    between atoms: C_5  and  C_18
REMARK    2  A    between atoms: C_6  and  O_22
REMARK    3  A    between atoms: C_9  and  C_12
REMARK    4  A    between atoms: O_22  and  C_23
REMARK    5  A    between atoms: C_23  and  C_27
REMARK                            x       y       z     vdW  Elec       q    Type
REMARK                         _______ _______ _______ _____ _____    ______ ____
ROOT
ATOM      1  N   UNL     1      31.899 -23.616 -14.588  0.00  0.00    -0.188 N 
ATOM      2  N   UNL     1      32.335 -23.216 -15.811  0.00  0.00    -0.125 NA
ATOM      3  N   UNL     1      31.879 -24.320 -12.508  0.00  0.00    -0.127 NA
ATOM      4  N   UNL     1      30.575 -24.134 -12.920  0.00  0.00    -0.127 NA
ATOM      5  C   UNL     1      34.602 -23.622 -14.851  0.00  0.00    +0.035 C 
ATOM      6  C   UNL     1      33.626 -23.231 -15.898  0.00  0.00    +0.239 C 
ATOM      7  C   UNL     1      34.072 -24.002 -13.677  0.00  0.00    +0.041 C 
ATOM      8  C   UNL     1      32.668 -24.006 -13.514  0.00  0.00    +0.187 A 
ATOM      9  C   UNL     1      30.606 -23.713 -14.166  0.00  0.00    +0.191 A 
ENDROOT
BRANCH   9  12
ATOM     10  F   UNL     1      29.467 -25.585 -15.915  0.00  0.00    -0.204 F 
ATOM     11  F   UNL     1      29.390 -21.188 -14.102  0.00  0.00    -0.204 F 
ATOM     12  C   UNL     1      29.462 -23.396 -14.985  0.00  0.00    +0.092 C 
ATOM     13  C   UNL     1      28.928 -24.359 -15.841  0.00  0.00    +0.145 C 
ATOM     14  C   UNL     1      28.889 -22.126 -14.920  0.00  0.00    +0.145 C 
ATOM     15  C   UNL     1      27.821 -24.052 -16.632  0.00  0.00    +0.030 C 
ATOM     16  C   UNL     1      27.782 -21.819 -15.712  0.00  0.00    +0.030 C 
ATOM     17  C   UNL     1      27.248 -22.782 -16.568  0.00  0.00    +0.005 C 
ENDBRANCH   9  12
BRANCH   5  18
ATOM     18  C   UNL     1      36.065 -23.605 -15.057  0.00  0.00    +0.027 C 
ATOM     19  C   UNL     1      36.799 -24.917 -14.712  0.00  0.00    +0.005 C 
ATOM     20  C   UNL     1      36.887 -22.939 -13.933  0.00  0.00    +0.005 C 
ATOM     21  C   UNL     1      37.943 -24.043 -14.158  0.00  0.00    +0.001 C 
ENDBRANCH   5  18
BRANCH   6  22
ATOM     22  O   UNL     1      34.240 -22.865 -17.043  0.00  0.00    -0.451 OA
BRANCH  22  23
ATOM     23  C   UNL     1      33.371 -22.277 -17.996  0.00  0.00    +0.269 C 
BRANCH  23  27
ATOM     24  N   UNL     1      33.670 -20.494 -19.742  0.00  0.00    -0.192 N 
ATOM     25  N   UNL     1      35.512 -21.270 -18.859  0.00  0.00    -0.207 NA
ATOM     26  N   UNL     1      34.630 -19.798 -20.371  0.00  0.00    -0.154 NA
ATOM     27  C   UNL     1      34.203 -21.366 -18.845  0.00  0.00    +0.174 C 
ATOM     28  C   UNL     1      32.282 -20.266 -20.053  0.00  0.00    +0.141 C 
ATOM     29  C   UNL     1      35.726 -20.306 -19.801  0.00  0.00    +0.218 C 
ENDBRANCH  23  27
ENDBRANCH  22  23
ENDBRANCH   6  22
TORSDOF 5
ENDMDL
MODEL 4
REMARK VINA RESULT:      -9.6      2.789      7.601
REMARK  Name = 22609888
REMARK  5 active torsions:
REMARK  status: ('A' for Active; 'I' for Inactive)
REMARK    1  A    between atoms: C_5  and  C_18
REMARK    2  A    between atoms: C_6  and  O_22
REMARK    3  A    between atoms: C_9  and  C_12
REMARK    4  A    between atoms: O_22  and  C_23
REMARK    5  A    between atoms: C_23  and  C_27
REMARK                            x       y       z     vdW  Elec       q    Type
REMARK                         _______ _______ _______ _____ _____    ______ ____
ROOT
ATOM      1  N   UNL     1      34.128 -22.392 -16.452  0.00  0.00    -0.188 N 
ATOM      2  N   UNL     1      35.444 -22.145 -16.222  0.00  0.00    -0.125 NA
ATOM      3  N   UNL     1      32.064 -23.099 -16.205  0.00  0.00    -0.127 NA
ATOM      4  N   UNL     1      32.158 -22.436 -17.411  0.00  0.00    -0.127 NA
ATOM      5  C   UNL     1      35.039 -23.383 -14.093  0.00  0.00    +0.035 C 
ATOM      6  C   UNL     1      35.840 -22.631 -15.090  0.00  0.00    +0.239 C 
ATOM      7  C   UNL     1      33.749 -23.576 -14.413  0.00  0.00    +0.041 C 
ATOM      8  C   UNL     1      33.250 -23.069 -15.634  0.00  0.00    +0.187 A 
ATOM      9  C   UNL     1      33.399 -22.020 -17.543  0.00  0.00    +0.191 A 
ENDROOT
BRANCH   9  12
ATOM     10  F   UNL     1      36.135 -22.029 -18.153  0.00  0.00    -0.204 F 
ATOM     11  F   UNL     1      31.765 -20.491 -19.231  0.00  0.00    -0.204 F 
ATOM     12  C   UNL     1      33.934 -21.281 -18.659  0.00  0.00    +0.092 C 
ATOM     13  C   UNL     1      35.303 -21.315 -18.926  0.00  0.00    +0.145 C 
ATOM     14  C   UNL     1      33.084 -20.533 -19.473  0.00  0.00    +0.145 C 
ATOM     15  C   UNL     1      35.821 -20.601 -20.007  0.00  0.00    +0.030 C 
ATOM     16  C   UNL     1      33.602 -19.819 -20.554  0.00  0.00    +0.030 C 
ATOM     17  C   UNL     1      34.970 -19.853 -20.821  0.00  0.00    +0.005 C 
ENDBRANCH   9  12
BRANCH   5  18
ATOM     18  C   UNL     1      35.595 -23.899 -12.825  0.00  0.00    +0.027 C 
ATOM     19  C   UNL     1      34.560 -24.209 -11.724  0.00  0.00    +0.005 C 
ATOM     20  C   UNL     1      36.175 -22.832 -11.871  0.00  0.00    +0.005 C 
ATOM     21  C   UNL     1      35.586 -23.662 -10.711  0.00  0.00    +0.001 C 
ENDBRANCH   5  18
BRANCH   6  22
ATOM     22  O   UNL     1      37.122 -22.483 -14.692  0.00  0.00    -0.451 OA
BRANCH  22  23
ATOM     23  C   UNL     1      38.067 -23.058 -15.578  0.00  0.00    +0.269 C 
BRANCH  23  27
ATOM     24  N   UNL     1      38.258 -25.391 -14.662  0.00  0.00    -0.192 N 
ATOM     25  N   UNL     1      39.941 -24.065 -14.231  0.00  0.00    -0.207 NA
ATOM     26  N   UNL     1      39.088 -26.169 -13.949  0.00  0.00    -0.154 NA
ATOM     27  C   UNL     1      38.773 -24.143 -14.825  0.00  0.00    +0.174 C 
ATOM     28  C   UNL     1      37.005 -25.912 -15.145  0.00  0.00    +0.141 C 
ATOM     29  C   UNL     1      40.091 -25.319 -13.713  0.00  0.00    +0.218 C 
ENDBRANCH  23  27
ENDBRANCH  22  23
ENDBRANCH   6  22
TORSDOF 5
ENDMDL
MODEL 5
REMARK VINA RESULT:      -9.5     12.516     16.078
REMARK  Name = 22609888
REMARK  5 active torsions:
REMARK  status: ('A' for Active; 'I' for Inactive)
REMARK    1  A    between atoms: C_5  and  C_18
REMARK    2  A    between atoms: C_6  and  O_22
REMARK    3  A    between atoms: C_9  and  C_12
REMARK    4  A    between atoms: O_22  and  C_23
REMARK    5  A    between atoms: C_23  and  C_27
REMARK                            x       y       z     vdW  Elec       q    Type
REMARK                         _______ _______ _______ _____ _____    ______ ____
ROOT
ATOM      1  N   UNL     1      31.819  -8.694 -21.391  0.00  0.00    -0.188 N 
ATOM      2  N   UNL     1      31.940  -9.375 -22.560  0.00  0.00    -0.125 NA
ATOM      3  N   UNL     1      31.606  -8.240 -19.253  0.00  0.00    -0.127 NA
ATOM      4  N   UNL     1      31.665  -7.050 -19.950  0.00  0.00    -0.127 NA
ATOM      5  C   UNL     1      31.812 -11.394 -21.098  0.00  0.00    +0.035 C 
ATOM      6  C   UNL     1      31.934 -10.657 -22.380  0.00  0.00    +0.239 C 
ATOM      7  C   UNL     1      31.697 -10.630 -19.999  0.00  0.00    +0.041 C 
ATOM      8  C   UNL     1      31.699  -9.222 -20.125  0.00  0.00    +0.187 A 
ATOM      9  C   UNL     1      31.792  -7.340 -21.226  0.00  0.00    +0.191 A 
ENDROOT
BRANCH   9  12
ATOM     10  F   UNL     1      34.259  -6.334 -22.099  0.00  0.00    -0.204 F 
ATOM     11  F   UNL     1      29.527  -6.394 -22.581  0.00  0.00    -0.204 F 
ATOM     12  C   UNL     1      31.890  -6.392 -22.308  0.00  0.00    +0.092 C 
ATOM     13  C   UNL     1      33.139  -5.918 -22.710  0.00  0.00    +0.145 C 
ATOM     14  C   UNL     1      30.736  -5.949 -22.954  0.00  0.00    +0.145 C 
ATOM     15  C   UNL     1      33.234  -5.002 -23.757  0.00  0.00    +0.030 C 
ATOM     16  C   UNL     1      30.831  -5.032 -24.002  0.00  0.00    +0.030 C 
ATOM     17  C   UNL     1      32.080  -4.559 -24.404  0.00  0.00    +0.005 C 
ENDBRANCH   9  12
BRANCH   5  18
ATOM     18  C   UNL     1      31.814 -12.868 -21.004  0.00  0.00    +0.027 C 
ATOM     19  C   UNL     1      31.455 -13.446 -19.620  0.00  0.00    +0.005 C 
ATOM     20  C   UNL     1      33.202 -13.522 -20.832  0.00  0.00    +0.005 C 
ATOM     21  C   UNL     1      32.523 -14.528 -19.878  0.00  0.00    +0.001 C 
ENDBRANCH   5  18
BRANCH   6  22
ATOM     22  O   UNL     1      32.044 -11.497 -23.430  0.00  0.00    -0.451 OA
BRANCH  22  23
ATOM     23  C   UNL     1      33.383 -11.794 -23.787  0.00  0.00    +0.269 C 
BRANCH  23  27
ATOM     24  N   UNL     1      32.948 -13.552 -25.530  0.00  0.00    -0.192 N 
ATOM     25  N   UNL     1      33.831 -14.270 -23.665  0.00  0.00    -0.207 NA
ATOM     26  N   UNL     1      33.075 -14.872 -25.738  0.00  0.00    -0.154 NA
ATOM     27  C   UNL     1      33.400 -13.203 -24.296  0.00  0.00    +0.174 C 
ATOM     28  C   UNL     1      32.392 -12.703 -26.554  0.00  0.00    +0.141 C 
ATOM     29  C   UNL     1      33.612 -15.260 -24.579  0.00  0.00    +0.218 C 
ENDBRANCH  23  27
ENDBRANCH  22  23
ENDBRANCH   6  22
TORSDOF 5
ENDMDL
MODEL 6
REMARK VINA RESULT:      -9.5     12.501     16.055
REMARK  Name = 22609888
REMARK  5 active torsions:
REMARK  status: ('A' for Active; 'I' for Inactive)
REMARK    1  A    between atoms: C_5  and  C_18
REMARK    2  A    between atoms: C_6  and  O_22
REMARK    3  A    between atoms: C_9  and  C_12
REMARK    4  A    between atoms: O_22  and  C_23
REMARK    5  A    between atoms: C_23  and  C_27
REMARK                            x       y       z     vdW  Elec       q    Type
REMARK                         _______ _______ _______ _____ _____    ______ ____
ROOT
ATOM      1  N   UNL     1      31.831  -8.708 -21.395  0.00  0.00    -0.188 N 
ATOM      2  N   UNL     1      31.953  -9.389 -22.564  0.00  0.00    -0.125 NA
ATOM      3  N   UNL     1      31.617  -8.256 -19.256  0.00  0.00    -0.127 NA
ATOM      4  N   UNL     1      31.672  -7.066 -19.952  0.00  0.00    -0.127 NA
ATOM      5  C   UNL     1      31.830 -11.408 -21.103  0.00  0.00    +0.035 C 
ATOM      6  C   UNL     1      31.950 -10.670 -22.385  0.00  0.00    +0.239 C 
ATOM      7  C   UNL     1      31.714 -10.646 -20.004  0.00  0.00    +0.041 C 
ATOM      8  C   UNL     1      31.713  -9.238 -20.129  0.00  0.00    +0.187 A 
ATOM      9  C   UNL     1      31.800  -7.355 -21.229  0.00  0.00    +0.191 A 
ENDROOT
BRANCH   9  12
ATOM     10  F   UNL     1      29.535  -6.440 -22.606  0.00  0.00    -0.204 F 
ATOM     11  F   UNL     1      34.261  -6.315 -22.078  0.00  0.00    -0.204 F 
ATOM     12  C   UNL     1      31.895  -6.406 -22.310  0.00  0.00    +0.092 C 
ATOM     13  C   UNL     1      30.742  -5.977 -22.967  0.00  0.00    +0.145 C 
ATOM     14  C   UNL     1      33.142  -5.914 -22.699  0.00  0.00    +0.145 C 
ATOM     15  C   UNL     1      30.834  -5.059 -24.013  0.00  0.00    +0.030 C 
ATOM     16  C   UNL     1      33.234  -4.996 -23.745  0.00  0.00    +0.030 C 
ATOM     17  C   UNL     1      32.080  -4.567 -24.402  0.00  0.00    +0.005 C 
ENDBRANCH   9  12
BRANCH   5  18
ATOM     18  C   UNL     1      31.836 -12.883 -21.011  0.00  0.00    +0.027 C 
ATOM     19  C   UNL     1      31.457 -13.463 -19.633  0.00  0.00    +0.005 C 
ATOM     20  C   UNL     1      33.223 -13.532 -20.817  0.00  0.00    +0.005 C 
ATOM     21  C   UNL     1      32.533 -14.541 -19.875  0.00  0.00    +0.001 C 
ENDBRANCH   5  18
BRANCH   6  22
ATOM     22  O   UNL     1      32.061 -11.509 -23.436  0.00  0.00    -0.451 OA
BRANCH  22  23
ATOM     23  C   UNL     1      33.401 -11.809 -23.790  0.00  0.00    +0.269 C 
BRANCH  23  27
ATOM     24  N   UNL     1      32.966 -13.582 -25.517  0.00  0.00    -0.192 N 
ATOM     25  N   UNL     1      33.853 -14.282 -23.646  0.00  0.00    -0.207 NA
ATOM     26  N   UNL     1      33.095 -14.904 -25.713  0.00  0.00    -0.154 NA
ATOM     27  C   UNL     1      33.419 -13.221 -24.286  0.00  0.00    +0.174 C 
ATOM     28  C   UNL     1      32.407 -12.743 -26.546  0.00  0.00    +0.141 C 
ATOM     29  C   UNL     1      33.635 -15.280 -24.551  0.00  0.00    +0.218 C 
ENDBRANCH  23  27
ENDBRANCH  22  23
ENDBRANCH   6  22
TORSDOF 5
ENDMDL
MODEL 7
REMARK VINA RESULT:      -8.9     13.529     17.124
REMARK  Name = 22609888
REMARK  5 active torsions:
REMARK  status: ('A' for Active; 'I' for Inactive)
REMARK    1  A    between atoms: C_5  and  C_18
REMARK    2  A    between atoms: C_6  and  O_22
REMARK    3  A    between atoms: C_9  and  C_12
REMARK    4  A    between atoms: O_22  and  C_23
REMARK    5  A    between atoms: C_23  and  C_27
REMARK                            x       y       z     vdW  Elec       q    Type
REMARK                         _______ _______ _______ _____ _____    ______ ____
ROOT
ATOM      1  N   UNL     1      31.944  -7.386 -22.739  0.00  0.00    -0.188 N 
ATOM      2  N   UNL     1      32.181  -8.545 -23.406  0.00  0.00    -0.125 NA
ATOM      3  N   UNL     1      31.365  -5.962 -21.170  0.00  0.00    -0.127 NA
ATOM      4  N   UNL     1      31.802  -5.250 -22.269  0.00  0.00    -0.127 NA
ATOM      5  C   UNL     1      31.353  -9.618 -21.310  0.00  0.00    +0.035 C 
ATOM      6  C   UNL     1      31.889  -9.585 -22.694  0.00  0.00    +0.239 C 
ATOM      7  C   UNL     1      31.153  -8.420 -20.737  0.00  0.00    +0.041 C 
ATOM      8  C   UNL     1      31.454  -7.243 -21.460  0.00  0.00    +0.187 A 
ATOM      9  C   UNL     1      32.143  -6.117 -23.197  0.00  0.00    +0.191 A 
ENDROOT
BRANCH   9  12
ATOM     10  F   UNL     1      34.696  -5.021 -23.572  0.00  0.00    -0.204 F 
ATOM     11  F   UNL     1      30.642  -6.565 -25.522  0.00  0.00    -0.204 F 
ATOM     12  C   UNL     1      32.654  -5.802 -24.509  0.00  0.00    +0.092 C 
ATOM     13  C   UNL     1      33.931  -5.258 -24.648  0.00  0.00    +0.145 C 
ATOM     14  C   UNL     1      31.872  -6.042 -25.638  0.00  0.00    +0.145 C 
ATOM     15  C   UNL     1      34.425  -4.954 -25.917  0.00  0.00    +0.030 C 
ATOM     16  C   UNL     1      32.366  -5.738 -26.907  0.00  0.00    +0.030 C 
ATOM     17  C   UNL     1      33.643  -5.194 -27.046  0.00  0.00    +0.005 C 
ENDBRANCH   9  12
BRANCH   5  18
ATOM     18  C   UNL     1      31.050 -10.870 -20.586  0.00  0.00    +0.027 C 
ATOM     19  C   UNL     1      32.265 -11.584 -19.958  0.00  0.00    +0.005 C 
ATOM     20  C   UNL     1      30.867 -12.122 -21.469  0.00  0.00    +0.005 C 
ATOM     21  C   UNL     1      31.596 -12.914 -20.363  0.00  0.00    +0.001 C 
ENDBRANCH   5  18
BRANCH   6  22
ATOM     22  O   UNL     1      32.059 -10.828 -23.193  0.00  0.00    -0.451 OA
BRANCH  22  23
ATOM     23  C   UNL     1      33.396 -11.116 -23.568  0.00  0.00    +0.269 C 
BRANCH  23  27
ATOM     24  N   UNL     1      33.148 -13.405 -24.576  0.00  0.00    -0.192 N 
ATOM     25  N   UNL     1      34.059 -13.340 -22.590  0.00  0.00    -0.207 NA
ATOM     26  N   UNL     1      33.395 -14.697 -24.308  0.00  0.00    -0.154 NA
ATOM     27  C   UNL     1      33.546 -12.605 -23.550  0.00  0.00    +0.174 C 
ATOM     28  C   UNL     1      32.537 -13.022 -25.823  0.00  0.00    +0.141 C 
ATOM     29  C   UNL     1      33.945 -14.603 -23.095  0.00  0.00    +0.218 C 
ENDBRANCH  23  27
ENDBRANCH  22  23
ENDBRANCH   6  22
TORSDOF 5
ENDMDL
MODEL 8
REMARK VINA RESULT:      -8.7     13.799     17.341
REMARK  Name = 22609888
REMARK  5 active torsions:
REMARK  status: ('A' for Active; 'I' for Inactive)
REMARK    1  A    between atoms: C_5  and  C_18
REMARK    2  A    between atoms: C_6  and  O_22
REMARK    3  A    between atoms: C_9  and  C_12
REMARK    4  A    between atoms: O_22  and  C_23
REMARK    5  A    between atoms: C_23  and  C_27
REMARK                            x       y       z     vdW  Elec       q    Type
REMARK                         _______ _______ _______ _____ _____    ______ ____
ROOT
ATOM      1  N   UNL     1      31.983  -7.096 -23.013  0.00  0.00    -0.188 N 
ATOM      2  N   UNL     1      32.207  -8.305 -23.591  0.00  0.00    -0.125 NA
ATOM      3  N   UNL     1      31.403  -5.552 -21.562  0.00  0.00    -0.127 NA
ATOM      4  N   UNL     1      31.885  -4.930 -22.696  0.00  0.00    -0.127 NA
ATOM      5  C   UNL     1      31.299  -9.209 -21.448  0.00  0.00    +0.035 C 
ATOM      6  C   UNL     1      31.870  -9.285 -22.816  0.00  0.00    +0.239 C 
ATOM      7  C   UNL     1      31.116  -7.969 -20.965  0.00  0.00    +0.041 C 
ATOM      8  C   UNL     1      31.465  -6.853 -21.759  0.00  0.00    +0.187 A 
ATOM      9  C   UNL     1      32.227  -5.868 -23.552  0.00  0.00    +0.191 A 
ENDROOT
BRANCH   9  12
ATOM     10  F   UNL     1      30.810  -6.532 -25.878  0.00  0.00    -0.204 F 
ATOM     11  F   UNL     1      34.778  -4.771 -23.935  0.00  0.00    -0.204 F 
ATOM     12  C   UNL     1      32.778  -5.658 -24.868  0.00  0.00    +0.092 C 
ATOM     13  C   UNL     1      32.037  -6.003 -25.998  0.00  0.00    +0.145 C 
ATOM     14  C   UNL     1      34.052  -5.109 -25.011  0.00  0.00    +0.145 C 
ATOM     15  C   UNL     1      32.570  -5.799 -27.271  0.00  0.00    +0.030 C 
ATOM     16  C   UNL     1      34.585  -4.905 -26.284  0.00  0.00    +0.030 C 
ATOM     17  C   UNL     1      33.844  -5.250 -27.414  0.00  0.00    +0.005 C 
ENDBRANCH   9  12
BRANCH   5  18
ATOM     18  C   UNL     1      30.946 -10.398 -20.647  0.00  0.00    +0.027 C 
ATOM     19  C   UNL     1      32.130 -11.114 -19.964  0.00  0.00    +0.005 C 
ATOM     20  C   UNL     1      30.723 -11.698 -21.449  0.00  0.00    +0.005 C 
ATOM     21  C   UNL     1      31.415 -12.442 -20.287  0.00  0.00    +0.001 C 
ENDBRANCH   5  18
BRANCH   6  22
ATOM     22  O   UNL     1      32.020 -10.564 -23.224  0.00  0.00    -0.451 OA
BRANCH  22  23
ATOM     23  C   UNL     1      33.352 -10.899 -23.576  0.00  0.00    +0.269 C 
BRANCH  23  27
ATOM     24  N   UNL     1      33.100 -13.241 -24.453  0.00  0.00    -0.192 N 
ATOM     25  N   UNL     1      33.939 -13.070 -22.443  0.00  0.00    -0.207 NA
ATOM     26  N   UNL     1      33.314 -14.518 -24.100  0.00  0.00    -0.154 NA
ATOM     27  C   UNL     1      33.475 -12.387 -23.464  0.00  0.00    +0.174 C 
ATOM     28  C   UNL     1      32.541 -12.925 -25.744  0.00  0.00    +0.141 C 
ATOM     29  C   UNL     1      33.821 -14.359 -22.875  0.00  0.00    +0.218 C 
ENDBRANCH  23  27
ENDBRANCH  22  23
ENDBRANCH   6  22
TORSDOF 5
ENDMDL
MODEL 9
REMARK VINA RESULT:      -8.7      2.030      5.787
REMARK  Name = 22609888
REMARK  5 active torsions:
REMARK  status: ('A' for Active; 'I' for Inactive)
REMARK    1  A    between atoms: C_5  and  C_18
REMARK    2  A    between atoms: C_6  and  O_22
REMARK    3  A    between atoms: C_9  and  C_12
REMARK    4  A    between atoms: O_22  and  C_23
REMARK    5  A    between atoms: C_23  and  C_27
REMARK                            x       y       z     vdW  Elec       q    Type
REMARK                         _______ _______ _______ _____ _____    ______ ____
ROOT
ATOM      1  N   UNL     1      35.253 -22.368 -15.976  0.00  0.00    -0.188 N 
ATOM      2  N   UNL     1      33.986 -22.606 -15.547  0.00  0.00    -0.125 NA
ATOM      3  N   UNL     1      37.445 -22.248 -16.043  0.00  0.00    -0.127 NA
ATOM      4  N   UNL     1      36.942 -21.759 -17.232  0.00  0.00    -0.127 NA
ATOM      5  C   UNL     1      35.116 -23.443 -13.485  0.00  0.00    +0.035 C 
ATOM      6  C   UNL     1      33.962 -23.118 -14.359  0.00  0.00    +0.239 C 
ATOM      7  C   UNL     1      36.327 -23.171 -14.000  0.00  0.00    +0.041 C 
ATOM      8  C   UNL     1      36.425 -22.612 -15.294  0.00  0.00    +0.187 A 
ATOM      9  C   UNL     1      35.631 -21.838 -17.174  0.00  0.00    +0.191 A 
ENDROOT
BRANCH   9  12
ATOM     10  F   UNL     1      36.333 -19.972 -19.145  0.00  0.00    -0.204 F 
ATOM     11  F   UNL     1      33.029 -22.871 -17.327  0.00  0.00    -0.204 F 
ATOM     12  C   UNL     1      34.708 -21.433 -18.206  0.00  0.00    +0.092 C 
ATOM     13  C   UNL     1      35.100 -20.502 -19.167  0.00  0.00    +0.145 C 
ATOM     14  C   UNL     1      33.423 -21.974 -18.243  0.00  0.00    +0.145 C 
ATOM     15  C   UNL     1      34.208 -20.111 -20.166  0.00  0.00    +0.030 C 
ATOM     16  C   UNL     1      32.530 -21.583 -19.242  0.00  0.00    +0.030 C 
ATOM     17  C   UNL     1      32.923 -20.652 -20.203  0.00  0.00    +0.005 C 
ENDBRANCH   9  12
BRANCH   5  18
ATOM     18  C   UNL     1      34.976 -24.027 -12.136  0.00  0.00    +0.027 C 
ATOM     19  C   UNL     1      35.110 -23.032 -10.964  0.00  0.00    +0.005 C 
ATOM     20  C   UNL     1      36.233 -24.731 -11.581  0.00  0.00    +0.005 C 
ATOM     21  C   UNL     1      35.857 -24.146 -10.203  0.00  0.00    +0.001 C 
ENDBRANCH   5  18
BRANCH   6  22
ATOM     22  O   UNL     1      32.787 -23.421 -13.767  0.00  0.00    -0.451 OA
BRANCH  22  23
ATOM     23  C   UNL     1      31.703 -22.617 -14.202  0.00  0.00    +0.269 C 
BRANCH  23  27
ATOM     24  N   UNL     1      29.591 -23.361 -15.343  0.00  0.00    -0.192 N 
ATOM     25  N   UNL     1      30.214 -24.566 -13.629  0.00  0.00    -0.207 NA
ATOM     26  N   UNL     1      28.639 -24.305 -15.268  0.00  0.00    -0.154 NA
ATOM     27  C   UNL     1      30.522 -23.523 -14.366  0.00  0.00    +0.174 C 
ATOM     28  C   UNL     1      29.537 -22.350 -16.369  0.00  0.00    +0.141 C 
ATOM     29  C   UNL     1      29.062 -25.008 -14.215  0.00  0.00    +0.218 C 
ENDBRANCH  23  27
ENDBRANCH  22  23
ENDBRANCH   6  22
TORSDOF 5
ENDMDL
