MODEL 1
REMARK VINA RESULT:     -11.7      0.000      0.000
REMARK  Name = 252141
REMARK  5 active torsions:
REMARK  status: ('A' for Active; 'I' for Inactive)
REMARK    1  A    between atoms: N_1  and  C_19
REMARK    2  A    between atoms: C_2  and  N_9
REMARK    3  A    between atoms: N_9  and  C_11
REMARK    4  A    between atoms: C_10  and  C_17
REMARK    5  A    between atoms: C_19  and  C_20
REMARK                            x       y       z     vdW  Elec       q    Type
REMARK                         _______ _______ _______ _____ _____    ______ ____
ROOT
ATOM      1  N   UNL     1      34.857 -19.237 -20.707  0.00  0.00    +0.390 N 
ATOM      2  C   UNL     1      34.206 -21.501 -18.972  0.00  0.00    +0.076 C 
ATOM      3  C   UNL     1      35.578 -20.828 -18.956  0.00  0.00    -0.003 C 
ATOM      4  C   UNL     1      33.143 -20.520 -19.468  0.00  0.00    -0.003 C 
ATOM      5  C   UNL     1      35.900 -20.191 -20.308  0.00  0.00    -0.075 C 
ATOM      6  C   UNL     1      33.545 -19.893 -20.804  0.00  0.00    -0.075 C 
ATOM      7  H   UNL     1      34.796 -18.518 -19.986  0.00  0.00    -0.079 HD
ENDROOT
BRANCH   2   9
ATOM      8  O   UNL     1      31.508 -22.044 -17.932  0.00  0.00    -0.275 OA
ATOM      9  N   UNL     1      33.863 -22.013 -17.669  0.00  0.00    -0.260 N 
ATOM     10  C   UNL     1      32.518 -22.245 -17.253  0.00  0.00    +0.229 C 
BRANCH   9  11
ATOM     11  C   UNL     1      34.943 -22.309 -16.730  0.00  0.00    +0.054 C 
ATOM     12  C   UNL     1      36.006 -21.455 -16.701  0.00  0.00    +0.015 C 
ATOM     13  C   UNL     1      34.812 -23.416 -15.945  0.00  0.00    +0.015 C 
ATOM     14  C   UNL     1      37.036 -21.737 -15.803  0.00  0.00    +0.001 C 
ATOM     15  C   UNL     1      35.843 -23.697 -15.048  0.00  0.00    +0.001 C 
ATOM     16  C   UNL     1      36.955 -22.858 -14.977  0.00  0.00    +0.000 C 
ENDBRANCH   9  11
BRANCH  10  17
ATOM     17  C   UNL     1      32.364 -22.745 -15.820  0.00  0.00    +0.086 C 
ATOM     18  C   UNL     1      30.916 -22.762 -15.353  0.00  0.00    +0.010 C 
ENDBRANCH  10  17
ENDBRANCH   2   9
BRANCH   1  19
ATOM     19  C   UNL     1      35.204 -18.599 -21.978  0.00  0.00    -0.050 C 
BRANCH  19  20
ATOM     20  C   UNL     1      34.741 -17.167 -22.031  0.00  0.00    -0.043 C 
ATOM     21  C   UNL     1      34.527 -16.565 -23.263  0.00  0.00    -0.006 C 
ATOM     22  C   UNL     1      34.535 -16.471 -20.848  0.00  0.00    -0.006 C 
ATOM     23  C   UNL     1      34.099 -15.238 -23.313  0.00  0.00    -0.000 C 
ATOM     24  C   UNL     1      34.106 -15.144 -20.898  0.00  0.00    -0.000 C 
ATOM     25  C   UNL     1      33.888 -14.528 -22.130  0.00  0.00    -0.000 C 
ENDBRANCH  19  20
ENDBRANCH   1  19
TORSDOF 5
ENDMDL
MODEL 2
REMARK VINA RESULT:     -11.6      3.274      9.161
REMARK  Name = 252141
REMARK  5 active torsions:
REMARK  status: ('A' for Active; 'I' for Inactive)
REMARK    1  A    between atoms: N_1  and  C_19
REMARK    2  A    between atoms: C_2  and  N_9
REMARK    3  A    between atoms: N_9  and  C_11
REMARK    4  A    between atoms: C_10  and  C_17
REMARK    5  A    between atoms: C_19  and  C_20
REMARK                            x       y       z     vdW  Elec       q    Type
REMARK                         _______ _______ _______ _____ _____    ______ ____
ROOT
ATOM      1  N   UNL     1      34.683 -18.037 -21.575  0.00  0.00    +0.390 N 
ATOM      2  C   UNL     1      34.385 -15.465 -22.937  0.00  0.00    +0.076 C 
ATOM      3  C   UNL     1      34.194 -16.798 -23.659  0.00  0.00    -0.003 C 
ATOM      4  C   UNL     1      34.117 -15.632 -21.440  0.00  0.00    -0.003 C 
ATOM      5  C   UNL     1      35.014 -17.909 -23.000  0.00  0.00    -0.075 C 
ATOM      6  C   UNL     1      34.939 -16.782 -20.855  0.00  0.00    -0.075 C 
ATOM      7  H   UNL     1      33.687 -18.245 -21.501  0.00  0.00    -0.079 HD
ENDROOT
BRANCH   2   9
ATOM      8  O   UNL     1      33.522 -15.218 -25.739  0.00  0.00    -0.275 OA
ATOM      9  N   UNL     1      33.536 -14.444 -23.499  0.00  0.00    -0.260 N 
ATOM     10  C   UNL     1      33.171 -14.408 -24.878  0.00  0.00    +0.229 C 
BRANCH   9  11
ATOM     11  C   UNL     1      33.025 -13.398 -22.616  0.00  0.00    +0.054 C 
ATOM     12  C   UNL     1      33.227 -12.102 -22.989  0.00  0.00    +0.015 C 
ATOM     13  C   UNL     1      32.380 -13.789 -21.481  0.00  0.00    +0.015 C 
ATOM     14  C   UNL     1      32.739 -11.103 -22.146  0.00  0.00    +0.001 C 
ATOM     15  C   UNL     1      31.891 -12.790 -20.638  0.00  0.00    +0.001 C 
ATOM     16  C   UNL     1      32.071 -11.447 -20.972  0.00  0.00    +0.000 C 
ENDBRANCH   9  11
BRANCH  10  17
ATOM     17  C   UNL     1      32.303 -13.220 -25.283  0.00  0.00    +0.086 C 
ATOM     18  C   UNL     1      32.609 -12.716 -26.686  0.00  0.00    +0.010 C 
ENDBRANCH  10  17
ENDBRANCH   2   9
BRANCH   1  19
ATOM     19  C   UNL     1      35.437 -19.136 -20.971  0.00  0.00    -0.050 C 
BRANCH  19  20
ATOM     20  C   UNL     1      34.551 -20.045 -20.161  0.00  0.00    -0.043 C 
ATOM     21  C   UNL     1      33.173 -19.946 -20.290  0.00  0.00    -0.006 C 
ATOM     22  C   UNL     1      35.125 -20.969 -19.298  0.00  0.00    -0.006 C 
ATOM     23  C   UNL     1      32.351 -20.788 -19.540  0.00  0.00    -0.000 C 
ATOM     24  C   UNL     1      34.302 -21.810 -18.548  0.00  0.00    -0.000 C 
ATOM     25  C   UNL     1      32.916 -21.720 -18.669  0.00  0.00    -0.000 C 
ENDBRANCH  19  20
ENDBRANCH   1  19
TORSDOF 5
ENDMDL
MODEL 3
REMARK VINA RESULT:     -11.6      8.757     14.752
REMARK  Name = 252141
REMARK  5 active torsions:
REMARK  status: ('A' for Active; 'I' for Inactive)
REMARK    1  A    between atoms: N_1  and  C_19
REMARK    2  A    between atoms: C_2  and  N_9
REMARK    3  A    between atoms: N_9  and  C_11
REMARK    4  A    between atoms: C_10  and  C_17
REMARK    5  A    between atoms: C_19  and  C_20
REMARK                            x       y       z     vdW  Elec       q    Type
REMARK                         _______ _______ _______ _____ _____    ______ ____
ROOT
ATOM      1  N   UNL     1      31.439  -9.876 -21.319  0.00  0.00    +0.390 N 
ATOM      2  C   UNL     1      30.874  -7.059 -21.873  0.00  0.00    +0.076 C 
ATOM      3  C   UNL     1      31.828  -7.498 -20.763  0.00  0.00    -0.003 C 
ATOM      4  C   UNL     1      30.795  -8.137 -22.956  0.00  0.00    -0.003 C 
ATOM      5  C   UNL     1      31.465  -8.886 -20.234  0.00  0.00    -0.075 C 
ATOM      6  C   UNL     1      30.466  -9.505 -22.355  0.00  0.00    -0.075 C 
ATOM      7  H   UNL     1      32.365  -9.895 -21.749  0.00  0.00    -0.079 HD
ENDROOT
BRANCH   2   9
ATOM      8  O   UNL     1      30.355  -4.380 -20.774  0.00  0.00    -0.275 OA
ATOM      9  N   UNL     1      31.278  -5.796 -22.437  0.00  0.00    -0.260 N 
ATOM     10  C   UNL     1      30.978  -4.541 -21.827  0.00  0.00    +0.229 C 
BRANCH   9  11
ATOM     11  C   UNL     1      32.030  -5.799 -23.689  0.00  0.00    +0.054 C 
ATOM     12  C   UNL     1      31.320  -5.752 -24.852  0.00  0.00    +0.015 C 
ATOM     13  C   UNL     1      33.390  -5.847 -23.609  0.00  0.00    +0.015 C 
ATOM     14  C   UNL     1      32.038  -5.754 -26.048  0.00  0.00    +0.001 C 
ATOM     15  C   UNL     1      34.108  -5.849 -24.806  0.00  0.00    +0.001 C 
ATOM     16  C   UNL     1      33.432  -5.803 -26.025  0.00  0.00    +0.000 C 
ENDBRANCH   9  11
BRANCH  10  17
ATOM     17  C   UNL     1      31.453  -3.317 -22.605  0.00  0.00    +0.086 C 
ATOM     18  C   UNL     1      30.435  -2.187 -22.607  0.00  0.00    +0.010 C 
ENDBRANCH  10  17
ENDBRANCH   2   9
BRANCH   1  19
ATOM     19  C   UNL     1      31.141 -11.208 -20.790  0.00  0.00    -0.050 C 
BRANCH  19  20
ATOM     20  C   UNL     1      32.135 -12.235 -21.264  0.00  0.00    -0.043 C 
ATOM     21  C   UNL     1      32.661 -12.134 -22.545  0.00  0.00    -0.006 C 
ATOM     22  C   UNL     1      32.511 -13.266 -20.415  0.00  0.00    -0.006 C 
ATOM     23  C   UNL     1      33.582 -13.086 -22.985  0.00  0.00    -0.000 C 
ATOM     24  C   UNL     1      33.432 -14.217 -20.855  0.00  0.00    -0.000 C 
ATOM     25  C   UNL     1      33.967 -14.127 -22.140  0.00  0.00    -0.000 C 
ENDBRANCH  19  20
ENDBRANCH   1  19
TORSDOF 5
ENDMDL
MODEL 4
REMARK VINA RESULT:     -11.4      5.555     11.169
REMARK  Name = 252141
REMARK  5 active torsions:
REMARK  status: ('A' for Active; 'I' for Inactive)
REMARK    1  A    between atoms: N_1  and  C_19
REMARK    2  A    between atoms: C_2  and  N_9
REMARK    3  A    between atoms: N_9  and  C_11
REMARK    4  A    between atoms: C_10  and  C_17
REMARK    5  A    between atoms: C_19  and  C_20
REMARK                            x       y       z     vdW  Elec       q    Type
REMARK                         _______ _______ _______ _____ _____    ______ ____
ROOT
ATOM      1  N   UNL     1      33.309 -14.677 -23.863  0.00  0.00    +0.390 N 
ATOM      2  C   UNL     1      33.030 -11.841 -23.199  0.00  0.00    +0.076 C 
ATOM      3  C   UNL     1      32.194 -12.511 -24.289  0.00  0.00    -0.003 C 
ATOM      4  C   UNL     1      33.487 -12.878 -22.173  0.00  0.00    -0.003 C 
ATOM      5  C   UNL     1      32.929 -13.706 -24.898  0.00  0.00    -0.075 C 
ATOM      6  C   UNL     1      34.180 -14.062 -22.851  0.00  0.00    -0.075 C 
ATOM      7  H   UNL     1      32.457 -14.989 -23.396  0.00  0.00    -0.079 HD
ENDROOT
BRANCH   2   9
ATOM      8  O   UNL     1      31.154 -12.086 -20.946  0.00  0.00    -0.275 OA
ATOM      9  N   UNL     1      32.294 -10.778 -22.561  0.00  0.00    -0.260 N 
ATOM     10  C   UNL     1      31.403 -10.996 -21.468  0.00  0.00    +0.229 C 
BRANCH   9  11
ATOM     11  C   UNL     1      32.470  -9.414 -23.054  0.00  0.00    +0.054 C 
ATOM     12  C   UNL     1      31.350  -8.722 -23.409  0.00  0.00    +0.015 C 
ATOM     13  C   UNL     1      33.741  -8.927 -23.124  0.00  0.00    +0.015 C 
ATOM     14  C   UNL     1      31.518  -7.419 -23.879  0.00  0.00    +0.001 C 
ATOM     15  C   UNL     1      33.908  -7.623 -23.594  0.00  0.00    +0.001 C 
ATOM     16  C   UNL     1      32.796  -6.871 -23.972  0.00  0.00    +0.000 C 
ENDBRANCH   9  11
BRANCH  10  17
ATOM     17  C   UNL     1      30.685  -9.748 -20.964  0.00  0.00    +0.086 C 
ATOM     18  C   UNL     1      31.095  -9.361 -19.551  0.00  0.00    +0.010 C 
ENDBRANCH  10  17
ENDBRANCH   2   9
BRANCH   1  19
ATOM     19  C   UNL     1      33.966 -15.838 -24.465  0.00  0.00    -0.050 C 
BRANCH  19  20
ATOM     20  C   UNL     1      34.240 -16.916 -23.451  0.00  0.00    -0.043 C 
ATOM     21  C   UNL     1      33.777 -18.204 -23.681  0.00  0.00    -0.006 C 
ATOM     22  C   UNL     1      34.953 -16.606 -22.300  0.00  0.00    -0.006 C 
ATOM     23  C   UNL     1      34.030 -19.203 -22.741  0.00  0.00    -0.000 C 
ATOM     24  C   UNL     1      35.207 -17.606 -21.361  0.00  0.00    -0.000 C 
ATOM     25  C   UNL     1      34.745 -18.904 -21.581  0.00  0.00    -0.000 C 
ENDBRANCH  19  20
ENDBRANCH   1  19
TORSDOF 5
ENDMDL
MODEL 5
REMARK VINA RESULT:     -11.1      7.024     13.045
REMARK  Name = 252141
REMARK  5 active torsions:
REMARK  status: ('A' for Active; 'I' for Inactive)
REMARK    1  A    between atoms: N_1  and  C_19
REMARK    2  A    between atoms: C_2  and  N_9
REMARK    3  A    between atoms: N_9  and  C_11
REMARK    4  A    between atoms: C_10  and  C_17
REMARK    5  A    between atoms: C_19  and  C_20
REMARK                            x       y       z     vdW  Elec       q    Type
REMARK                         _______ _______ _______ _____ _____    ______ ____
ROOT
ATOM      1  N   UNL     1      32.966 -12.113 -23.024  0.00  0.00    +0.390 N 
ATOM      2  C   UNL     1      31.825  -9.427 -22.811  0.00  0.00    +0.076 C 
ATOM      3  C   UNL     1      31.290 -10.608 -22.002  0.00  0.00    -0.003 C 
ATOM      4  C   UNL     1      33.289  -9.666 -23.187  0.00  0.00    -0.003 C 
ATOM      5  C   UNL     1      31.539 -11.934 -22.723  0.00  0.00    -0.075 C 
ATOM      6  C   UNL     1      33.473 -11.023 -23.869  0.00  0.00    -0.075 C 
ATOM      7  H   UNL     1      33.478 -12.092 -22.141  0.00  0.00    -0.079 HD
ENDROOT
BRANCH   2   9
ATOM      8  O   UNL     1      31.409  -9.110 -19.915  0.00  0.00    -0.275 OA
ATOM      9  N   UNL     1      31.678  -8.191 -22.084  0.00  0.00    -0.260 N 
ATOM     10  C   UNL     1      31.478  -8.138 -20.672  0.00  0.00    +0.229 C 
BRANCH   9  11
ATOM     11  C   UNL     1      31.735  -6.934 -22.827  0.00  0.00    +0.054 C 
ATOM     12  C   UNL     1      32.942  -6.305 -22.911  0.00  0.00    +0.015 C 
ATOM     13  C   UNL     1      30.580  -6.479 -23.388  0.00  0.00    +0.015 C 
ATOM     14  C   UNL     1      32.997  -5.105 -23.621  0.00  0.00    +0.001 C 
ATOM     15  C   UNL     1      30.635  -5.279 -24.098  0.00  0.00    +0.001 C 
ATOM     16  C   UNL     1      31.844  -4.593 -24.214  0.00  0.00    +0.000 C 
ENDBRANCH   9  11
BRANCH  10  17
ATOM     17  C   UNL     1      31.298  -6.735 -20.100  0.00  0.00    +0.086 C 
ATOM     18  C   UNL     1      32.551  -6.210 -19.416  0.00  0.00    +0.010 C 
ENDBRANCH  10  17
ENDBRANCH   2   9
BRANCH   1  19
ATOM     19  C   UNL     1      33.196 -13.408 -23.667  0.00  0.00    -0.050 C 
BRANCH  19  20
ATOM     20  C   UNL     1      33.688 -14.441 -22.688  0.00  0.00    -0.043 C 
ATOM     21  C   UNL     1      33.575 -14.198 -21.326  0.00  0.00    -0.006 C 
ATOM     22  C   UNL     1      34.248 -15.619 -23.161  0.00  0.00    -0.006 C 
ATOM     23  C   UNL     1      34.032 -15.154 -20.419  0.00  0.00    -0.000 C 
ATOM     24  C   UNL     1      34.704 -16.575 -22.253  0.00  0.00    -0.000 C 
ATOM     25  C   UNL     1      34.596 -16.343 -20.882  0.00  0.00    -0.000 C 
ENDBRANCH  19  20
ENDBRANCH   1  19
TORSDOF 5
ENDMDL
MODEL 6
REMARK VINA RESULT:     -11.1      2.846      5.085
REMARK  Name = 252141
REMARK  5 active torsions:
REMARK  status: ('A' for Active; 'I' for Inactive)
REMARK    1  A    between atoms: N_1  and  C_19
REMARK    2  A    between atoms: C_2  and  N_9
REMARK    3  A    between atoms: N_9  and  C_11
REMARK    4  A    between atoms: C_10  and  C_17
REMARK    5  A    between atoms: C_19  and  C_20
REMARK                            x       y       z     vdW  Elec       q    Type
REMARK                         _______ _______ _______ _____ _____    ______ ____
ROOT
ATOM      1  N   UNL     1      33.351 -22.761 -17.262  0.00  0.00    +0.390 N 
ATOM      2  C   UNL     1      34.375 -22.886 -14.524  0.00  0.00    +0.076 C 
ATOM      3  C   UNL     1      33.137 -23.664 -14.970  0.00  0.00    -0.003 C 
ATOM      4  C   UNL     1      35.283 -22.607 -15.723  0.00  0.00    -0.003 C 
ATOM      5  C   UNL     1      32.433 -22.967 -16.135  0.00  0.00    -0.075 C 
ATOM      6  C   UNL     1      34.507 -21.945 -16.864  0.00  0.00    -0.075 C 
ATOM      7  H   UNL     1      33.698 -23.674 -17.557  0.00  0.00    -0.079 HD
ENDROOT
BRANCH   2   9
ATOM      8  O   UNL     1      33.678 -23.049 -11.670  0.00  0.00    -0.275 OA
ATOM      9  N   UNL     1      35.091 -23.596 -13.494  0.00  0.00    -0.260 N 
ATOM     10  C   UNL     1      34.673 -23.617 -12.130  0.00  0.00    +0.229 C 
BRANCH   9  11
ATOM     11  C   UNL     1      36.300 -24.328 -13.863  0.00  0.00    +0.054 C 
ATOM     12  C   UNL     1      37.496 -23.691 -13.709  0.00  0.00    +0.015 C 
ATOM     13  C   UNL     1      36.151 -25.599 -14.333  0.00  0.00    +0.015 C 
ATOM     14  C   UNL     1      38.651 -24.391 -14.060  0.00  0.00    +0.001 C 
ATOM     15  C   UNL     1      37.306 -26.298 -14.684  0.00  0.00    +0.001 C 
ATOM     16  C   UNL     1      38.555 -25.694 -14.548  0.00  0.00    +0.000 C 
ENDBRANCH   9  11
BRANCH  10  17
ATOM     17  C   UNL     1      35.593 -24.386 -11.186  0.00  0.00    +0.086 C 
ATOM     18  C   UNL     1      35.586 -23.829  -9.770  0.00  0.00    +0.010 C 
ENDBRANCH  10  17
ENDBRANCH   2   9
BRANCH   1  19
ATOM     19  C   UNL     1      32.651 -22.140 -18.388  0.00  0.00    -0.050 C 
BRANCH  19  20
ATOM     20  C   UNL     1      33.564 -21.262 -19.202  0.00  0.00    -0.043 C 
ATOM     21  C   UNL     1      33.026 -20.219 -19.942  0.00  0.00    -0.006 C 
ATOM     22  C   UNL     1      34.930 -21.510 -19.201  0.00  0.00    -0.006 C 
ATOM     23  C   UNL     1      33.872 -19.406 -20.697  0.00  0.00    -0.000 C 
ATOM     24  C   UNL     1      35.776 -20.696 -19.955  0.00  0.00    -0.000 C 
ATOM     25  C   UNL     1      35.247 -19.645 -20.703  0.00  0.00    -0.000 C 
ENDBRANCH  19  20
ENDBRANCH   1  19
TORSDOF 5
ENDMDL
MODEL 7
REMARK VINA RESULT:     -10.7      4.960      7.683
REMARK  Name = 252141
REMARK  5 active torsions:
REMARK  status: ('A' for Active; 'I' for Inactive)
REMARK    1  A    between atoms: N_1  and  C_19
REMARK    2  A    between atoms: C_2  and  N_9
REMARK    3  A    between atoms: N_9  and  C_11
REMARK    4  A    between atoms: C_10  and  C_17
REMARK    5  A    between atoms: C_19  and  C_20
REMARK                            x       y       z     vdW  Elec       q    Type
REMARK                         _______ _______ _______ _____ _____    ______ ____
ROOT
ATOM      1  N   UNL     1      31.170 -23.613 -14.008  0.00  0.00    +0.390 N 
ATOM      2  C   UNL     1      33.945 -23.770 -14.923  0.00  0.00    +0.076 C 
ATOM      3  C   UNL     1      32.905 -22.891 -15.617  0.00  0.00    -0.003 C 
ATOM      4  C   UNL     1      33.553 -23.998 -13.462  0.00  0.00    -0.003 C 
ATOM      5  C   UNL     1      31.493 -23.450 -15.432  0.00  0.00    -0.075 C 
ATOM      6  C   UNL     1      32.119 -24.520 -13.348  0.00  0.00    -0.075 C 
ATOM      7  H   UNL     1      31.247 -22.699 -13.562  0.00  0.00    -0.079 HD
ENDROOT
BRANCH   2   9
ATOM      8  O   UNL     1      35.014 -22.138 -17.126  0.00  0.00    -0.275 OA
ATOM      9  N   UNL     1      35.261 -23.188 -15.015  0.00  0.00    -0.260 N 
ATOM     10  C   UNL     1      35.690 -22.407 -16.130  0.00  0.00    +0.229 C 
BRANCH   9  11
ATOM     11  C   UNL     1      36.198 -23.406 -13.916  0.00  0.00    +0.054 C 
ATOM     12  C   UNL     1      36.985 -24.518 -13.969  0.00  0.00    +0.015 C 
ATOM     13  C   UNL     1      36.225 -22.482 -12.915  0.00  0.00    +0.015 C 
ATOM     14  C   UNL     1      37.882 -24.727 -12.920  0.00  0.00    +0.001 C 
ATOM     15  C   UNL     1      37.121 -22.690 -11.865  0.00  0.00    +0.001 C 
ATOM     16  C   UNL     1      37.949 -23.813 -11.869  0.00  0.00    +0.000 C 
ENDBRANCH   9  11
BRANCH  10  17
ATOM     17  C   UNL     1      37.134 -21.920 -16.057  0.00  0.00    +0.086 C 
ATOM     18  C   UNL     1      37.294 -20.477 -16.511  0.00  0.00    +0.010 C 
ENDBRANCH  10  17
ENDBRANCH   2   9
BRANCH   1  19
ATOM     19  C   UNL     1      29.800 -24.100 -13.846  0.00  0.00    -0.050 C 
BRANCH  19  20
ATOM     20  C   UNL     1      28.874 -23.525 -14.885  0.00  0.00    -0.043 C 
ATOM     21  C   UNL     1      28.493 -22.193 -14.798  0.00  0.00    -0.006 C 
ATOM     22  C   UNL     1      28.414 -24.335 -15.915  0.00  0.00    -0.006 C 
ATOM     23  C   UNL     1      27.635 -21.660 -15.760  0.00  0.00    -0.000 C 
ATOM     24  C   UNL     1      27.557 -23.801 -16.877  0.00  0.00    -0.000 C 
ATOM     25  C   UNL     1      27.167 -22.464 -16.799  0.00  0.00    -0.000 C 
ENDBRANCH  19  20
ENDBRANCH   1  19
TORSDOF 5
ENDMDL
MODEL 8
REMARK VINA RESULT:     -10.7      9.353     15.588
REMARK  Name = 252141
REMARK  5 active torsions:
REMARK  status: ('A' for Active; 'I' for Inactive)
REMARK    1  A    between atoms: N_1  and  C_19
REMARK    2  A    between atoms: C_2  and  N_9
REMARK    3  A    between atoms: N_9  and  C_11
REMARK    4  A    between atoms: C_10  and  C_17
REMARK    5  A    between atoms: C_19  and  C_20
REMARK                            x       y       z     vdW  Elec       q    Type
REMARK                         _______ _______ _______ _____ _____    ______ ____
ROOT
ATOM      1  N   UNL     1      31.581  -9.353 -21.841  0.00  0.00    +0.390 N 
ATOM      2  C   UNL     1      31.647  -6.570 -22.741  0.00  0.00    +0.076 C 
ATOM      3  C   UNL     1      32.520  -7.078 -21.594  0.00  0.00    -0.003 C 
ATOM      4  C   UNL     1      31.283  -7.723 -23.678  0.00  0.00    -0.003 C 
ATOM      5  C   UNL     1      31.873  -8.272 -20.890  0.00  0.00    -0.075 C 
ATOM      6  C   UNL     1      30.676  -8.895 -22.905  0.00  0.00    -0.075 C 
ATOM      7  H   UNL     1      32.459  -9.636 -22.275  0.00  0.00    -0.079 HD
ENDROOT
BRANCH   2   9
ATOM      8  O   UNL     1      34.247  -6.705 -24.112  0.00  0.00    -0.275 OA
ATOM      9  N   UNL     1      32.305  -5.510 -23.464  0.00  0.00    -0.260 N 
ATOM     10  C   UNL     1      33.572  -5.672 -24.099  0.00  0.00    +0.229 C 
BRANCH   9  11
ATOM     11  C   UNL     1      31.644  -4.211 -23.551  0.00  0.00    +0.054 C 
ATOM     12  C   UNL     1      31.127  -3.845 -24.759  0.00  0.00    +0.015 C 
ATOM     13  C   UNL     1      31.586  -3.454 -22.419  0.00  0.00    +0.015 C 
ATOM     14  C   UNL     1      30.494  -2.604 -24.842  0.00  0.00    +0.001 C 
ATOM     15  C   UNL     1      30.954  -2.213 -22.503  0.00  0.00    +0.001 C 
ATOM     16  C   UNL     1      30.408  -1.789 -23.714  0.00  0.00    +0.000 C 
ENDBRANCH   9  11
BRANCH  10  17
ATOM     17  C   UNL     1      34.120  -4.418 -24.773  0.00  0.00    +0.086 C 
ATOM     18  C   UNL     1      34.953  -4.726 -26.008  0.00  0.00    +0.010 C 
ENDBRANCH  10  17
ENDBRANCH   2   9
BRANCH   1  19
ATOM     19  C   UNL     1      31.009 -10.507 -21.145  0.00  0.00    -0.050 C 
BRANCH  19  20
ATOM     20  C   UNL     1      31.848 -11.744 -21.328  0.00  0.00    -0.043 C 
ATOM     21  C   UNL     1      32.571 -11.910 -22.501  0.00  0.00    -0.006 C 
ATOM     22  C   UNL     1      31.885 -12.700 -20.322  0.00  0.00    -0.006 C 
ATOM     23  C   UNL     1      33.348 -13.056 -22.672  0.00  0.00    -0.000 C 
ATOM     24  C   UNL     1      32.663 -13.846 -20.494  0.00  0.00    -0.000 C 
ATOM     25  C   UNL     1      33.394 -14.024 -21.668  0.00  0.00    -0.000 C 
ENDBRANCH  19  20
ENDBRANCH   1  19
TORSDOF 5
ENDMDL
MODEL 9
REMARK VINA RESULT:     -10.6      2.285      5.132
REMARK  Name = 252141
REMARK  5 active torsions:
REMARK  status: ('A' for Active; 'I' for Inactive)
REMARK    1  A    between atoms: N_1  and  C_19
REMARK    2  A    between atoms: C_2  and  N_9
REMARK    3  A    between atoms: N_9  and  C_11
REMARK    4  A    between atoms: C_10  and  C_17
REMARK    5  A    between atoms: C_19  and  C_20
REMARK                            x       y       z     vdW  Elec       q    Type
REMARK                         _______ _______ _______ _____ _____    ______ ____
ROOT
ATOM      1  N   UNL     1      34.384 -21.720 -17.676  0.00  0.00    +0.390 N 
ATOM      2  C   UNL     1      32.606 -23.188 -15.875  0.00  0.00    +0.076 C 
ATOM      3  C   UNL     1      33.813 -22.399 -15.367  0.00  0.00    -0.003 C 
ATOM      4  C   UNL     1      32.126 -22.617 -17.210  0.00  0.00    -0.003 C 
ATOM      5  C   UNL     1      34.905 -22.306 -16.434  0.00  0.00    -0.075 C 
ATOM      6  C   UNL     1      33.275 -22.517 -18.216  0.00  0.00    -0.075 C 
ATOM      7  H   UNL     1      34.027 -20.789 -17.458  0.00  0.00    -0.079 HD
ENDROOT
BRANCH   2   9
ATOM      8  O   UNL     1      32.873 -23.253 -12.945  0.00  0.00    -0.275 OA
ATOM      9  N   UNL     1      31.540 -23.189 -14.905  0.00  0.00    -0.260 N 
ATOM     10  C   UNL     1      31.770 -23.222 -13.497  0.00  0.00    +0.229 C 
BRANCH   9  11
ATOM     11  C   UNL     1      30.161 -23.154 -15.385  0.00  0.00    +0.054 C 
ATOM     12  C   UNL     1      29.526 -21.947 -15.394  0.00  0.00    +0.015 C 
ATOM     13  C   UNL     1      29.604 -24.329 -15.792  0.00  0.00    +0.015 C 
ATOM     14  C   UNL     1      28.209 -21.913 -15.853  0.00  0.00    +0.001 C 
ATOM     15  C   UNL     1      28.286 -24.295 -16.251  0.00  0.00    +0.001 C 
ATOM     16  C   UNL     1      27.590 -23.087 -16.281  0.00  0.00    +0.000 C 
ENDBRANCH   9  11
BRANCH  10  17
ATOM     17  C   UNL     1      30.509 -23.265 -12.639  0.00  0.00    +0.086 C 
ATOM     18  C   UNL     1      29.985 -24.677 -12.429  0.00  0.00    +0.010 C 
ENDBRANCH  10  17
ENDBRANCH   2   9
BRANCH   1  19
ATOM     19  C   UNL     1      35.452 -21.590 -18.668  0.00  0.00    -0.050 C 
BRANCH  19  20
ATOM     20  C   UNL     1      35.175 -20.482 -19.649  0.00  0.00    -0.043 C 
ATOM     21  C   UNL     1      36.205 -19.632 -20.027  0.00  0.00    -0.006 C 
ATOM     22  C   UNL     1      33.894 -20.326 -20.160  0.00  0.00    -0.006 C 
ATOM     23  C   UNL     1      35.948 -18.604 -20.935  0.00  0.00    -0.000 C 
ATOM     24  C   UNL     1      33.638 -19.299 -21.069  0.00  0.00    -0.000 C 
ATOM     25  C   UNL     1      34.665 -18.438 -21.456  0.00  0.00    -0.000 C 
ENDBRANCH  19  20
ENDBRANCH   1  19
TORSDOF 5
ENDMDL
