MODEL 1
REMARK VINA RESULT:     -12.3      0.000      0.000
REMARK  Name = 6419789
REMARK  3 active torsions:
REMARK  status: ('A' for Active; 'I' for Inactive)
REMARK    1  A    between atoms: N_4  and  C_13
REMARK    2  A    between atoms: C_5  and  C_19
REMARK    3  A    between atoms: C_22  and  N_25
REMARK                            x       y       z     vdW  Elec       q    Type
REMARK                         _______ _______ _______ _____ _____    ______ ____
ROOT
ATOM      1  N   UNL     1      35.862 -22.683 -14.297  0.00  0.00    -0.164 N 
ATOM      2  N   UNL     1      34.722 -22.372 -16.391  0.00  0.00    -0.374 NA
ATOM      3  N   UNL     1      35.614 -23.069 -13.018  0.00  0.00    -0.174 NA
ATOM      4  N   UNL     1      35.918 -21.642 -18.248  0.00  0.00    -0.288 N 
ATOM      5  C   UNL     1      33.696 -23.145 -14.245  0.00  0.00    +0.134 C 
ATOM      6  C   UNL     1      34.709 -22.719 -15.074  0.00  0.00    +0.194 C 
ATOM      7  C   UNL     1      34.310 -23.344 -13.002  0.00  0.00    +0.104 C 
ATOM      8  C   UNL     1      35.866 -21.997 -16.919  0.00  0.00    +0.186 C 
ATOM      9  C   UNL     1      37.075 -22.288 -14.845  0.00  0.00    +0.096 C 
ATOM     10  C   UNL     1      37.148 -21.937 -16.132  0.00  0.00    +0.066 C 
ATOM     11  H   UNL     1      36.768 -21.806 -18.718  0.00  0.00    +0.155 HD
ENDROOT
BRANCH   4  13
ATOM     12 CL   UNL     1      34.513 -18.506 -22.059  0.00  0.00    -0.082 Cl
ATOM     13  C   UNL     1      34.892 -21.073 -18.996  0.00  0.00    +0.051 C 
ATOM     14  C   UNL     1      35.176 -20.173 -20.037  0.00  0.00    +0.026 C 
ATOM     15  C   UNL     1      33.550 -21.387 -18.725  0.00  0.00    +0.015 C 
ATOM     16  C   UNL     1      34.146 -19.605 -20.787  0.00  0.00    +0.059 C 
ATOM     17  C   UNL     1      32.521 -20.817 -19.474  0.00  0.00    +0.002 C 
ATOM     18  C   UNL     1      32.818 -19.926 -20.505  0.00  0.00    +0.011 C 
ENDBRANCH   4  13
BRANCH   5  19
ATOM     19  C   UNL     1      32.335 -23.320 -14.652  0.00  0.00    -0.008 C 
ATOM     20  C   UNL     1      31.492 -24.174 -13.938  0.00  0.00    +0.011 C 
ATOM     21  C   UNL     1      31.845 -22.637 -15.767  0.00  0.00    -0.003 C 
ATOM     22  C   UNL     1      30.165 -24.345 -14.336  0.00  0.00    +0.041 C 
ATOM     23  C   UNL     1      30.519 -22.807 -16.166  0.00  0.00    +0.001 C 
ATOM     24  C   UNL     1      29.679 -23.660 -15.451  0.00  0.00    +0.014 C 
BRANCH  22  25
ATOM     25  N   UNL     1      29.316 -25.208 -13.613  0.00  0.00    -0.357 N 
ATOM     26  H   UNL     1      28.846 -25.937 -14.078  0.00  0.00    +0.142 HD
ATOM     27  H   UNL     1      29.194 -25.081 -12.645  0.00  0.00    +0.142 HD
ENDBRANCH  22  25
ENDBRANCH   5  19
TORSDOF 3
ENDMDL
MODEL 2
REMARK VINA RESULT:     -11.7      2.952      5.868
REMARK  Name = 6419789
REMARK  3 active torsions:
REMARK  status: ('A' for Active; 'I' for Inactive)
REMARK    1  A    between atoms: N_4  and  C_13
REMARK    2  A    between atoms: C_5  and  C_19
REMARK    3  A    between atoms: C_22  and  N_25
REMARK                            x       y       z     vdW  Elec       q    Type
REMARK                         _______ _______ _______ _____ _____    ______ ____
ROOT
ATOM      1  N   UNL     1      36.551 -22.923 -14.285  0.00  0.00    -0.164 N 
ATOM      2  N   UNL     1      34.223 -22.576 -14.778  0.00  0.00    -0.374 NA
ATOM      3  N   UNL     1      37.773 -22.802 -14.867  0.00  0.00    -0.174 NA
ATOM      4  N   UNL     1      32.626 -23.043 -13.152  0.00  0.00    -0.288 N 
ATOM      5  C   UNL     1      36.145 -22.159 -16.325  0.00  0.00    +0.134 C 
ATOM      6  C   UNL     1      35.533 -22.537 -15.151  0.00  0.00    +0.194 C 
ATOM      7  C   UNL     1      37.513 -22.342 -16.091  0.00  0.00    +0.104 C 
ATOM      8  C   UNL     1      33.939 -22.993 -13.564  0.00  0.00    +0.186 C 
ATOM      9  C   UNL     1      36.261 -23.364 -13.002  0.00  0.00    +0.096 C 
ATOM     10  C   UNL     1      34.995 -23.424 -12.581  0.00  0.00    +0.066 C 
ATOM     11  H   UNL     1      32.459 -22.909 -12.191  0.00  0.00    +0.155 HD
ENDROOT
BRANCH   4  13
ATOM     12 CL   UNL     1      28.277 -25.642 -13.963  0.00  0.00    -0.082 Cl
ATOM     13  C   UNL     1      31.512 -23.265 -13.955  0.00  0.00    +0.051 C 
ATOM     14  C   UNL     1      30.556 -24.233 -13.604  0.00  0.00    +0.026 C 
ATOM     15  C   UNL     1      31.321 -22.525 -15.133  0.00  0.00    +0.015 C 
ATOM     16  C   UNL     1      29.439 -24.453 -14.409  0.00  0.00    +0.059 C 
ATOM     17  C   UNL     1      30.203 -22.747 -15.939  0.00  0.00    +0.002 C 
ATOM     18  C   UNL     1      29.262 -23.710 -15.577  0.00  0.00    +0.011 C 
ENDBRANCH   4  13
BRANCH   5  19
ATOM     19  C   UNL     1      35.451 -21.691 -17.486  0.00  0.00    -0.008 C 
ATOM     20  C   UNL     1      34.085 -21.941 -17.637  0.00  0.00    +0.011 C 
ATOM     21  C   UNL     1      36.137 -20.980 -18.474  0.00  0.00    -0.003 C 
ATOM     22  C   UNL     1      33.409 -21.485 -18.769  0.00  0.00    +0.041 C 
ATOM     23  C   UNL     1      35.462 -20.524 -19.606  0.00  0.00    +0.001 C 
ATOM     24  C   UNL     1      34.098 -20.777 -19.754  0.00  0.00    +0.014 C 
BRANCH  22  25
ATOM     25  N   UNL     1      32.030 -21.740 -18.919  0.00  0.00    -0.357 N 
ATOM     26  H   UNL     1      31.706 -22.667 -18.983  0.00  0.00    +0.142 HD
ATOM     27  H   UNL     1      31.393 -20.991 -18.962  0.00  0.00    +0.142 HD
ENDBRANCH  22  25
ENDBRANCH   5  19
TORSDOF 3
ENDMDL
MODEL 3
REMARK VINA RESULT:     -11.3      3.227      5.811
REMARK  Name = 6419789
REMARK  3 active torsions:
REMARK  status: ('A' for Active; 'I' for Inactive)
REMARK    1  A    between atoms: N_4  and  C_13
REMARK    2  A    between atoms: C_5  and  C_19
REMARK    3  A    between atoms: C_22  and  N_25
REMARK                            x       y       z     vdW  Elec       q    Type
REMARK                         _______ _______ _______ _____ _____    ______ ____
ROOT
ATOM      1  N   UNL     1      34.536 -21.774 -17.795  0.00  0.00    -0.164 N 
ATOM      2  N   UNL     1      34.946 -22.521 -15.547  0.00  0.00    -0.374 NA
ATOM      3  N   UNL     1      33.524 -21.670 -18.694  0.00  0.00    -0.174 NA
ATOM      4  N   UNL     1      37.090 -22.357 -14.658  0.00  0.00    -0.288 N 
ATOM      5  C   UNL     1      32.754 -22.576 -16.751  0.00  0.00    +0.134 C 
ATOM      6  C   UNL     1      34.099 -22.324 -16.594  0.00  0.00    +0.194 C 
ATOM      7  C   UNL     1      32.460 -22.155 -18.054  0.00  0.00    +0.104 C 
ATOM      8  C   UNL     1      36.205 -22.175 -15.697  0.00  0.00    +0.186 C 
ATOM      9  C   UNL     1      35.863 -21.405 -17.964  0.00  0.00    +0.096 C 
ATOM     10  C   UNL     1      36.740 -21.575 -16.970  0.00  0.00    +0.066 C 
ATOM     11  H   UNL     1      37.843 -21.725 -14.601  0.00  0.00    +0.155 HD
ENDROOT
BRANCH   4  13
ATOM     12 CL   UNL     1      35.502 -23.792  -9.994  0.00  0.00    -0.082 Cl
ATOM     13  C   UNL     1      37.029 -23.344 -13.680  0.00  0.00    +0.051 C 
ATOM     14  C   UNL     1      36.373 -23.108 -12.460  0.00  0.00    +0.026 C 
ATOM     15  C   UNL     1      37.624 -24.599 -13.892  0.00  0.00    +0.015 C 
ATOM     16  C   UNL     1      36.312 -24.100 -11.481  0.00  0.00    +0.059 C 
ATOM     17  C   UNL     1      37.563 -25.590 -12.912  0.00  0.00    +0.002 C 
ATOM     18  C   UNL     1      36.907 -25.341 -11.707  0.00  0.00    +0.011 C 
ENDBRANCH   4  13
BRANCH   5  19
ATOM     19  C   UNL     1      31.914 -23.148 -15.742  0.00  0.00    -0.008 C 
ATOM     20  C   UNL     1      30.533 -23.215 -15.933  0.00  0.00    +0.011 C 
ATOM     21  C   UNL     1      32.475 -23.641 -14.562  0.00  0.00    -0.003 C 
ATOM     22  C   UNL     1      29.715 -23.772 -14.950  0.00  0.00    +0.041 C 
ATOM     23  C   UNL     1      31.657 -24.198 -13.578  0.00  0.00    +0.001 C 
ATOM     24  C   UNL     1      30.278 -24.263 -13.771  0.00  0.00    +0.014 C 
BRANCH  22  25
ATOM     25  N   UNL     1      28.319 -23.837 -15.145  0.00  0.00    -0.357 N 
ATOM     26  H   UNL     1      27.927 -24.598 -15.631  0.00  0.00    +0.142 HD
ATOM     27  H   UNL     1      27.740 -23.123 -14.797  0.00  0.00    +0.142 HD
ENDBRANCH  22  25
ENDBRANCH   5  19
TORSDOF 3
ENDMDL
MODEL 4
REMARK VINA RESULT:     -11.0      1.480      4.636
REMARK  Name = 6419789
REMARK  3 active torsions:
REMARK  status: ('A' for Active; 'I' for Inactive)
REMARK    1  A    between atoms: N_4  and  C_13
REMARK    2  A    between atoms: C_5  and  C_19
REMARK    3  A    between atoms: C_22  and  N_25
REMARK                            x       y       z     vdW  Elec       q    Type
REMARK                         _______ _______ _______ _____ _____    ______ ____
ROOT
ATOM      1  N   UNL     1      30.700 -24.048 -14.584  0.00  0.00    -0.164 N 
ATOM      2  N   UNL     1      32.168 -22.629 -15.853  0.00  0.00    -0.374 NA
ATOM      3  N   UNL     1      30.703 -24.827 -13.471  0.00  0.00    -0.174 NA
ATOM      4  N   UNL     1      31.370 -21.574 -17.766  0.00  0.00    -0.288 N 
ATOM      5  C   UNL     1      32.753 -23.881 -13.767  0.00  0.00    +0.134 C 
ATOM      6  C   UNL     1      31.940 -23.454 -14.794  0.00  0.00    +0.194 C 
ATOM      7  C   UNL     1      31.941 -24.716 -12.991  0.00  0.00    +0.104 C 
ATOM      8  C   UNL     1      31.176 -22.404 -16.685  0.00  0.00    +0.186 C 
ATOM      9  C   UNL     1      29.647 -23.818 -15.457  0.00  0.00    +0.096 C 
ATOM     10  C   UNL     1      29.812 -23.018 -16.514  0.00  0.00    +0.066 C 
ATOM     11  H   UNL     1      30.584 -21.073 -18.087  0.00  0.00    +0.155 HD
ENDROOT
BRANCH   4  13
ATOM     12 CL   UNL     1      33.849 -19.263 -21.619  0.00  0.00    -0.082 Cl
ATOM     13  C   UNL     1      32.562 -21.370 -18.453  0.00  0.00    +0.051 C 
ATOM     14  C   UNL     1      32.611 -20.517 -19.569  0.00  0.00    +0.026 C 
ATOM     15  C   UNL     1      33.742 -22.013 -18.045  0.00  0.00    +0.015 C 
ATOM     16  C   UNL     1      33.808 -20.312 -20.256  0.00  0.00    +0.059 C 
ATOM     17  C   UNL     1      34.938 -21.809 -18.734  0.00  0.00    +0.002 C 
ATOM     18  C   UNL     1      34.972 -20.959 -19.838  0.00  0.00    +0.011 C 
ENDBRANCH   4  13
BRANCH   5  19
ATOM     19  C   UNL     1      34.123 -23.499 -13.607  0.00  0.00    -0.008 C 
ATOM     20  C   UNL     1      34.935 -23.309 -14.727  0.00  0.00    +0.011 C 
ATOM     21  C   UNL     1      34.654 -23.315 -12.328  0.00  0.00    -0.003 C 
ATOM     22  C   UNL     1      36.271 -22.937 -14.570  0.00  0.00    +0.041 C 
ATOM     23  C   UNL     1      35.990 -22.944 -12.170  0.00  0.00    +0.001 C 
ATOM     24  C   UNL     1      36.798 -22.755 -13.291  0.00  0.00    +0.014 C 
BRANCH  22  25
ATOM     25  N   UNL     1      37.089 -22.746 -15.703  0.00  0.00    -0.357 N 
ATOM     26  H   UNL     1      36.689 -22.460 -16.556  0.00  0.00    +0.142 HD
ATOM     27  H   UNL     1      38.059 -22.901 -15.641  0.00  0.00    +0.142 HD
ENDBRANCH  22  25
ENDBRANCH   5  19
TORSDOF 3
ENDMDL
MODEL 5
REMARK VINA RESULT:     -10.9      3.050      5.464
REMARK  Name = 6419789
REMARK  3 active torsions:
REMARK  status: ('A' for Active; 'I' for Inactive)
REMARK    1  A    between atoms: N_4  and  C_13
REMARK    2  A    between atoms: C_5  and  C_19
REMARK    3  A    between atoms: C_22  and  N_25
REMARK                            x       y       z     vdW  Elec       q    Type
REMARK                         _______ _______ _______ _____ _____    ______ ____
ROOT
ATOM      1  N   UNL     1      33.792 -21.800 -18.066  0.00  0.00    -0.164 N 
ATOM      2  N   UNL     1      34.883 -22.487 -16.037  0.00  0.00    -0.374 NA
ATOM      3  N   UNL     1      32.560 -21.786 -18.639  0.00  0.00    -0.174 NA
ATOM      4  N   UNL     1      37.171 -22.145 -15.794  0.00  0.00    -0.288 N 
ATOM      5  C   UNL     1      32.450 -22.727 -16.567  0.00  0.00    +0.134 C 
ATOM      6  C   UNL     1      33.759 -22.369 -16.797  0.00  0.00    +0.194 C 
ATOM      7  C   UNL     1      31.764 -22.345 -17.727  0.00  0.00    +0.104 C 
ATOM      8  C   UNL     1      36.015 -22.045 -16.536  0.00  0.00    +0.186 C 
ATOM      9  C   UNL     1      34.983 -21.331 -18.602  0.00  0.00    +0.096 C 
ATOM     10  C   UNL     1      36.117 -21.420 -17.901  0.00  0.00    +0.066 C 
ATOM     11  H   UNL     1      37.857 -21.456 -15.947  0.00  0.00    +0.155 HD
ENDROOT
BRANCH   4  13
ATOM     12 CL   UNL     1      40.265 -25.945 -14.271  0.00  0.00    -0.082 Cl
ATOM     13  C   UNL     1      37.469 -23.123 -14.850  0.00  0.00    +0.051 C 
ATOM     14  C   UNL     1      38.589 -23.956 -15.008  0.00  0.00    +0.026 C 
ATOM     15  C   UNL     1      36.656 -23.297 -13.718  0.00  0.00    +0.015 C 
ATOM     16  C   UNL     1      38.888 -24.935 -14.060  0.00  0.00    +0.059 C 
ATOM     17  C   UNL     1      36.954 -24.277 -12.771  0.00  0.00    +0.002 C 
ATOM     18  C   UNL     1      38.069 -25.096 -12.942  0.00  0.00    +0.011 C 
ENDBRANCH   4  13
BRANCH   5  19
ATOM     19  C   UNL     1      31.979 -23.351 -15.368  0.00  0.00    -0.008 C 
ATOM     20  C   UNL     1      30.686 -23.875 -15.308  0.00  0.00    +0.011 C 
ATOM     21  C   UNL     1      32.813 -23.438 -14.250  0.00  0.00    -0.003 C 
ATOM     22  C   UNL     1      30.228 -24.482 -14.139  0.00  0.00    +0.041 C 
ATOM     23  C   UNL     1      32.356 -24.045 -13.080  0.00  0.00    +0.001 C 
ATOM     24  C   UNL     1      31.064 -24.567 -13.024  0.00  0.00    +0.014 C 
BRANCH  22  25
ATOM     25  N   UNL     1      28.922 -25.010 -14.082  0.00  0.00    -0.357 N 
ATOM     26  H   UNL     1      28.300 -24.708 -13.381  0.00  0.00    +0.142 HD
ATOM     27  H   UNL     1      28.633 -25.680 -14.742  0.00  0.00    +0.142 HD
ENDBRANCH  22  25
ENDBRANCH   5  19
TORSDOF 3
ENDMDL
MODEL 6
REMARK VINA RESULT:     -10.7      1.207      1.587
REMARK  Name = 6419789
REMARK  3 active torsions:
REMARK  status: ('A' for Active; 'I' for Inactive)
REMARK    1  A    between atoms: N_4  and  C_13
REMARK    2  A    between atoms: C_5  and  C_19
REMARK    3  A    between atoms: C_22  and  N_25
REMARK                            x       y       z     vdW  Elec       q    Type
REMARK                         _______ _______ _______ _____ _____    ______ ____
ROOT
ATOM      1  N   UNL     1      35.783 -23.059 -13.632  0.00  0.00    -0.164 N 
ATOM      2  N   UNL     1      34.942 -22.673 -15.851  0.00  0.00    -0.374 NA
ATOM      3  N   UNL     1      35.350 -23.429 -12.399  0.00  0.00    -0.174 NA
ATOM      4  N   UNL     1      36.410 -22.020 -17.534  0.00  0.00    -0.288 N 
ATOM      5  C   UNL     1      33.603 -23.381 -13.860  0.00  0.00    +0.134 C 
ATOM      6  C   UNL     1      34.739 -23.020 -14.550  0.00  0.00    +0.194 C 
ATOM      7  C   UNL     1      34.039 -23.619 -12.551  0.00  0.00    +0.104 C 
ATOM      8  C   UNL     1      36.166 -22.373 -16.226  0.00  0.00    +0.186 C 
ATOM      9  C   UNL     1      37.078 -22.742 -14.017  0.00  0.00    +0.096 C 
ATOM     10  C   UNL     1      37.338 -22.395 -15.281  0.00  0.00    +0.066 C 
ATOM     11  H   UNL     1      37.300 -22.238 -17.893  0.00  0.00    +0.155 HD
ENDROOT
BRANCH   4  13
ATOM     12 CL   UNL     1      31.555 -21.077 -18.901  0.00  0.00    -0.082 Cl
ATOM     13  C   UNL     1      35.526 -21.386 -18.401  0.00  0.00    +0.051 C 
ATOM     14  C   UNL     1      34.137 -21.529 -18.242  0.00  0.00    +0.026 C 
ATOM     15  C   UNL     1      36.004 -20.589 -19.454  0.00  0.00    +0.015 C 
ATOM     16  C   UNL     1      33.252 -20.891 -19.112  0.00  0.00    +0.059 C 
ATOM     17  C   UNL     1      35.119 -19.952 -20.324  0.00  0.00    +0.002 C 
ATOM     18  C   UNL     1      33.743 -20.103 -20.154  0.00  0.00    +0.011 C 
ENDBRANCH   4  13
BRANCH   5  19
ATOM     19  C   UNL     1      32.297 -23.468 -14.440  0.00  0.00    -0.008 C 
ATOM     20  C   UNL     1      31.349 -24.344 -13.908  0.00  0.00    +0.011 C 
ATOM     21  C   UNL     1      31.965 -22.675 -15.541  0.00  0.00    -0.003 C 
ATOM     22  C   UNL     1      30.076 -24.428 -14.473  0.00  0.00    +0.041 C 
ATOM     23  C   UNL     1      30.693 -22.759 -16.107  0.00  0.00    +0.001 C 
ATOM     24  C   UNL     1      29.748 -23.635 -15.573  0.00  0.00    +0.014 C 
BRANCH  22  25
ATOM     25  N   UNL     1      29.121 -25.315 -13.934  0.00  0.00    -0.357 N 
ATOM     26  H   UNL     1      28.776 -26.057 -14.480  0.00  0.00    +0.142 HD
ATOM     27  H   UNL     1      28.799 -25.190 -13.012  0.00  0.00    +0.142 HD
ENDBRANCH  22  25
ENDBRANCH   5  19
TORSDOF 3
ENDMDL
MODEL 7
REMARK VINA RESULT:     -10.7      3.221      6.246
REMARK  Name = 6419789
REMARK  3 active torsions:
REMARK  status: ('A' for Active; 'I' for Inactive)
REMARK    1  A    between atoms: N_4  and  C_13
REMARK    2  A    between atoms: C_5  and  C_19
REMARK    3  A    between atoms: C_22  and  N_25
REMARK                            x       y       z     vdW  Elec       q    Type
REMARK                         _______ _______ _______ _____ _____    ______ ____
ROOT
ATOM      1  N   UNL     1      35.312 -21.684 -17.596  0.00  0.00    -0.164 N 
ATOM      2  N   UNL     1      33.815 -22.918 -16.176  0.00  0.00    -0.374 NA
ATOM      3  N   UNL     1      36.612 -21.294 -17.658  0.00  0.00    -0.174 NA
ATOM      4  N   UNL     1      31.587 -23.165 -16.799  0.00  0.00    -0.288 N 
ATOM      5  C   UNL     1      36.246 -22.498 -15.760  0.00  0.00    +0.134 C 
ATOM      6  C   UNL     1      35.055 -22.423 -16.446  0.00  0.00    +0.194 C 
ATOM      7  C   UNL     1      37.160 -21.791 -16.549  0.00  0.00    +0.104 C 
ATOM      8  C   UNL     1      32.853 -22.678 -17.038  0.00  0.00    +0.186 C 
ATOM      9  C   UNL     1      34.302 -21.424 -18.512  0.00  0.00    +0.096 C 
ATOM     10  C   UNL     1      33.066 -21.884 -18.300  0.00  0.00    +0.066 C 
ATOM     11  H   UNL     1      31.038 -23.377 -17.588  0.00  0.00    +0.155 HD
ENDROOT
BRANCH   4  13
ATOM     12 CL   UNL     1      28.138 -25.718 -13.986  0.00  0.00    -0.082 Cl
ATOM     13  C   UNL     1      31.005 -23.387 -15.556  0.00  0.00    +0.051 C 
ATOM     14  C   UNL     1      29.977 -24.332 -15.402  0.00  0.00    +0.026 C 
ATOM     15  C   UNL     1      31.433 -22.670 -14.427  0.00  0.00    +0.015 C 
ATOM     16  C   UNL     1      29.395 -24.555 -14.154  0.00  0.00    +0.059 C 
ATOM     17  C   UNL     1      30.849 -22.892 -13.179  0.00  0.00    +0.002 C 
ATOM     18  C   UNL     1      29.831 -23.834 -13.042  0.00  0.00    +0.011 C 
ENDBRANCH   4  13
BRANCH   5  19
ATOM     19  C   UNL     1      36.420 -23.177 -14.511  0.00  0.00    -0.008 C 
ATOM     20  C   UNL     1      36.505 -24.571 -14.475  0.00  0.00    +0.011 C 
ATOM     21  C   UNL     1      36.505 -22.448 -13.323  0.00  0.00    -0.003 C 
ATOM     22  C   UNL     1      36.674 -25.232 -13.258  0.00  0.00    +0.041 C 
ATOM     23  C   UNL     1      36.674 -23.108 -12.106  0.00  0.00    +0.001 C 
ATOM     24  C   UNL     1      36.758 -24.500 -12.073  0.00  0.00    +0.014 C 
BRANCH  22  25
ATOM     25  N   UNL     1      36.758 -26.639 -13.225  0.00  0.00    -0.357 N 
ATOM     26  H   UNL     1      36.591 -27.162 -14.042  0.00  0.00    +0.142 HD
ATOM     27  H   UNL     1      36.984 -27.099 -12.384  0.00  0.00    +0.142 HD
ENDBRANCH  22  25
ENDBRANCH   5  19
TORSDOF 3
ENDMDL
MODEL 8
REMARK VINA RESULT:     -10.7      2.966      6.875
REMARK  Name = 6419789
REMARK  3 active torsions:
REMARK  status: ('A' for Active; 'I' for Inactive)
REMARK    1  A    between atoms: N_4  and  C_13
REMARK    2  A    between atoms: C_5  and  C_19
REMARK    3  A    between atoms: C_22  and  N_25
REMARK                            x       y       z     vdW  Elec       q    Type
REMARK                         _______ _______ _______ _____ _____    ______ ____
ROOT
ATOM      1  N   UNL     1      30.917 -23.184 -15.377  0.00  0.00    -0.164 N 
ATOM      2  N   UNL     1      33.211 -23.519 -14.738  0.00  0.00    -0.374 NA
ATOM      3  N   UNL     1      30.180 -22.631 -16.375  0.00  0.00    -0.174 NA
ATOM      4  N   UNL     1      33.696 -24.631 -12.753  0.00  0.00    -0.288 N 
ATOM      5  C   UNL     1      32.400 -22.367 -16.805  0.00  0.00    +0.134 C 
ATOM      6  C   UNL     1      32.281 -23.039 -15.610  0.00  0.00    +0.194 C 
ATOM      7  C   UNL     1      31.084 -22.145 -17.226  0.00  0.00    +0.104 C 
ATOM      8  C   UNL     1      32.784 -24.131 -13.656  0.00  0.00    +0.186 C 
ATOM      9  C   UNL     1      30.457 -23.827 -14.237  0.00  0.00    +0.096 C 
ATOM     10  C   UNL     1      31.323 -24.318 -13.346  0.00  0.00    +0.066 C 
ATOM     11  H   UNL     1      33.420 -25.426 -12.240  0.00  0.00    +0.155 HD
ENDROOT
BRANCH   4  13
ATOM     12 CL   UNL     1      38.717 -24.688 -13.807  0.00  0.00    -0.082 Cl
ATOM     13  C   UNL     1      34.966 -24.129 -12.491  0.00  0.00    +0.051 C 
ATOM     14  C   UNL     1      36.085 -24.602 -13.196  0.00  0.00    +0.026 C 
ATOM     15  C   UNL     1      35.155 -23.136 -11.516  0.00  0.00    +0.015 C 
ATOM     16  C   UNL     1      37.358 -24.096 -12.933  0.00  0.00    +0.059 C 
ATOM     17  C   UNL     1      36.429 -22.631 -11.252  0.00  0.00    +0.002 C 
ATOM     18  C   UNL     1      37.530 -23.110 -11.960  0.00  0.00    +0.011 C 
ENDBRANCH   4  13
BRANCH   5  19
ATOM     19  C   UNL     1      33.647 -22.013 -17.414  0.00  0.00    -0.008 C 
ATOM     20  C   UNL     1      34.818 -21.989 -16.655  0.00  0.00    +0.011 C 
ATOM     21  C   UNL     1      33.696 -21.689 -18.773  0.00  0.00    -0.003 C 
ATOM     22  C   UNL     1      36.033 -21.643 -17.248  0.00  0.00    +0.041 C 
ATOM     23  C   UNL     1      34.910 -21.343 -19.367  0.00  0.00    +0.001 C 
ATOM     24  C   UNL     1      36.078 -21.320 -18.605  0.00  0.00    +0.014 C 
BRANCH  22  25
ATOM     25  N   UNL     1      37.214 -21.619 -16.478  0.00  0.00    -0.357 N 
ATOM     26  H   UNL     1      37.976 -22.190 -16.729  0.00  0.00    +0.142 HD
ATOM     27  H   UNL     1      37.276 -21.032 -15.691  0.00  0.00    +0.142 HD
ENDBRANCH  22  25
ENDBRANCH   5  19
TORSDOF 3
ENDMDL
MODEL 9
REMARK VINA RESULT:     -10.6      2.562      6.593
REMARK  Name = 6419789
REMARK  3 active torsions:
REMARK  status: ('A' for Active; 'I' for Inactive)
REMARK    1  A    between atoms: N_4  and  C_13
REMARK    2  A    between atoms: C_5  and  C_19
REMARK    3  A    between atoms: C_22  and  N_25
REMARK                            x       y       z     vdW  Elec       q    Type
REMARK                         _______ _______ _______ _____ _____    ______ ____
ROOT
ATOM      1  N   UNL     1      30.089 -23.389 -15.023  0.00  0.00    -0.164 N 
ATOM      2  N   UNL     1      32.473 -23.501 -14.734  0.00  0.00    -0.374 NA
ATOM      3  N   UNL     1      29.163 -22.940 -15.909  0.00  0.00    -0.174 NA
ATOM      4  N   UNL     1      33.349 -24.494 -12.820  0.00  0.00    -0.288 N 
ATOM      5  C   UNL     1      31.260 -22.500 -16.679  0.00  0.00    +0.134 C 
ATOM      6  C   UNL     1      31.383 -23.136 -15.465  0.00  0.00    +0.194 C 
ATOM      7  C   UNL     1      29.881 -22.409 -16.899  0.00  0.00    +0.104 C 
ATOM      8  C   UNL     1      32.271 -24.107 -13.585  0.00  0.00    +0.186 C 
ATOM      9  C   UNL     1      29.865 -24.028 -13.812  0.00  0.00    +0.096 C 
ATOM     10  C   UNL     1      30.896 -24.409 -13.052  0.00  0.00    +0.066 C 
ATOM     11  H   UNL     1      33.228 -25.289 -12.253  0.00  0.00    +0.155 HD
ENDROOT
BRANCH   4  13
ATOM     12 CL   UNL     1      37.502 -22.813 -15.322  0.00  0.00    -0.082 Cl
ATOM     13  C   UNL     1      34.593 -23.873 -12.767  0.00  0.00    +0.051 C 
ATOM     14  C   UNL     1      35.347 -23.673 -13.935  0.00  0.00    +0.026 C 
ATOM     15  C   UNL     1      35.121 -23.433 -11.542  0.00  0.00    +0.015 C 
ATOM     16  C   UNL     1      36.593 -23.050 -13.880  0.00  0.00    +0.059 C 
ATOM     17  C   UNL     1      36.368 -22.810 -11.487  0.00  0.00    +0.002 C 
ATOM     18  C   UNL     1      37.105 -22.619 -12.656  0.00  0.00    +0.011 C 
ENDBRANCH   4  13
BRANCH   5  19
ATOM     19  C   UNL     1      32.364 -22.062 -17.479  0.00  0.00    -0.008 C 
ATOM     20  C   UNL     1      32.142 -21.285 -18.618  0.00  0.00    +0.011 C 
ATOM     21  C   UNL     1      33.669 -22.410 -17.123  0.00  0.00    -0.003 C 
ATOM     22  C   UNL     1      33.218 -20.858 -19.397  0.00  0.00    +0.041 C 
ATOM     23  C   UNL     1      34.746 -21.984 -17.901  0.00  0.00    +0.001 C 
ATOM     24  C   UNL     1      34.520 -21.208 -19.039  0.00  0.00    +0.014 C 
BRANCH  22  25
ATOM     25  N   UNL     1      32.990 -20.074 -20.547  0.00  0.00    -0.357 N 
ATOM     26  H   UNL     1      32.089 -20.029 -20.941  0.00  0.00    +0.142 HD
ATOM     27  H   UNL     1      33.732 -19.574 -20.956  0.00  0.00    +0.142 HD
ENDBRANCH  22  25
ENDBRANCH   5  19
TORSDOF 3
ENDMDL
