MODEL 1
REMARK VINA RESULT:     -12.7      0.000      0.000
REMARK  Name = 21874557
REMARK  4 active torsions:
REMARK  status: ('A' for Active; 'I' for Inactive)
REMARK    1  A    between atoms: N_1  and  C_18
REMARK    2  A    between atoms: C_9  and  C_14
REMARK    3  A    between atoms: C_18  and  C_19
REMARK    4  A    between atoms: C_23  and  N_26
REMARK                            x       y       z     vdW  Elec       q    Type
REMARK                         _______ _______ _______ _____ _____    ______ ____
ROOT
ATOM      1  N   UNL     1      34.650 -16.235 -21.878  0.00  0.00    -0.170 N 
ATOM      2  N   UNL     1      34.560 -15.875 -20.583  0.00  0.00    -0.042 NA
ATOM      3  N   UNL     1      33.858 -14.745 -20.526  0.00  0.00    -0.137 NA
ATOM      4  N   UNL     1      33.879 -15.364 -24.015  0.00  0.00    -0.310 NA
ATOM      5  N   UNL     1      32.618 -13.297 -23.691  0.00  0.00    -0.324 NA
ATOM      6  N   UNL     1      32.960 -14.201 -25.827  0.00  0.00    -0.283 N 
ATOM      7  C   UNL     1      34.007 -15.345 -22.681  0.00  0.00    +0.238 C 
ATOM      8  C   UNL     1      33.509 -14.403 -21.803  0.00  0.00    +0.181 C 
ATOM      9  C   UNL     1      32.790 -13.346 -22.348  0.00  0.00    +0.202 C 
ATOM     10  C   UNL     1      33.165 -14.294 -24.431  0.00  0.00    +0.198 C 
ATOM     11  H   UNL     1      33.329 -14.889 -26.426  0.00  0.00    +0.156 HD
ATOM     12  H   UNL     1      32.449 -13.447 -26.200  0.00  0.00    +0.156 HD
ENDROOT
BRANCH   9  14
ATOM     13  O   UNL     1      31.879 -11.177 -22.203  0.00  0.00    -0.448 OA
ATOM     14  C   UNL     1      32.228 -12.312 -21.538  0.00  0.00    +0.178 C 
ATOM     15  C   UNL     1      31.946 -12.192 -20.198  0.00  0.00    +0.043 C 
ATOM     16  C   UNL     1      31.390 -10.901 -20.026  0.00  0.00    +0.044 C 
ATOM     17  C   UNL     1      31.371 -10.324 -21.275  0.00  0.00    +0.180 C 
ENDBRANCH   9  14
BRANCH   1  18
ATOM     18  C   UNL     1      35.371 -17.452 -22.266  0.00  0.00    +0.145 C 
BRANCH  18  19
ATOM     19  C   UNL     1      35.125 -18.572 -21.314  0.00  0.00    -0.001 C 
ATOM     20  C   UNL     1      33.825 -19.029 -21.094  0.00  0.00    -0.006 C 
ATOM     21  C   UNL     1      33.596 -20.078 -20.203  0.00  0.00    -0.009 C 
ATOM     22  C   UNL     1      36.195 -19.163 -20.641  0.00  0.00    -0.001 C 
ATOM     23  C   UNL     1      34.666 -20.669 -19.532  0.00  0.00    +0.037 C 
ATOM     24  C   UNL     1      35.966 -20.213 -19.750  0.00  0.00    +0.013 C 
ATOM     25  C   UNL     1      32.194 -20.548 -19.987  0.00  0.00    +0.032 C 
BRANCH  23  26
ATOM     26  N   UNL     1      34.453 -21.732 -18.627  0.00  0.00    -0.357 N 
ATOM     27  H   UNL     1      33.777 -21.646 -17.916  0.00  0.00    +0.142 HD
ATOM     28  H   UNL     1      34.981 -22.559 -18.705  0.00  0.00    +0.142 HD
ENDBRANCH  23  26
ENDBRANCH  18  19
ENDBRANCH   1  18
TORSDOF 4
ENDMDL
MODEL 2
REMARK VINA RESULT:     -11.1      3.432      7.922
REMARK  Name = 21874557
REMARK  4 active torsions:
REMARK  status: ('A' for Active; 'I' for Inactive)
REMARK    1  A    between atoms: N_1  and  C_18
REMARK    2  A    between atoms: C_9  and  C_14
REMARK    3  A    between atoms: C_18  and  C_19
REMARK    4  A    between atoms: C_23  and  N_26
REMARK                            x       y       z     vdW  Elec       q    Type
REMARK                         _______ _______ _______ _____ _____    ______ ____
ROOT
ATOM      1  N   UNL     1      35.447 -18.529 -21.354  0.00  0.00    -0.170 N 
ATOM      2  N   UNL     1      36.655 -18.381 -20.776  0.00  0.00    -0.042 NA
ATOM      3  N   UNL     1      36.693 -19.180 -19.712  0.00  0.00    -0.137 NA
ATOM      4  N   UNL     1      33.434 -19.831 -20.940  0.00  0.00    -0.310 NA
ATOM      5  N   UNL     1      33.710 -21.223 -18.951  0.00  0.00    -0.324 NA
ATOM      6  N   UNL     1      31.722 -21.242 -20.193  0.00  0.00    -0.283 N 
ATOM      7  C   UNL     1      34.683 -19.425 -20.673  0.00  0.00    +0.238 C 
ATOM      8  C   UNL     1      35.494 -19.830 -19.630  0.00  0.00    +0.181 C 
ATOM      9  C   UNL     1      34.969 -20.764 -18.746  0.00  0.00    +0.202 C 
ATOM     10  C   UNL     1      33.031 -20.736 -20.019  0.00  0.00    +0.198 C 
ATOM     11  H   UNL     1      31.170 -20.933 -20.947  0.00  0.00    +0.156 HD
ATOM     12  H   UNL     1      31.363 -21.904 -19.559  0.00  0.00    +0.156 HD
ENDROOT
BRANCH   9  14
ATOM     13  O   UNL     1      35.150 -22.304 -16.971  0.00  0.00    -0.448 OA
ATOM     14  C   UNL     1      35.713 -21.256 -17.630  0.00  0.00    +0.178 C 
ATOM     15  C   UNL     1      36.907 -20.904 -17.046  0.00  0.00    +0.043 C 
ATOM     16  C   UNL     1      37.090 -21.792 -15.959  0.00  0.00    +0.044 C 
ATOM     17  C   UNL     1      35.995 -22.624 -15.956  0.00  0.00    +0.180 C 
ENDBRANCH   9  14
BRANCH   1  18
ATOM     18  C   UNL     1      35.100 -17.772 -22.561  0.00  0.00    +0.145 C 
BRANCH  18  19
ATOM     19  C   UNL     1      34.516 -16.440 -22.234  0.00  0.00    -0.001 C 
ATOM     20  C   UNL     1      34.092 -15.593 -23.259  0.00  0.00    -0.006 C 
ATOM     21  C   UNL     1      33.545 -14.347 -22.952  0.00  0.00    -0.009 C 
ATOM     22  C   UNL     1      34.393 -16.041 -20.903  0.00  0.00    -0.001 C 
ATOM     23  C   UNL     1      33.422 -13.948 -21.621  0.00  0.00    +0.037 C 
ATOM     24  C   UNL     1      33.846 -14.794 -20.596  0.00  0.00    +0.013 C 
ATOM     25  C   UNL     1      33.099 -13.460 -24.068  0.00  0.00    +0.032 C 
BRANCH  23  26
ATOM     26  N   UNL     1      32.871 -12.691 -21.291  0.00  0.00    -0.357 N 
ATOM     27  H   UNL     1      32.120 -12.330 -21.816  0.00  0.00    +0.142 HD
ATOM     28  H   UNL     1      33.236 -12.175 -20.537  0.00  0.00    +0.142 HD
ENDBRANCH  23  26
ENDBRANCH  18  19
ENDBRANCH   1  18
TORSDOF 4
ENDMDL
MODEL 3
REMARK VINA RESULT:     -11.1      4.122      8.758
REMARK  Name = 21874557
REMARK  4 active torsions:
REMARK  status: ('A' for Active; 'I' for Inactive)
REMARK    1  A    between atoms: N_1  and  C_18
REMARK    2  A    between atoms: C_9  and  C_14
REMARK    3  A    between atoms: C_18  and  C_19
REMARK    4  A    between atoms: C_23  and  N_26
REMARK                            x       y       z     vdW  Elec       q    Type
REMARK                         _______ _______ _______ _____ _____    ______ ____
ROOT
ATOM      1  N   UNL     1      34.103 -20.974 -19.489  0.00  0.00    -0.170 N 
ATOM      2  N   UNL     1      32.849 -20.779 -19.938  0.00  0.00    -0.042 NA
ATOM      3  N   UNL     1      32.013 -21.280 -19.031  0.00  0.00    -0.137 NA
ATOM      4  N   UNL     1      35.147 -21.966 -17.528  0.00  0.00    -0.310 NA
ATOM      5  N   UNL     1      33.447 -22.822 -15.995  0.00  0.00    -0.324 NA
ATOM      6  N   UNL     1      35.734 -23.002 -15.512  0.00  0.00    -0.283 N 
ATOM      7  C   UNL     1      34.101 -21.605 -18.283  0.00  0.00    +0.238 C 
ATOM      8  C   UNL     1      32.760 -21.791 -18.007  0.00  0.00    +0.181 C 
ATOM      9  C   UNL     1      32.442 -22.426 -16.813  0.00  0.00    +0.202 C 
ATOM     10  C   UNL     1      34.719 -22.571 -16.397  0.00  0.00    +0.198 C 
ATOM     11  H   UNL     1      36.680 -22.853 -15.739  0.00  0.00    +0.156 HD
ATOM     12  H   UNL     1      35.495 -23.450 -14.669  0.00  0.00    +0.156 HD
ENDROOT
BRANCH   9  14
ATOM     13  O   UNL     1      30.156 -21.893 -17.025  0.00  0.00    -0.448 OA
ATOM     14  C   UNL     1      31.091 -22.675 -16.421  0.00  0.00    +0.178 C 
ATOM     15  C   UNL     1      30.495 -23.551 -15.546  0.00  0.00    +0.043 C 
ATOM     16  C   UNL     1      29.105 -23.292 -15.614  0.00  0.00    +0.044 C 
ATOM     17  C   UNL     1      28.951 -22.275 -16.528  0.00  0.00    +0.180 C 
ENDBRANCH   9  14
BRANCH   1  18
ATOM     18  C   UNL     1      35.256 -20.526 -20.276  0.00  0.00    +0.145 C 
BRANCH  18  19
ATOM     19  C   UNL     1      34.941 -19.312 -21.083  0.00  0.00    -0.001 C 
ATOM     20  C   UNL     1      34.328 -19.441 -22.329  0.00  0.00    -0.006 C 
ATOM     21  C   UNL     1      34.032 -18.304 -23.082  0.00  0.00    -0.009 C 
ATOM     22  C   UNL     1      35.260 -18.046 -20.590  0.00  0.00    -0.001 C 
ATOM     23  C   UNL     1      34.351 -17.039 -22.589  0.00  0.00    +0.037 C 
ATOM     24  C   UNL     1      34.965 -16.909 -21.344  0.00  0.00    +0.013 C 
ATOM     25  C   UNL     1      33.375 -18.472 -24.414  0.00  0.00    +0.032 C 
BRANCH  23  26
ATOM     26  N   UNL     1      34.060 -15.878 -23.337  0.00  0.00    -0.357 N 
ATOM     27  H   UNL     1      33.539 -15.947 -24.171  0.00  0.00    +0.142 HD
ATOM     28  H   UNL     1      34.376 -14.999 -23.027  0.00  0.00    +0.142 HD
ENDBRANCH  23  26
ENDBRANCH  18  19
ENDBRANCH   1  18
TORSDOF 4
ENDMDL
MODEL 4
REMARK VINA RESULT:     -11.1      2.599      3.798
REMARK  Name = 21874557
REMARK  4 active torsions:
REMARK  status: ('A' for Active; 'I' for Inactive)
REMARK    1  A    between atoms: N_1  and  C_18
REMARK    2  A    between atoms: C_9  and  C_14
REMARK    3  A    between atoms: C_18  and  C_19
REMARK    4  A    between atoms: C_23  and  N_26
REMARK                            x       y       z     vdW  Elec       q    Type
REMARK                         _______ _______ _______ _____ _____    ______ ____
ROOT
ATOM      1  N   UNL     1      35.277 -18.476 -21.157  0.00  0.00    -0.170 N 
ATOM      2  N   UNL     1      35.374 -17.256 -20.595  0.00  0.00    -0.042 NA
ATOM      3  N   UNL     1      34.852 -16.377 -21.448  0.00  0.00    -0.137 NA
ATOM      4  N   UNL     1      34.423 -19.405 -23.237  0.00  0.00    -0.310 NA
ATOM      5  N   UNL     1      33.514 -17.634 -24.655  0.00  0.00    -0.324 NA
ATOM      6  N   UNL     1      33.500 -19.877 -25.336  0.00  0.00    -0.283 N 
ATOM      7  C   UNL     1      34.690 -18.408 -22.383  0.00  0.00    +0.238 C 
ATOM      8  C   UNL     1      34.427 -17.063 -22.551  0.00  0.00    +0.181 C 
ATOM      9  C   UNL     1      33.816 -16.681 -23.739  0.00  0.00    +0.202 C 
ATOM     10  C   UNL     1      33.832 -18.918 -24.352  0.00  0.00    +0.198 C 
ATOM     11  H   UNL     1      33.701 -20.828 -25.184  0.00  0.00    +0.156 HD
ATOM     12  H   UNL     1      33.067 -19.593 -26.174  0.00  0.00    +0.156 HD
ENDROOT
BRANCH   9  14
ATOM     13  O   UNL     1      33.218 -15.048 -25.329  0.00  0.00    -0.448 OA
ATOM     14  C   UNL     1      33.495 -15.319 -24.026  0.00  0.00    +0.178 C 
ATOM     15  C   UNL     1      33.399 -14.178 -23.265  0.00  0.00    +0.043 C 
ATOM     16  C   UNL     1      33.040 -13.139 -24.156  0.00  0.00    +0.044 C 
ATOM     17  C   UNL     1      32.941 -13.719 -25.400  0.00  0.00    +0.180 C 
ENDBRANCH   9  14
BRANCH   1  18
ATOM     18  C   UNL     1      35.771 -19.663 -20.452  0.00  0.00    +0.145 C 
BRANCH  18  19
ATOM     19  C   UNL     1      34.684 -20.359 -19.705  0.00  0.00    -0.001 C 
ATOM     20  C   UNL     1      34.998 -21.200 -18.637  0.00  0.00    -0.006 C 
ATOM     21  C   UNL     1      33.980 -21.850 -17.938  0.00  0.00    -0.009 C 
ATOM     22  C   UNL     1      33.352 -20.170 -20.075  0.00  0.00    -0.001 C 
ATOM     23  C   UNL     1      32.649 -21.660 -18.308  0.00  0.00    +0.037 C 
ATOM     24  C   UNL     1      32.334 -20.820 -19.376  0.00  0.00    +0.013 C 
ATOM     25  C   UNL     1      34.345 -22.744 -16.798  0.00  0.00    +0.032 C 
BRANCH  23  26
ATOM     26  N   UNL     1      31.606 -22.309 -17.613  0.00  0.00    -0.357 N 
ATOM     27  H   UNL     1      31.813 -23.038 -16.984  0.00  0.00    +0.142 HD
ATOM     28  H   UNL     1      30.672 -22.033 -17.755  0.00  0.00    +0.142 HD
ENDBRANCH  23  26
ENDBRANCH  18  19
ENDBRANCH   1  18
TORSDOF 4
ENDMDL
MODEL 5
REMARK VINA RESULT:     -10.8      2.708      7.342
REMARK  Name = 21874557
REMARK  4 active torsions:
REMARK  status: ('A' for Active; 'I' for Inactive)
REMARK    1  A    between atoms: N_1  and  C_18
REMARK    2  A    between atoms: C_9  and  C_14
REMARK    3  A    between atoms: C_18  and  C_19
REMARK    4  A    between atoms: C_23  and  N_26
REMARK                            x       y       z     vdW  Elec       q    Type
REMARK                         _______ _______ _______ _____ _____    ______ ____
ROOT
ATOM      1  N   UNL     1      34.310 -15.497 -22.263  0.00  0.00    -0.170 N 
ATOM      2  N   UNL     1      34.605 -15.419 -20.951  0.00  0.00    -0.042 NA
ATOM      3  N   UNL     1      34.687 -16.662 -20.481  0.00  0.00    -0.137 NA
ATOM      4  N   UNL     1      33.912 -17.266 -23.886  0.00  0.00    -0.310 NA
ATOM      5  N   UNL     1      34.107 -19.459 -22.825  0.00  0.00    -0.324 NA
ATOM      6  N   UNL     1      33.601 -19.241 -25.103  0.00  0.00    -0.283 N 
ATOM      7  C   UNL     1      34.195 -16.792 -22.664  0.00  0.00    +0.238 C 
ATOM      8  C   UNL     1      34.438 -17.520 -21.516  0.00  0.00    +0.181 C 
ATOM      9  C   UNL     1      34.388 -18.904 -21.620  0.00  0.00    +0.202 C 
ATOM     10  C   UNL     1      33.890 -18.618 -23.867  0.00  0.00    +0.198 C 
ATOM     11  H   UNL     1      33.432 -18.693 -25.903  0.00  0.00    +0.156 HD
ATOM     12  H   UNL     1      33.568 -20.223 -25.163  0.00  0.00    +0.156 HD
ENDROOT
BRANCH   9  14
ATOM     13  O   UNL     1      35.906 -19.804 -20.059  0.00  0.00    -0.448 OA
ATOM     14  C   UNL     1      34.621 -19.760 -20.500  0.00  0.00    +0.178 C 
ATOM     15  C   UNL     1      33.820 -20.578 -19.738  0.00  0.00    +0.043 C 
ATOM     16  C   UNL     1      34.667 -21.164 -18.767  0.00  0.00    +0.044 C 
ATOM     17  C   UNL     1      35.926 -20.660 -19.004  0.00  0.00    +0.180 C 
ENDBRANCH   9  14
BRANCH   1  18
ATOM     18  C   UNL     1      34.154 -14.281 -23.067  0.00  0.00    +0.145 C 
BRANCH  18  19
ATOM     19  C   UNL     1      33.252 -13.291 -22.410  0.00  0.00    -0.001 C 
ATOM     20  C   UNL     1      33.019 -12.053 -23.009  0.00  0.00    -0.006 C 
ATOM     21  C   UNL     1      32.175 -11.129 -22.394  0.00  0.00    -0.009 C 
ATOM     22  C   UNL     1      32.642 -13.604 -21.194  0.00  0.00    -0.001 C 
ATOM     23  C   UNL     1      31.565 -11.442 -21.179  0.00  0.00    +0.037 C 
ATOM     24  C   UNL     1      31.798 -12.679 -20.579  0.00  0.00    +0.013 C 
ATOM     25  C   UNL     1      31.943  -9.811 -23.058  0.00  0.00    +0.032 C 
BRANCH  23  26
ATOM     26  N   UNL     1      30.707 -10.519 -20.542  0.00  0.00    -0.357 N 
ATOM     27  H   UNL     1      30.519  -9.650 -20.964  0.00  0.00    +0.142 HD
ATOM     28  H   UNL     1      30.297 -10.744 -19.676  0.00  0.00    +0.142 HD
ENDBRANCH  23  26
ENDBRANCH  18  19
ENDBRANCH   1  18
TORSDOF 4
ENDMDL
MODEL 6
REMARK VINA RESULT:     -10.7      5.347     10.022
REMARK  Name = 21874557
REMARK  4 active torsions:
REMARK  status: ('A' for Active; 'I' for Inactive)
REMARK    1  A    between atoms: N_1  and  C_18
REMARK    2  A    between atoms: C_9  and  C_14
REMARK    3  A    between atoms: C_18  and  C_19
REMARK    4  A    between atoms: C_23  and  N_26
REMARK                            x       y       z     vdW  Elec       q    Type
REMARK                         _______ _______ _______ _____ _____    ______ ____
ROOT
ATOM      1  N   UNL     1      34.018 -22.070 -17.848  0.00  0.00    -0.170 N 
ATOM      2  N   UNL     1      32.887 -22.205 -18.566  0.00  0.00    -0.042 NA
ATOM      3  N   UNL     1      31.939 -22.653 -17.744  0.00  0.00    -0.137 NA
ATOM      4  N   UNL     1      34.707 -22.429 -15.542  0.00  0.00    -0.310 NA
ATOM      5  N   UNL     1      32.831 -23.249 -14.208  0.00  0.00    -0.324 NA
ATOM      6  N   UNL     1      34.948 -22.903 -13.263  0.00  0.00    -0.283 N 
ATOM      7  C   UNL     1      33.824 -22.429 -16.550  0.00  0.00    +0.238 C 
ATOM      8  C   UNL     1      32.493 -22.797 -16.503  0.00  0.00    +0.181 C 
ATOM      9  C   UNL     1      31.997 -23.221 -15.276  0.00  0.00    +0.202 C 
ATOM     10  C   UNL     1      34.115 -22.857 -14.404  0.00  0.00    +0.198 C 
ATOM     11  H   UNL     1      35.892 -22.633 -13.331  0.00  0.00    +0.156 HD
ATOM     12  H   UNL     1      34.583 -23.205 -12.399  0.00  0.00    +0.156 HD
ENDROOT
BRANCH   9  14
ATOM     13  O   UNL     1      30.459 -24.788 -14.419  0.00  0.00    -0.448 OA
ATOM     14  C   UNL     1      30.638 -23.627 -15.106  0.00  0.00    +0.178 C 
ATOM     15  C   UNL     1      29.427 -23.100 -15.487  0.00  0.00    +0.043 C 
ATOM     16  C   UNL     1      28.440 -23.993 -15.005  0.00  0.00    +0.044 C 
ATOM     17  C   UNL     1      29.119 -25.003 -14.362  0.00  0.00    +0.180 C 
ENDBRANCH   9  14
BRANCH   1  18
ATOM     18  C   UNL     1      35.250 -21.588 -18.482  0.00  0.00    +0.145 C 
BRANCH  18  19
ATOM     19  C   UNL     1      34.971 -20.604 -19.566  0.00  0.00    -0.001 C 
ATOM     20  C   UNL     1      36.015 -19.869 -20.128  0.00  0.00    -0.006 C 
ATOM     21  C   UNL     1      35.752 -18.948 -21.143  0.00  0.00    -0.009 C 
ATOM     22  C   UNL     1      33.664 -20.417 -20.017  0.00  0.00    -0.001 C 
ATOM     23  C   UNL     1      34.445 -18.762 -21.594  0.00  0.00    +0.037 C 
ATOM     24  C   UNL     1      33.401 -19.496 -21.032  0.00  0.00    +0.013 C 
ATOM     25  C   UNL     1      36.889 -18.174 -21.727  0.00  0.00    +0.032 C 
BRANCH  23  26
ATOM     26  N   UNL     1      34.161 -17.835 -22.620  0.00  0.00    -0.357 N 
ATOM     27  H   UNL     1      34.285 -18.090 -23.563  0.00  0.00    +0.142 HD
ATOM     28  H   UNL     1      33.838 -16.933 -22.394  0.00  0.00    +0.142 HD
ENDBRANCH  23  26
ENDBRANCH  18  19
ENDBRANCH   1  18
TORSDOF 4
ENDMDL
MODEL 7
REMARK VINA RESULT:     -10.6      3.669      8.520
REMARK  Name = 21874557
REMARK  4 active torsions:
REMARK  status: ('A' for Active; 'I' for Inactive)
REMARK    1  A    between atoms: N_1  and  C_18
REMARK    2  A    between atoms: C_9  and  C_14
REMARK    3  A    between atoms: C_18  and  C_19
REMARK    4  A    between atoms: C_23  and  N_26
REMARK                            x       y       z     vdW  Elec       q    Type
REMARK                         _______ _______ _______ _____ _____    ______ ____
ROOT
ATOM      1  N   UNL     1      34.675 -20.255 -20.097  0.00  0.00    -0.170 N 
ATOM      2  N   UNL     1      33.356 -20.208 -20.363  0.00  0.00    -0.042 NA
ATOM      3  N   UNL     1      32.724 -20.857 -19.386  0.00  0.00    -0.137 NA
ATOM      4  N   UNL     1      36.099 -21.187 -18.358  0.00  0.00    -0.310 NA
ATOM      5  N   UNL     1      34.751 -22.330 -16.670  0.00  0.00    -0.324 NA
ATOM      6  N   UNL     1      37.087 -22.226 -16.507  0.00  0.00    -0.283 N 
ATOM      7  C   UNL     1      34.921 -20.934 -18.944  0.00  0.00    +0.238 C 
ATOM      8  C   UNL     1      33.666 -21.310 -18.505  0.00  0.00    +0.181 C 
ATOM      9  C   UNL     1      33.600 -22.035 -17.322  0.00  0.00    +0.202 C 
ATOM     10  C   UNL     1      35.912 -21.894 -17.221  0.00  0.00    +0.198 C 
ATOM     11  H   UNL     1      37.966 -21.943 -16.848  0.00  0.00    +0.156 HD
ATOM     12  H   UNL     1      37.026 -22.740 -15.670  0.00  0.00    +0.156 HD
ENDROOT
BRANCH   9  14
ATOM     13  O   UNL     1      31.244 -21.958 -17.351  0.00  0.00    -0.448 OA
ATOM     14  C   UNL     1      32.358 -22.479 -16.771  0.00  0.00    +0.178 C 
ATOM     15  C   UNL     1      32.016 -23.340 -15.755  0.00  0.00    +0.043 C 
ATOM     16  C   UNL     1      30.601 -23.349 -15.707  0.00  0.00    +0.044 C 
ATOM     17  C   UNL     1      30.180 -22.493 -16.698  0.00  0.00    +0.180 C 
ENDBRANCH   9  14
BRANCH   1  18
ATOM     18  C   UNL     1      35.641 -19.622 -21.000  0.00  0.00    +0.145 C 
BRANCH  18  19
ATOM     19  C   UNL     1      34.983 -18.671 -21.941  0.00  0.00    -0.001 C 
ATOM     20  C   UNL     1      34.948 -17.308 -21.646  0.00  0.00    -0.006 C 
ATOM     21  C   UNL     1      34.332 -16.418 -22.527  0.00  0.00    -0.009 C 
ATOM     22  C   UNL     1      34.401 -19.145 -23.117  0.00  0.00    -0.001 C 
ATOM     23  C   UNL     1      33.751 -16.893 -23.703  0.00  0.00    +0.037 C 
ATOM     24  C   UNL     1      33.785 -18.255 -23.999  0.00  0.00    +0.013 C 
ATOM     25  C   UNL     1      34.310 -14.964 -22.186  0.00  0.00    +0.032 C 
BRANCH  23  26
ATOM     26  N   UNL     1      33.124 -16.008 -24.606  0.00  0.00    -0.357 N 
ATOM     27  H   UNL     1      32.523 -15.304 -24.270  0.00  0.00    +0.142 HD
ATOM     28  H   UNL     1      33.286 -16.094 -25.574  0.00  0.00    +0.142 HD
ENDBRANCH  23  26
ENDBRANCH  18  19
ENDBRANCH   1  18
TORSDOF 4
ENDMDL
MODEL 8
REMARK VINA RESULT:     -10.6      5.396     10.177
REMARK  Name = 21874557
REMARK  4 active torsions:
REMARK  status: ('A' for Active; 'I' for Inactive)
REMARK    1  A    between atoms: N_1  and  C_18
REMARK    2  A    between atoms: C_9  and  C_14
REMARK    3  A    between atoms: C_18  and  C_19
REMARK    4  A    between atoms: C_23  and  N_26
REMARK                            x       y       z     vdW  Elec       q    Type
REMARK                         _______ _______ _______ _____ _____    ______ ____
ROOT
ATOM      1  N   UNL     1      33.620 -21.973 -17.983  0.00  0.00    -0.170 N 
ATOM      2  N   UNL     1      34.939 -22.054 -17.725  0.00  0.00    -0.042 NA
ATOM      3  N   UNL     1      35.082 -22.590 -16.515  0.00  0.00    -0.137 NA
ATOM      4  N   UNL     1      31.553 -22.541 -16.832  0.00  0.00    -0.310 NA
ATOM      5  N   UNL     1      32.033 -23.506 -14.639  0.00  0.00    -0.324 NA
ATOM      6  N   UNL     1      29.833 -23.224 -15.399  0.00  0.00    -0.283 N 
ATOM      7  C   UNL     1      32.886 -22.455 -16.944  0.00  0.00    +0.238 C 
ATOM      8  C   UNL     1      33.834 -22.844 -16.018  0.00  0.00    +0.181 C 
ATOM      9  C   UNL     1      33.370 -23.387 -14.826  0.00  0.00    +0.202 C 
ATOM     10  C   UNL     1      31.219 -23.081 -15.638  0.00  0.00    +0.198 C 
ATOM     11  H   UNL     1      29.183 -22.937 -16.080  0.00  0.00    +0.156 HD
ATOM     12  H   UNL     1      29.518 -23.611 -14.549  0.00  0.00    +0.156 HD
ENDROOT
BRANCH   9  14
ATOM     13  O   UNL     1      33.846 -23.557 -12.525  0.00  0.00    -0.448 OA
ATOM     14  C   UNL     1      34.256 -23.823 -13.794  0.00  0.00    +0.178 C 
ATOM     15  C   UNL     1      35.468 -24.471 -13.784  0.00  0.00    +0.043 C 
ATOM     16  C   UNL     1      35.828 -24.613 -12.422  0.00  0.00    +0.044 C 
ATOM     17  C   UNL     1      34.809 -24.041 -11.696  0.00  0.00    +0.180 C 
ENDBRANCH   9  14
BRANCH   1  18
ATOM     18  C   UNL     1      33.141 -21.420 -19.254  0.00  0.00    +0.145 C 
BRANCH  18  19
ATOM     19  C   UNL     1      34.158 -20.539 -19.896  0.00  0.00    -0.001 C 
ATOM     20  C   UNL     1      33.787 -19.687 -20.937  0.00  0.00    -0.006 C 
ATOM     21  C   UNL     1      34.739 -18.863 -21.537  0.00  0.00    -0.009 C 
ATOM     22  C   UNL     1      35.482 -20.568 -19.457  0.00  0.00    -0.001 C 
ATOM     23  C   UNL     1      36.063 -18.892 -21.097  0.00  0.00    +0.037 C 
ATOM     24  C   UNL     1      36.434 -19.744 -20.057  0.00  0.00    +0.013 C 
ATOM     25  C   UNL     1      34.314 -17.960 -22.649  0.00  0.00    +0.032 C 
BRANCH  23  26
ATOM     26  N   UNL     1      37.040 -18.065 -21.692  0.00  0.00    -0.357 N 
ATOM     27  H   UNL     1      37.949 -18.027 -21.315  0.00  0.00    +0.142 HD
ATOM     28  H   UNL     1      36.814 -17.526 -22.484  0.00  0.00    +0.142 HD
ENDBRANCH  23  26
ENDBRANCH  18  19
ENDBRANCH   1  18
TORSDOF 4
ENDMDL
MODEL 9
REMARK VINA RESULT:     -10.4      3.070      8.250
REMARK  Name = 21874557
REMARK  4 active torsions:
REMARK  status: ('A' for Active; 'I' for Inactive)
REMARK    1  A    between atoms: N_1  and  C_18
REMARK    2  A    between atoms: C_9  and  C_14
REMARK    3  A    between atoms: C_18  and  C_19
REMARK    4  A    between atoms: C_23  and  N_26
REMARK                            x       y       z     vdW  Elec       q    Type
REMARK                         _______ _______ _______ _____ _____    ______ ____
ROOT
ATOM      1  N   UNL     1      31.311 -11.973 -21.691  0.00  0.00    -0.170 N 
ATOM      2  N   UNL     1      31.532 -12.571 -20.505  0.00  0.00    -0.042 NA
ATOM      3  N   UNL     1      32.346 -13.603 -20.719  0.00  0.00    -0.137 NA
ATOM      4  N   UNL     1      32.004 -12.309 -24.000  0.00  0.00    -0.310 NA
ATOM      5  N   UNL     1      33.486 -14.244 -24.174  0.00  0.00    -0.324 NA
ATOM      6  N   UNL     1      32.898 -12.978 -26.057  0.00  0.00    -0.283 N 
ATOM      7  C   UNL     1      31.978 -12.608 -22.693  0.00  0.00    +0.238 C 
ATOM      8  C   UNL     1      32.631 -13.644 -22.054  0.00  0.00    +0.181 C 
ATOM      9  C   UNL     1      33.410 -14.483 -22.842  0.00  0.00    +0.202 C 
ATOM     10  C   UNL     1      32.789 -13.188 -24.663  0.00  0.00    +0.198 C 
ATOM     11  H   UNL     1      32.419 -12.230 -26.481  0.00  0.00    +0.156 HD
ATOM     12  H   UNL     1      33.453 -13.580 -26.604  0.00  0.00    +0.156 HD
ENDROOT
BRANCH   9  14
ATOM     13  O   UNL     1      34.649 -16.454 -23.204  0.00  0.00    -0.448 OA
ATOM     14  C   UNL     1      34.131 -15.588 -22.294  0.00  0.00    +0.178 C 
ATOM     15  C   UNL     1      34.434 -15.992 -21.015  0.00  0.00    +0.043 C 
ATOM     16  C   UNL     1      35.186 -17.184 -21.147  0.00  0.00    +0.044 C 
ATOM     17  C   UNL     1      35.290 -17.423 -22.498  0.00  0.00    +0.180 C 
ENDBRANCH   9  14
BRANCH   1  18
ATOM     18  C   UNL     1      30.446 -10.793 -21.782  0.00  0.00    +0.145 C 
BRANCH  18  19
ATOM     19  C   UNL     1      31.070  -9.595 -21.152  0.00  0.00    -0.001 C 
ATOM     20  C   UNL     1      31.725  -8.651 -21.944  0.00  0.00    -0.006 C 
ATOM     21  C   UNL     1      32.309  -7.530 -21.353  0.00  0.00    -0.009 C 
ATOM     22  C   UNL     1      31.000  -9.418 -19.770  0.00  0.00    -0.001 C 
ATOM     23  C   UNL     1      32.237  -7.353 -19.971  0.00  0.00    +0.037 C 
ATOM     24  C   UNL     1      31.583  -8.297 -19.179  0.00  0.00    +0.013 C 
ATOM     25  C   UNL     1      33.004  -6.535 -22.224  0.00  0.00    +0.032 C 
BRANCH  23  26
ATOM     26  N   UNL     1      32.821  -6.225 -19.356  0.00  0.00    -0.357 N 
ATOM     27  H   UNL     1      33.795  -6.191 -19.213  0.00  0.00    +0.142 HD
ATOM     28  H   UNL     1      32.256  -5.472 -19.069  0.00  0.00    +0.142 HD
ENDBRANCH  23  26
ENDBRANCH  18  19
ENDBRANCH   1  18
TORSDOF 4
ENDMDL
