MODEL 1
REMARK VINA RESULT:     -11.7      0.000      0.000
REMARK  Name = 657140
REMARK  9 active torsions:
REMARK  status: ('A' for Active; 'I' for Inactive)
REMARK    1  A    between atoms: C_1  and  N_8
REMARK    2  A    between atoms: C_2  and  O_20
REMARK    3  A    between atoms: C_9  and  C_11
REMARK    4  A    between atoms: C_14  and  N_19
REMARK    5  A    between atoms: O_20  and  C_21
REMARK    6  A    between atoms: C_22  and  C_28
REMARK    7  A    between atoms: C_24  and  C_32
REMARK    8  A    between atoms: C_28  and  O_29
REMARK    9  A    between atoms: C_32  and  O_33
REMARK                            x       y       z     vdW  Elec       q    Type
REMARK                         _______ _______ _______ _____ _____    ______ ____
ROOT
ATOM      1  C   UNL     1      35.616 -24.792 -14.465  0.00  0.00    +0.086 C 
ATOM      2  C   UNL     1      36.479 -23.708 -14.486  0.00  0.00    +0.159 C 
ATOM      3  C   UNL     1      36.089 -26.089 -14.348  0.00  0.00    +0.018 C 
ATOM      4  C   UNL     1      37.852 -23.928 -14.389  0.00  0.00    +0.039 C 
ATOM      5  C   UNL     1      37.463 -26.308 -14.251  0.00  0.00    +0.001 C 
ATOM      6  C   UNL     1      38.345 -25.227 -14.271  0.00  0.00    +0.003 C 
ENDROOT
BRANCH   1   8
ATOM      7  O   UNL     1      33.670 -23.734 -12.445  0.00  0.00    -0.270 OA
ATOM      8  N   UNL     1      34.218 -24.586 -14.561  0.00  0.00    -0.278 N 
ATOM      9  C   UNL     1      33.340 -24.087 -13.589  0.00  0.00    +0.250 C 
ATOM     10  H   UNL     1      33.809 -24.825 -15.425  0.00  0.00    +0.155 HD
BRANCH   9  11
ATOM     11  C   UNL     1      31.940 -24.016 -13.974  0.00  0.00    +0.055 C 
ATOM     12  C   UNL     1      31.549 -23.192 -15.030  0.00  0.00    +0.029 C 
ATOM     13  C   UNL     1      30.988 -24.773 -13.291  0.00  0.00    +0.005 C 
ATOM     14  C   UNL     1      30.206 -23.125 -15.402  0.00  0.00    +0.143 C 
ATOM     15  C   UNL     1      29.646 -24.706 -13.661  0.00  0.00    +0.002 C 
ATOM     16  C   UNL     1      29.255 -23.882 -14.717  0.00  0.00    +0.024 C 
BRANCH  14  19
ATOM     17  O   UNL     1      30.681 -21.849 -17.263  0.00  0.00    -0.126 OA
ATOM     18  O   UNL     1      28.590 -22.010 -16.612  0.00  0.00    -0.126 OA
ATOM     19  N   UNL     1      29.806 -22.288 -16.477  0.00  0.00    +0.058 N 
ENDBRANCH  14  19
ENDBRANCH   9  11
ENDBRANCH   1   8
BRANCH   2  20
ATOM     20  O   UNL     1      36.018 -22.431 -14.600  0.00  0.00    -0.452 OA
BRANCH  20  21
ATOM     21  C   UNL     1      35.941 -21.887 -15.871  0.00  0.00    +0.146 C 
ATOM     22  C   UNL     1      34.807 -21.689 -17.973  0.00  0.00    +0.085 C 
ATOM     23  C   UNL     1      34.884 -22.237 -16.693  0.00  0.00    +0.044 C 
ATOM     24  C   UNL     1      35.788 -20.800 -18.411  0.00  0.00    +0.082 C 
ATOM     25  C   UNL     1      36.924 -21.006 -16.288  0.00  0.00    +0.038 C 
ATOM     26  C   UNL     1      36.846 -20.459 -17.568  0.00  0.00    +0.010 C 
BRANCH  22  28
ATOM     27  O   UNL     1      33.551 -23.161 -19.379  0.00  0.00    -0.245 OA
ATOM     28  C   UNL     1      33.690 -22.065 -18.828  0.00  0.00    +0.338 C 
BRANCH  28  29
ATOM     29  O   UNL     1      32.782 -21.063 -18.967  0.00  0.00    -0.477 OA
ATOM     30  H   UNL     1      33.025 -20.180 -18.770  0.00  0.00    +0.295 HD
ENDBRANCH  28  29
ENDBRANCH  22  28
BRANCH  24  32
ATOM     31  O   UNL     1      35.065 -20.637 -20.686  0.00  0.00    -0.245 OA
ATOM     32  C   UNL     1      35.736 -20.211 -19.742  0.00  0.00    +0.338 C 
BRANCH  32  33
ATOM     33  O   UNL     1      36.525 -19.108 -19.851  0.00  0.00    -0.477 OA
ATOM     34  H   UNL     1      37.353 -19.165 -20.288  0.00  0.00    +0.295 HD
ENDBRANCH  32  33
ENDBRANCH  24  32
ENDBRANCH  20  21
ENDBRANCH   2  20
TORSDOF 9
ENDMDL
MODEL 2
REMARK VINA RESULT:     -11.6      2.641      6.432
REMARK  Name = 657140
REMARK  9 active torsions:
REMARK  status: ('A' for Active; 'I' for Inactive)
REMARK    1  A    between atoms: C_1  and  N_8
REMARK    2  A    between atoms: C_2  and  O_20
REMARK    3  A    between atoms: C_9  and  C_11
REMARK    4  A    between atoms: C_14  and  N_19
REMARK    5  A    between atoms: O_20  and  C_21
REMARK    6  A    between atoms: C_22  and  C_28
REMARK    7  A    between atoms: C_24  and  C_32
REMARK    8  A    between atoms: C_28  and  O_29
REMARK    9  A    between atoms: C_32  and  O_33
REMARK                            x       y       z     vdW  Elec       q    Type
REMARK                         _______ _______ _______ _____ _____    ______ ____
ROOT
ATOM      1  C   UNL     1      32.184 -22.791 -15.764  0.00  0.00    +0.086 C 
ATOM      2  C   UNL     1      33.135 -22.881 -14.761  0.00  0.00    +0.159 C 
ATOM      3  C   UNL     1      30.976 -23.463 -15.675  0.00  0.00    +0.018 C 
ATOM      4  C   UNL     1      32.871 -23.666 -13.639  0.00  0.00    +0.039 C 
ATOM      5  C   UNL     1      30.712 -24.248 -14.553  0.00  0.00    +0.001 C 
ATOM      6  C   UNL     1      31.660 -24.350 -13.534  0.00  0.00    +0.003 C 
ENDROOT
BRANCH   1   8
ATOM      7  O   UNL     1      33.358 -23.536 -18.419  0.00  0.00    -0.270 OA
ATOM      8  N   UNL     1      32.436 -21.996 -16.909  0.00  0.00    -0.278 N 
ATOM      9  C   UNL     1      32.989 -22.385 -18.137  0.00  0.00    +0.250 C 
ATOM     10  H   UNL     1      32.191 -21.046 -16.832  0.00  0.00    +0.155 HD
BRANCH   9  11
ATOM     11  C   UNL     1      33.153 -21.329 -19.122  0.00  0.00    +0.055 C 
ATOM     12  C   UNL     1      34.417 -20.795 -19.369  0.00  0.00    +0.029 C 
ATOM     13  C   UNL     1      32.045 -20.851 -19.823  0.00  0.00    +0.005 C 
ATOM     14  C   UNL     1      34.575 -19.782 -20.316  0.00  0.00    +0.143 C 
ATOM     15  C   UNL     1      32.201 -19.838 -20.769  0.00  0.00    +0.002 C 
ATOM     16  C   UNL     1      33.466 -19.304 -21.016  0.00  0.00    +0.024 C 
BRANCH  14  19
ATOM     17  O   UNL     1      36.661 -19.098 -19.612  0.00  0.00    -0.126 OA
ATOM     18  O   UNL     1      36.165 -18.913 -21.742  0.00  0.00    -0.126 OA
ATOM     19  N   UNL     1      35.862 -19.239 -20.569  0.00  0.00    +0.058 N 
ENDBRANCH  14  19
ENDBRANCH   9  11
ENDBRANCH   1   8
BRANCH   2  20
ATOM     20  O   UNL     1      34.325 -22.221 -14.843  0.00  0.00    -0.452 OA
BRANCH  20  21
ATOM     21  C   UNL     1      35.483 -22.975 -14.770  0.00  0.00    +0.146 C 
ATOM     22  C   UNL     1      36.568 -25.111 -14.798  0.00  0.00    +0.085 C 
ATOM     23  C   UNL     1      35.400 -24.352 -14.870  0.00  0.00    +0.044 C 
ATOM     24  C   UNL     1      37.801 -24.481 -14.627  0.00  0.00    +0.082 C 
ATOM     25  C   UNL     1      36.697 -22.331 -14.601  0.00  0.00    +0.038 C 
ATOM     26  C   UNL     1      37.864 -23.091 -14.529  0.00  0.00    +0.010 C 
BRANCH  22  28
ATOM     27  O   UNL     1      36.283 -27.188 -15.950  0.00  0.00    -0.245 OA
ATOM     28  C   UNL     1      36.468 -26.561 -14.903  0.00  0.00    +0.338 C 
BRANCH  28  29
ATOM     29  O   UNL     1      36.601 -27.179 -13.700  0.00  0.00    -0.477 OA
ATOM     30  H   UNL     1      37.420 -27.149 -13.246  0.00  0.00    +0.295 HD
ENDBRANCH  28  29
ENDBRANCH  22  28
BRANCH  24  32
ATOM     31  O   UNL     1      39.456 -25.822 -13.540  0.00  0.00    -0.245 OA
ATOM     32  C   UNL     1      39.038 -25.245 -14.547  0.00  0.00    +0.338 C 
BRANCH  32  33
ATOM     33  O   UNL     1      39.712 -25.263 -15.728  0.00  0.00    -0.477 OA
ATOM     34  H   UNL     1      39.243 -25.352 -16.535  0.00  0.00    +0.295 HD
ENDBRANCH  32  33
ENDBRANCH  24  32
ENDBRANCH  20  21
ENDBRANCH   2  20
TORSDOF 9
ENDMDL
MODEL 3
REMARK VINA RESULT:     -11.4      2.236      5.710
REMARK  Name = 657140
REMARK  9 active torsions:
REMARK  status: ('A' for Active; 'I' for Inactive)
REMARK    1  A    between atoms: C_1  and  N_8
REMARK    2  A    between atoms: C_2  and  O_20
REMARK    3  A    between atoms: C_9  and  C_11
REMARK    4  A    between atoms: C_14  and  N_19
REMARK    5  A    between atoms: O_20  and  C_21
REMARK    6  A    between atoms: C_22  and  C_28
REMARK    7  A    between atoms: C_24  and  C_32
REMARK    8  A    between atoms: C_28  and  O_29
REMARK    9  A    between atoms: C_32  and  O_33
REMARK                            x       y       z     vdW  Elec       q    Type
REMARK                         _______ _______ _______ _____ _____    ______ ____
ROOT
ATOM      1  C   UNL     1      33.958 -21.945 -17.847  0.00  0.00    +0.086 C 
ATOM      2  C   UNL     1      35.138 -21.582 -17.219  0.00  0.00    +0.159 C 
ATOM      3  C   UNL     1      33.814 -21.852 -19.221  0.00  0.00    +0.018 C 
ATOM      4  C   UNL     1      36.203 -21.112 -17.987  0.00  0.00    +0.039 C 
ATOM      5  C   UNL     1      34.879 -21.381 -19.990  0.00  0.00    +0.001 C 
ATOM      6  C   UNL     1      36.074 -21.012 -19.372  0.00  0.00    +0.003 C 
ENDROOT
BRANCH   1   8
ATOM      7  O   UNL     1      31.046 -21.243 -17.968  0.00  0.00    -0.270 OA
ATOM      8  N   UNL     1      32.868 -22.426 -17.081  0.00  0.00    -0.278 N 
ATOM      9  C   UNL     1      31.515 -22.070 -17.170  0.00  0.00    +0.250 C 
ATOM     10  H   UNL     1      33.090 -23.098 -16.396  0.00  0.00    +0.155 HD
BRANCH   9  11
ATOM     11  C   UNL     1      30.624 -22.720 -16.221  0.00  0.00    +0.055 C 
ATOM     12  C   UNL     1      31.133 -23.241 -15.032  0.00  0.00    +0.029 C 
ATOM     13  C   UNL     1      29.261 -22.820 -16.500  0.00  0.00    +0.005 C 
ATOM     14  C   UNL     1      30.279 -23.862 -14.121  0.00  0.00    +0.143 C 
ATOM     15  C   UNL     1      28.407 -23.442 -15.590  0.00  0.00    +0.002 C 
ATOM     16  C   UNL     1      28.916 -23.963 -14.400  0.00  0.00    +0.024 C 
BRANCH  14  19
ATOM     17  O   UNL     1      32.025 -24.626 -12.823  0.00  0.00    -0.126 OA
ATOM     18  O   UNL     1      30.008 -24.612 -11.957  0.00  0.00    -0.126 OA
ATOM     19  N   UNL     1      30.795 -24.392 -12.909  0.00  0.00    +0.058 N 
ENDBRANCH  14  19
ENDBRANCH   9  11
ENDBRANCH   1   8
BRANCH   2  20
ATOM     20  O   UNL     1      35.286 -21.673 -15.867  0.00  0.00    -0.452 OA
BRANCH  20  21
ATOM     21  C   UNL     1      35.746 -22.873 -15.351  0.00  0.00    +0.146 C 
ATOM     22  C   UNL     1      37.570 -24.282 -14.699  0.00  0.00    +0.085 C 
ATOM     23  C   UNL     1      37.108 -23.074 -15.220  0.00  0.00    +0.044 C 
ATOM     24  C   UNL     1      36.663 -25.271 -14.319  0.00  0.00    +0.082 C 
ATOM     25  C   UNL     1      34.830 -23.841 -14.979  0.00  0.00    +0.038 C 
ATOM     26  C   UNL     1      35.293 -25.050 -14.459  0.00  0.00    +0.010 C 
BRANCH  22  28
ATOM     27  O   UNL     1      39.696 -24.095 -13.618  0.00  0.00    -0.245 OA
ATOM     28  C   UNL     1      39.008 -24.482 -14.566  0.00  0.00    +0.338 C 
BRANCH  28  29
ATOM     29  O   UNL     1      39.537 -25.158 -15.620  0.00  0.00    -0.477 OA
ATOM     30  H   UNL     1      40.390 -24.937 -15.938  0.00  0.00    +0.295 HD
ENDBRANCH  28  29
ENDBRANCH  22  28
BRANCH  24  32
ATOM     31  O   UNL     1      37.788 -27.382 -14.380  0.00  0.00    -0.245 OA
ATOM     32  C   UNL     1      37.114 -26.543 -13.773  0.00  0.00    +0.338 C 
BRANCH  32  33
ATOM     33  O   UNL     1      36.709 -26.728 -12.488  0.00  0.00    -0.477 OA
ATOM     34  H   UNL     1      36.426 -25.997 -11.976  0.00  0.00    +0.295 HD
ENDBRANCH  32  33
ENDBRANCH  24  32
ENDBRANCH  20  21
ENDBRANCH   2  20
TORSDOF 9
ENDMDL
MODEL 4
REMARK VINA RESULT:     -11.3      2.350      5.478
REMARK  Name = 657140
REMARK  9 active torsions:
REMARK  status: ('A' for Active; 'I' for Inactive)
REMARK    1  A    between atoms: C_1  and  N_8
REMARK    2  A    between atoms: C_2  and  O_20
REMARK    3  A    between atoms: C_9  and  C_11
REMARK    4  A    between atoms: C_14  and  N_19
REMARK    5  A    between atoms: O_20  and  C_21
REMARK    6  A    between atoms: C_22  and  C_28
REMARK    7  A    between atoms: C_24  and  C_32
REMARK    8  A    between atoms: C_28  and  O_29
REMARK    9  A    between atoms: C_32  and  O_33
REMARK                            x       y       z     vdW  Elec       q    Type
REMARK                         _______ _______ _______ _____ _____    ______ ____
ROOT
ATOM      1  C   UNL     1      33.845 -21.998 -17.763  0.00  0.00    +0.086 C 
ATOM      2  C   UNL     1      35.062 -21.749 -17.150  0.00  0.00    +0.159 C 
ATOM      3  C   UNL     1      33.653 -21.752 -19.113  0.00  0.00    +0.018 C 
ATOM      4  C   UNL     1      36.115 -21.237 -17.908  0.00  0.00    +0.039 C 
ATOM      5  C   UNL     1      34.706 -21.240 -19.871  0.00  0.00    +0.001 C 
ATOM      6  C   UNL     1      35.938 -20.983 -19.268  0.00  0.00    +0.003 C 
ENDROOT
BRANCH   1   8
ATOM      7  O   UNL     1      30.922 -21.340 -17.854  0.00  0.00    -0.270 OA
ATOM      8  N   UNL     1      32.765 -22.519 -17.008  0.00  0.00    -0.278 N 
ATOM      9  C   UNL     1      31.407 -22.182 -17.081  0.00  0.00    +0.250 C 
ATOM     10  H   UNL     1      33.001 -23.207 -16.344  0.00  0.00    +0.155 HD
BRANCH   9  11
ATOM     11  C   UNL     1      30.531 -22.874 -16.149  0.00  0.00    +0.055 C 
ATOM     12  C   UNL     1      31.034 -23.340 -14.935  0.00  0.00    +0.029 C 
ATOM     13  C   UNL     1      29.187 -23.068 -16.468  0.00  0.00    +0.005 C 
ATOM     14  C   UNL     1      30.193 -24.002 -14.039  0.00  0.00    +0.143 C 
ATOM     15  C   UNL     1      28.346 -23.730 -15.573  0.00  0.00    +0.002 C 
ATOM     16  C   UNL     1      28.850 -24.197 -14.359  0.00  0.00    +0.024 C 
BRANCH  14  19
ATOM     17  O   UNL     1      29.912 -24.655 -11.845  0.00  0.00    -0.126 OA
ATOM     18  O   UNL     1      31.934 -24.704 -12.699  0.00  0.00    -0.126 OA
ATOM     19  N   UNL     1      30.704 -24.476 -12.802  0.00  0.00    +0.058 N 
ENDBRANCH  14  19
ENDBRANCH   9  11
ENDBRANCH   1   8
BRANCH   2  20
ATOM     20  O   UNL     1      35.257 -21.991 -15.823  0.00  0.00    -0.452 OA
BRANCH  20  21
ATOM     21  C   UNL     1      36.275 -22.861 -15.473  0.00  0.00    +0.146 C 
ATOM     22  C   UNL     1      36.985 -25.026 -14.732  0.00  0.00    +0.085 C 
ATOM     23  C   UNL     1      35.958 -24.151 -15.084  0.00  0.00    +0.044 C 
ATOM     24  C   UNL     1      38.312 -24.599 -14.774  0.00  0.00    +0.082 C 
ATOM     25  C   UNL     1      37.585 -22.418 -15.521  0.00  0.00    +0.038 C 
ATOM     26  C   UNL     1      38.612 -23.295 -15.168  0.00  0.00    +0.010 C 
BRANCH  22  28
ATOM     27  O   UNL     1      36.490 -27.339 -15.089  0.00  0.00    -0.245 OA
ATOM     28  C   UNL     1      36.639 -26.382 -14.325  0.00  0.00    +0.338 C 
BRANCH  28  29
ATOM     29  O   UNL     1      36.490 -26.497 -12.978  0.00  0.00    -0.477 OA
ATOM     30  H   UNL     1      37.100 -27.006 -12.482  0.00  0.00    +0.295 HD
ENDBRANCH  28  29
ENDBRANCH  22  28
BRANCH  24  32
ATOM     31  O   UNL     1      39.574 -25.998 -13.300  0.00  0.00    -0.245 OA
ATOM     32  C   UNL     1      39.406 -25.489 -14.412  0.00  0.00    +0.338 C 
BRANCH  32  33
ATOM     33  O   UNL     1      40.256 -25.714 -15.450  0.00  0.00    -0.477 OA
ATOM     34  H   UNL     1      40.337 -25.080 -16.135  0.00  0.00    +0.295 HD
ENDBRANCH  32  33
ENDBRANCH  24  32
ENDBRANCH  20  21
ENDBRANCH   2  20
TORSDOF 9
ENDMDL
MODEL 5
REMARK VINA RESULT:     -11.2      2.900      7.401
REMARK  Name = 657140
REMARK  9 active torsions:
REMARK  status: ('A' for Active; 'I' for Inactive)
REMARK    1  A    between atoms: C_1  and  N_8
REMARK    2  A    between atoms: C_2  and  O_20
REMARK    3  A    between atoms: C_9  and  C_11
REMARK    4  A    between atoms: C_14  and  N_19
REMARK    5  A    between atoms: O_20  and  C_21
REMARK    6  A    between atoms: C_22  and  C_28
REMARK    7  A    between atoms: C_24  and  C_32
REMARK    8  A    between atoms: C_28  and  O_29
REMARK    9  A    between atoms: C_32  and  O_33
REMARK                            x       y       z     vdW  Elec       q    Type
REMARK                         _______ _______ _______ _____ _____    ______ ____
ROOT
ATOM      1  C   UNL     1      32.393 -22.294 -16.992  0.00  0.00    +0.086 C 
ATOM      2  C   UNL     1      32.964 -23.330 -16.272  0.00  0.00    +0.159 C 
ATOM      3  C   UNL     1      31.054 -21.969 -16.851  0.00  0.00    +0.018 C 
ATOM      4  C   UNL     1      32.174 -24.062 -15.387  0.00  0.00    +0.039 C 
ATOM      5  C   UNL     1      30.263 -22.701 -15.966  0.00  0.00    +0.001 C 
ATOM      6  C   UNL     1      30.824 -23.749 -15.233  0.00  0.00    +0.003 C 
ENDROOT
BRANCH   1   8
ATOM      7  O   UNL     1      31.917 -21.597 -19.869  0.00  0.00    -0.270 OA
ATOM      8  N   UNL     1      33.183 -21.539 -17.894  0.00  0.00    -0.278 N 
ATOM      9  C   UNL     1      32.923 -21.235 -19.238  0.00  0.00    +0.250 C 
ATOM     10  H   UNL     1      34.025 -21.182 -17.530  0.00  0.00    +0.155 HD
BRANCH   9  11
ATOM     11  C   UNL     1      33.944 -20.457 -19.921  0.00  0.00    +0.055 C 
ATOM     12  C   UNL     1      33.591 -19.628 -20.986  0.00  0.00    +0.029 C 
ATOM     13  C   UNL     1      35.274 -20.537 -19.510  0.00  0.00    +0.005 C 
ATOM     14  C   UNL     1      34.571 -18.879 -21.641  0.00  0.00    +0.143 C 
ATOM     15  C   UNL     1      36.253 -19.790 -20.164  0.00  0.00    +0.002 C 
ATOM     16  C   UNL     1      35.901 -18.961 -21.229  0.00  0.00    +0.024 C 
BRANCH  14  19
ATOM     17  O   UNL     1      34.607 -16.842 -22.721  0.00  0.00    -0.126 OA
ATOM     18  O   UNL     1      33.514 -18.501 -23.655  0.00  0.00    -0.126 OA
ATOM     19  N   UNL     1      34.213 -18.034 -22.724  0.00  0.00    +0.058 N 
ENDBRANCH  14  19
ENDBRANCH   9  11
ENDBRANCH   1   8
BRANCH   2  20
ATOM     20  O   UNL     1      34.282 -23.652 -16.406  0.00  0.00    -0.452 OA
BRANCH  20  21
ATOM     21  C   UNL     1      35.053 -23.690 -15.257  0.00  0.00    +0.146 C 
ATOM     22  C   UNL     1      36.504 -24.890 -13.776  0.00  0.00    +0.085 C 
ATOM     23  C   UNL     1      35.727 -24.854 -14.933  0.00  0.00    +0.044 C 
ATOM     24  C   UNL     1      36.596 -23.762 -12.961  0.00  0.00    +0.082 C 
ATOM     25  C   UNL     1      35.132 -22.560 -14.462  0.00  0.00    +0.038 C 
ATOM     26  C   UNL     1      35.910 -22.597 -13.304  0.00  0.00    +0.010 C 
BRANCH  22  28
ATOM     27  O   UNL     1      38.234 -26.527 -13.999  0.00  0.00    -0.245 OA
ATOM     28  C   UNL     1      37.209 -26.122 -13.445  0.00  0.00    +0.338 C 
BRANCH  28  29
ATOM     29  O   UNL     1      36.610 -26.806 -12.434  0.00  0.00    -0.477 OA
ATOM     30  H   UNL     1      36.342 -26.355 -11.658  0.00  0.00    +0.295 HD
ENDBRANCH  28  29
ENDBRANCH  22  28
BRANCH  24  32
ATOM     31  O   UNL     1      37.043 -24.231 -10.658  0.00  0.00    -0.245 OA
ATOM     32  C   UNL     1      37.399 -23.768 -11.746  0.00  0.00    +0.338 C 
BRANCH  32  33
ATOM     33  O   UNL     1      38.619 -23.196 -11.929  0.00  0.00    -0.477 OA
ATOM     34  H   UNL     1      39.374 -23.557 -11.506  0.00  0.00    +0.295 HD
ENDBRANCH  32  33
ENDBRANCH  24  32
ENDBRANCH  20  21
ENDBRANCH   2  20
TORSDOF 9
ENDMDL
MODEL 6
REMARK VINA RESULT:     -11.2      2.125      3.720
REMARK  Name = 657140
REMARK  9 active torsions:
REMARK  status: ('A' for Active; 'I' for Inactive)
REMARK    1  A    between atoms: C_1  and  N_8
REMARK    2  A    between atoms: C_2  and  O_20
REMARK    3  A    between atoms: C_9  and  C_11
REMARK    4  A    between atoms: C_14  and  N_19
REMARK    5  A    between atoms: O_20  and  C_21
REMARK    6  A    between atoms: C_22  and  C_28
REMARK    7  A    between atoms: C_24  and  C_32
REMARK    8  A    between atoms: C_28  and  O_29
REMARK    9  A    between atoms: C_32  and  O_33
REMARK                            x       y       z     vdW  Elec       q    Type
REMARK                         _______ _______ _______ _____ _____    ______ ____
ROOT
ATOM      1  C   UNL     1      34.289 -22.363 -16.260  0.00  0.00    +0.086 C 
ATOM      2  C   UNL     1      34.703 -21.991 -17.528  0.00  0.00    +0.159 C 
ATOM      3  C   UNL     1      35.150 -22.310 -15.175  0.00  0.00    +0.018 C 
ATOM      4  C   UNL     1      36.014 -21.556 -17.718  0.00  0.00    +0.039 C 
ATOM      5  C   UNL     1      36.461 -21.875 -15.365  0.00  0.00    +0.001 C 
ATOM      6  C   UNL     1      36.893 -21.497 -16.637  0.00  0.00    +0.003 C 
ENDROOT
BRANCH   1   8
ATOM      7  O   UNL     1      32.769 -22.792 -13.712  0.00  0.00    -0.270 OA
ATOM      8  N   UNL     1      32.960 -22.806 -16.050  0.00  0.00    -0.278 N 
ATOM      9  C   UNL     1      32.284 -22.995 -14.836  0.00  0.00    +0.250 C 
ATOM     10  H   UNL     1      32.444 -23.010 -16.864  0.00  0.00    +0.155 HD
BRANCH   9  11
ATOM     11  C   UNL     1      30.921 -23.491 -14.940  0.00  0.00    +0.055 C 
ATOM     12  C   UNL     1      29.998 -22.830 -15.750  0.00  0.00    +0.029 C 
ATOM     13  C   UNL     1      30.537 -24.629 -14.231  0.00  0.00    +0.005 C 
ATOM     14  C   UNL     1      28.691 -23.307 -15.852  0.00  0.00    +0.143 C 
ATOM     15  C   UNL     1      29.230 -25.106 -14.331  0.00  0.00    +0.002 C 
ATOM     16  C   UNL     1      28.307 -24.444 -15.141  0.00  0.00    +0.024 C 
BRANCH  14  19
ATOM     17  O   UNL     1      27.202 -23.268 -17.612  0.00  0.00    -0.126 OA
ATOM     18  O   UNL     1      27.495 -21.428 -16.451  0.00  0.00    -0.126 OA
ATOM     19  N   UNL     1      27.751 -22.636 -16.677  0.00  0.00    +0.058 N 
ENDBRANCH  14  19
ENDBRANCH   9  11
ENDBRANCH   1   8
BRANCH   2  20
ATOM     20  O   UNL     1      33.860 -22.040 -18.598  0.00  0.00    -0.452 OA
BRANCH  20  21
ATOM     21  C   UNL     1      33.928 -21.006 -19.516  0.00  0.00    +0.146 C 
ATOM     22  C   UNL     1      35.216 -19.362 -20.690  0.00  0.00    +0.085 C 
ATOM     23  C   UNL     1      35.148 -20.403 -19.765  0.00  0.00    +0.044 C 
ATOM     24  C   UNL     1      34.063 -18.941 -21.353  0.00  0.00    +0.082 C 
ATOM     25  C   UNL     1      32.773 -20.603 -20.164  0.00  0.00    +0.038 C 
ATOM     26  C   UNL     1      32.842 -19.562 -21.089  0.00  0.00    +0.010 C 
BRANCH  22  28
ATOM     27  O   UNL     1      36.987 -18.517 -22.059  0.00  0.00    -0.245 OA
ATOM     28  C   UNL     1      36.506 -18.734 -20.943  0.00  0.00    +0.338 C 
BRANCH  28  29
ATOM     29  O   UNL     1      37.153 -18.397 -19.796  0.00  0.00    -0.477 OA
ATOM     30  H   UNL     1      37.383 -19.061 -19.176  0.00  0.00    +0.295 HD
ENDBRANCH  28  29
ENDBRANCH  22  28
BRANCH  24  32
ATOM     31  O   UNL     1      33.851 -17.968 -23.528  0.00  0.00    -0.245 OA
ATOM     32  C   UNL     1      34.101 -17.857 -22.324  0.00  0.00    +0.338 C 
BRANCH  32  33
ATOM     33  O   UNL     1      34.449 -16.668 -21.761  0.00  0.00    -0.477 OA
ATOM     34  H   UNL     1      34.211 -15.864 -22.179  0.00  0.00    +0.295 HD
ENDBRANCH  32  33
ENDBRANCH  24  32
ENDBRANCH  20  21
ENDBRANCH   2  20
TORSDOF 9
ENDMDL
MODEL 7
REMARK VINA RESULT:     -11.2      2.516      7.221
REMARK  Name = 657140
REMARK  9 active torsions:
REMARK  status: ('A' for Active; 'I' for Inactive)
REMARK    1  A    between atoms: C_1  and  N_8
REMARK    2  A    between atoms: C_2  and  O_20
REMARK    3  A    between atoms: C_9  and  C_11
REMARK    4  A    between atoms: C_14  and  N_19
REMARK    5  A    between atoms: O_20  and  C_21
REMARK    6  A    between atoms: C_22  and  C_28
REMARK    7  A    between atoms: C_24  and  C_32
REMARK    8  A    between atoms: C_28  and  O_29
REMARK    9  A    between atoms: C_32  and  O_33
REMARK                            x       y       z     vdW  Elec       q    Type
REMARK                         _______ _______ _______ _____ _____    ______ ____
ROOT
ATOM      1  C   UNL     1      31.210 -22.844 -16.031  0.00  0.00    +0.086 C 
ATOM      2  C   UNL     1      31.985 -23.071 -14.905  0.00  0.00    +0.159 C 
ATOM      3  C   UNL     1      29.931 -23.364 -16.143  0.00  0.00    +0.018 C 
ATOM      4  C   UNL     1      31.466 -23.841 -13.864  0.00  0.00    +0.039 C 
ATOM      5  C   UNL     1      29.412 -24.133 -15.102  0.00  0.00    +0.001 C 
ATOM      6  C   UNL     1      30.180 -24.372 -13.962  0.00  0.00    +0.003 C 
ENDROOT
BRANCH   1   8
ATOM      7  O   UNL     1      33.234 -23.526 -18.135  0.00  0.00    -0.270 OA
ATOM      8  N   UNL     1      31.721 -22.064 -17.097  0.00  0.00    -0.278 N 
ATOM      9  C   UNL     1      32.672 -22.422 -18.063  0.00  0.00    +0.250 C 
ATOM     10  H   UNL     1      31.363 -21.149 -17.167  0.00  0.00    +0.155 HD
BRANCH   9  11
ATOM     11  C   UNL     1      33.021 -21.387 -19.023  0.00  0.00    +0.055 C 
ATOM     12  C   UNL     1      34.340 -20.945 -19.122  0.00  0.00    +0.029 C 
ATOM     13  C   UNL     1      32.038 -20.839 -19.846  0.00  0.00    +0.005 C 
ATOM     14  C   UNL     1      34.676 -19.953 -20.045  0.00  0.00    +0.143 C 
ATOM     15  C   UNL     1      32.372 -19.847 -20.768  0.00  0.00    +0.002 C 
ATOM     16  C   UNL     1      33.691 -19.405 -20.867  0.00  0.00    +0.024 C 
BRANCH  14  19
ATOM     17  O   UNL     1      36.742 -19.509 -19.123  0.00  0.00    -0.126 OA
ATOM     18  O   UNL     1      36.445 -19.111 -21.261  0.00  0.00    -0.126 OA
ATOM     19  N   UNL     1      36.018 -19.503 -20.148  0.00  0.00    +0.058 N 
ENDBRANCH  14  19
ENDBRANCH   9  11
ENDBRANCH   1   8
BRANCH   2  20
ATOM     20  O   UNL     1      33.243 -22.561 -14.789  0.00  0.00    -0.452 OA
BRANCH  20  21
ATOM     21  C   UNL     1      34.199 -23.347 -14.166  0.00  0.00    +0.146 C 
ATOM     22  C   UNL     1      35.363 -24.004 -12.178  0.00  0.00    +0.085 C 
ATOM     23  C   UNL     1      34.401 -23.212 -12.804  0.00  0.00    +0.044 C 
ATOM     24  C   UNL     1      36.108 -24.918 -12.924  0.00  0.00    +0.082 C 
ATOM     25  C   UNL     1      34.927 -24.248 -14.923  0.00  0.00    +0.038 C 
ATOM     26  C   UNL     1      35.889 -25.039 -14.296  0.00  0.00    +0.010 C 
BRANCH  22  28
ATOM     27  O   UNL     1      36.291 -23.009 -10.212  0.00  0.00    -0.245 OA
ATOM     28  C   UNL     1      35.567 -23.853 -10.744  0.00  0.00    +0.338 C 
BRANCH  28  29
ATOM     29  O   UNL     1      34.858 -24.761 -10.021  0.00  0.00    -0.477 OA
ATOM     30  H   UNL     1      34.178 -24.474  -9.445  0.00  0.00    +0.295 HD
ENDBRANCH  28  29
ENDBRANCH  22  28
BRANCH  24  32
ATOM     31  O   UNL     1      36.955 -26.438 -11.282  0.00  0.00    -0.245 OA
ATOM     32  C   UNL     1      37.120 -25.759 -12.300  0.00  0.00    +0.338 C 
BRANCH  32  33
ATOM     33  O   UNL     1      38.305 -25.724 -12.966  0.00  0.00    -0.477 OA
ATOM     34  H   UNL     1      38.954 -25.090 -12.735  0.00  0.00    +0.295 HD
ENDBRANCH  32  33
ENDBRANCH  24  32
ENDBRANCH  20  21
ENDBRANCH   2  20
TORSDOF 9
ENDMDL
MODEL 8
REMARK VINA RESULT:     -11.1      2.316      5.184
REMARK  Name = 657140
REMARK  9 active torsions:
REMARK  status: ('A' for Active; 'I' for Inactive)
REMARK    1  A    between atoms: C_1  and  N_8
REMARK    2  A    between atoms: C_2  and  O_20
REMARK    3  A    between atoms: C_9  and  C_11
REMARK    4  A    between atoms: C_14  and  N_19
REMARK    5  A    between atoms: O_20  and  C_21
REMARK    6  A    between atoms: C_22  and  C_28
REMARK    7  A    between atoms: C_24  and  C_32
REMARK    8  A    between atoms: C_28  and  O_29
REMARK    9  A    between atoms: C_32  and  O_33
REMARK                            x       y       z     vdW  Elec       q    Type
REMARK                         _______ _______ _______ _____ _____    ______ ____
ROOT
ATOM      1  C   UNL     1      33.486 -21.989 -17.827  0.00  0.00    +0.086 C 
ATOM      2  C   UNL     1      34.691 -22.027 -17.145  0.00  0.00    +0.159 C 
ATOM      3  C   UNL     1      33.393 -21.447 -19.099  0.00  0.00    +0.018 C 
ATOM      4  C   UNL     1      35.834 -21.506 -17.751  0.00  0.00    +0.039 C 
ATOM      5  C   UNL     1      34.536 -20.927 -19.705  0.00  0.00    +0.001 C 
ATOM      6  C   UNL     1      35.758 -20.957 -19.031  0.00  0.00    +0.003 C 
ENDROOT
BRANCH   1   8
ATOM      7  O   UNL     1      32.666 -22.093 -14.946  0.00  0.00    -0.270 OA
ATOM      8  N   UNL     1      32.315 -22.514 -17.227  0.00  0.00    -0.278 N 
ATOM      9  C   UNL     1      31.969 -22.543 -15.869  0.00  0.00    +0.250 C 
ATOM     10  H   UNL     1      31.660 -22.912 -17.845  0.00  0.00    +0.155 HD
BRANCH   9  11
ATOM     11  C   UNL     1      30.701 -23.181 -15.551  0.00  0.00    +0.055 C 
ATOM     12  C   UNL     1      29.519 -22.697 -16.110  0.00  0.00    +0.029 C 
ATOM     13  C   UNL     1      30.668 -24.277 -14.689  0.00  0.00    +0.005 C 
ATOM     14  C   UNL     1      28.302 -23.310 -15.807  0.00  0.00    +0.143 C 
ATOM     15  C   UNL     1      29.452 -24.889 -14.384  0.00  0.00    +0.002 C 
ATOM     16  C   UNL     1      28.270 -24.405 -14.944  0.00  0.00    +0.024 C 
BRANCH  14  19
ATOM     17  O   UNL     1      26.246 -22.281 -15.629  0.00  0.00    -0.126 OA
ATOM     18  O   UNL     1      26.917 -22.939 -17.613  0.00  0.00    -0.126 OA
ATOM     19  N   UNL     1      27.098 -22.820 -16.377  0.00  0.00    +0.058 N 
ENDBRANCH  14  19
ENDBRANCH   9  11
ENDBRANCH   1   8
BRANCH   2  20
ATOM     20  O   UNL     1      34.788 -22.560 -15.895  0.00  0.00    -0.452 OA
BRANCH  20  21
ATOM     21  C   UNL     1      36.002 -23.113 -15.526  0.00  0.00    +0.146 C 
ATOM     22  C   UNL     1      37.246 -24.912 -14.546  0.00  0.00    +0.085 C 
ATOM     23  C   UNL     1      36.022 -24.355 -14.917  0.00  0.00    +0.044 C 
ATOM     24  C   UNL     1      38.430 -24.217 -14.790  0.00  0.00    +0.082 C 
ATOM     25  C   UNL     1      37.167 -22.409 -15.777  0.00  0.00    +0.038 C 
ATOM     26  C   UNL     1      38.391 -22.966 -15.406  0.00  0.00    +0.010 C 
BRANCH  22  28
ATOM     27  O   UNL     1      37.783 -27.235 -14.365  0.00  0.00    -0.245 OA
ATOM     28  C   UNL     1      37.253 -26.220 -13.906  0.00  0.00    +0.338 C 
BRANCH  28  29
ATOM     29  O   UNL     1      36.600 -26.218 -12.713  0.00  0.00    -0.477 OA
ATOM     30  H   UNL     1      36.972 -26.657 -11.975  0.00  0.00    +0.295 HD
ENDBRANCH  28  29
ENDBRANCH  22  28
BRANCH  24  32
ATOM     31  O   UNL     1      40.362 -24.470 -13.401  0.00  0.00    -0.245 OA
ATOM     32  C   UNL     1      39.724 -24.771 -14.415  0.00  0.00    +0.338 C 
BRANCH  32  33
ATOM     33  O   UNL     1      40.179 -25.681 -15.317  0.00  0.00    -0.477 OA
ATOM     34  H   UNL     1      41.096 -25.744 -15.497  0.00  0.00    +0.295 HD
ENDBRANCH  32  33
ENDBRANCH  24  32
ENDBRANCH  20  21
ENDBRANCH   2  20
TORSDOF 9
ENDMDL
MODEL 9
REMARK VINA RESULT:     -11.1      2.195      5.591
REMARK  Name = 657140
REMARK  9 active torsions:
REMARK  status: ('A' for Active; 'I' for Inactive)
REMARK    1  A    between atoms: C_1  and  N_8
REMARK    2  A    between atoms: C_2  and  O_20
REMARK    3  A    between atoms: C_9  and  C_11
REMARK    4  A    between atoms: C_14  and  N_19
REMARK    5  A    between atoms: O_20  and  C_21
REMARK    6  A    between atoms: C_22  and  C_28
REMARK    7  A    between atoms: C_24  and  C_32
REMARK    8  A    between atoms: C_28  and  O_29
REMARK    9  A    between atoms: C_32  and  O_33
REMARK                            x       y       z     vdW  Elec       q    Type
REMARK                         _______ _______ _______ _____ _____    ______ ____
ROOT
ATOM      1  C   UNL     1      34.116 -21.816 -17.894  0.00  0.00    +0.086 C 
ATOM      2  C   UNL     1      35.291 -21.509 -17.229  0.00  0.00    +0.159 C 
ATOM      3  C   UNL     1      34.013 -21.695 -19.270  0.00  0.00    +0.018 C 
ATOM      4  C   UNL     1      36.394 -21.066 -17.960  0.00  0.00    +0.039 C 
ATOM      5  C   UNL     1      35.115 -21.253 -20.002  0.00  0.00    +0.001 C 
ATOM      6  C   UNL     1      36.306 -20.939 -19.346  0.00  0.00    +0.003 C 
ENDROOT
BRANCH   1   8
ATOM      7  O   UNL     1      31.201 -21.232 -18.278  0.00  0.00    -0.270 OA
ATOM      8  N   UNL     1      32.988 -22.268 -17.166  0.00  0.00    -0.278 N 
ATOM      9  C   UNL     1      31.635 -21.969 -17.379  0.00  0.00    +0.250 C 
ATOM     10  H   UNL     1      33.180 -22.870 -16.411  0.00  0.00    +0.155 HD
BRANCH   9  11
ATOM     11  C   UNL     1      30.698 -22.566 -16.440  0.00  0.00    +0.055 C 
ATOM     12  C   UNL     1      29.347 -22.222 -16.491  0.00  0.00    +0.029 C 
ATOM     13  C   UNL     1      31.150 -23.482 -15.492  0.00  0.00    +0.005 C 
ATOM     14  C   UNL     1      28.448 -22.796 -15.592  0.00  0.00    +0.143 C 
ATOM     15  C   UNL     1      30.251 -24.056 -14.592  0.00  0.00    +0.002 C 
ATOM     16  C   UNL     1      28.900 -23.713 -14.642  0.00  0.00    +0.024 C 
BRANCH  14  19
ATOM     17  O   UNL     1      26.511 -22.031 -14.601  0.00  0.00    -0.126 OA
ATOM     18  O   UNL     1      26.454 -22.570 -16.728  0.00  0.00    -0.126 OA
ATOM     19  N   UNL     1      27.072 -22.449 -15.643  0.00  0.00    +0.058 N 
ENDBRANCH  14  19
ENDBRANCH   9  11
ENDBRANCH   1   8
BRANCH   2  20
ATOM     20  O   UNL     1      35.399 -21.627 -15.875  0.00  0.00    -0.452 OA
BRANCH  20  21
ATOM     21  C   UNL     1      35.846 -22.837 -15.371  0.00  0.00    +0.146 C 
ATOM     22  C   UNL     1      37.655 -24.276 -14.741  0.00  0.00    +0.085 C 
ATOM     23  C   UNL     1      37.206 -23.057 -15.250  0.00  0.00    +0.044 C 
ATOM     24  C   UNL     1      36.736 -25.254 -14.361  0.00  0.00    +0.082 C 
ATOM     25  C   UNL     1      34.919 -23.795 -14.999  0.00  0.00    +0.038 C 
ATOM     26  C   UNL     1      35.368 -25.013 -14.490  0.00  0.00    +0.010 C 
BRANCH  22  28
ATOM     27  O   UNL     1      39.786 -24.145 -13.662  0.00  0.00    -0.245 OA
ATOM     28  C   UNL     1      39.090 -24.496 -14.619  0.00  0.00    +0.338 C 
BRANCH  28  29
ATOM     29  O   UNL     1      39.608 -25.148 -15.694  0.00  0.00    -0.477 OA
ATOM     30  H   UNL     1      40.475 -24.950 -15.988  0.00  0.00    +0.295 HD
ENDBRANCH  28  29
ENDBRANCH  22  28
BRANCH  24  32
ATOM     31  O   UNL     1      37.895 -27.346 -14.415  0.00  0.00    -0.245 OA
ATOM     32  C   UNL     1      37.173 -26.536 -13.827  0.00  0.00    +0.338 C 
BRANCH  32  33
ATOM     33  O   UNL     1      36.693 -26.766 -12.575  0.00  0.00    -0.477 OA
ATOM     34  H   UNL     1      35.775 -26.692 -12.404  0.00  0.00    +0.295 HD
ENDBRANCH  32  33
ENDBRANCH  24  32
ENDBRANCH  20  21
ENDBRANCH   2  20
TORSDOF 9
ENDMDL
