MODEL 1
REMARK VINA RESULT:     -11.4      0.000      0.000
REMARK  Name = 24865390
REMARK  3 active torsions:
REMARK  status: ('A' for Active; 'I' for Inactive)
REMARK    1  A    between atoms: N_1  and  C_10
REMARK    2  A    between atoms: C_7  and  C_17
REMARK    3  A    between atoms: C_17  and  C_18
REMARK                            x       y       z     vdW  Elec       q    Type
REMARK                         _______ _______ _______ _____ _____    ______ ____
ROOT
ATOM      1  N   UNL     1      34.251 -23.149 -15.379  0.00  0.00    -0.202 N 
ATOM      2  N   UNL     1      34.282 -22.758 -16.667  0.00  0.00    -0.185 NA
ATOM      3  N   UNL     1      32.653 -23.540 -13.602  0.00  0.00    -0.232 NA
ATOM      4  N   UNL     1      30.367 -23.096 -14.330  0.00  0.00    -0.234 NA
ATOM      5  C   UNL     1      32.994 -23.189 -14.852  0.00  0.00    +0.136 C 
ATOM      6  C   UNL     1      32.141 -22.796 -15.869  0.00  0.00    +0.146 C 
ATOM      7  C   UNL     1      32.994 -22.544 -16.959  0.00  0.00    +0.072 C 
ATOM      8  C   UNL     1      30.782 -22.755 -15.574  0.00  0.00    +0.111 C 
ATOM      9  C   UNL     1      31.315 -23.462 -13.435  0.00  0.00    +0.252 C 
ATOM     10  N   UNL     1      29.840 -22.367 -16.543  0.00  0.00    -0.346 N 
ATOM     11  H   UNL     1      28.882 -22.345 -16.317  0.00  0.00    +0.143 HD
ATOM     12  H   UNL     1      30.138 -22.119 -17.447  0.00  0.00    +0.143 HD
ENDROOT
BRANCH   1  13
ATOM     13  C   UNL     1      35.565 -23.495 -14.659  0.00  0.00    +0.081 C 
ATOM     14  C   UNL     1      36.751 -22.840 -15.400  0.00  0.00    +0.022 C 
ATOM     15  C   UNL     1      35.760 -25.026 -14.642  0.00  0.00    +0.022 C 
ATOM     16  C   UNL     1      35.620 -23.010 -13.192  0.00  0.00    +0.022 C 
ENDBRANCH   1  13
BRANCH   7  17
ATOM     17  C   UNL     1      32.629 -22.094 -18.314  0.00  0.00    +0.070 C 
BRANCH  17  18
ATOM     18  C   UNL     1      33.711 -21.294 -19.027  0.00  0.00    -0.017 C 
ATOM     19  C   UNL     1      33.364 -20.399 -20.039  0.00  0.00    -0.008 C 
ATOM     20  C   UNL     1      35.049 -21.456 -18.670  0.00  0.00    -0.004 C 
ATOM     21  C   UNL     1      34.354 -19.667 -20.693  0.00  0.00    -0.022 C 
ATOM     22  C   UNL     1      36.040 -20.724 -19.322  0.00  0.00    -0.001 C 
ATOM     23  C   UNL     1      35.693 -19.829 -20.334  0.00  0.00    -0.004 C 
ATOM     24  C   UNL     1      33.984 -18.710 -21.776  0.00  0.00    +0.031 C 
ENDBRANCH  17  18
ENDBRANCH   7  17
TORSDOF 3
ENDMDL
MODEL 2
REMARK VINA RESULT:     -11.0      1.585      5.729
REMARK  Name = 24865390
REMARK  3 active torsions:
REMARK  status: ('A' for Active; 'I' for Inactive)
REMARK    1  A    between atoms: N_1  and  C_10
REMARK    2  A    between atoms: C_7  and  C_17
REMARK    3  A    between atoms: C_17  and  C_18
REMARK                            x       y       z     vdW  Elec       q    Type
REMARK                         _______ _______ _______ _____ _____    ______ ____
ROOT
ATOM      1  N   UNL     1      33.915 -22.143 -17.555  0.00  0.00    -0.202 N 
ATOM      2  N   UNL     1      35.065 -22.185 -16.857  0.00  0.00    -0.185 NA
ATOM      3  N   UNL     1      31.535 -22.435 -17.220  0.00  0.00    -0.232 NA
ATOM      4  N   UNL     1      31.011 -22.976 -14.899  0.00  0.00    -0.234 NA
ATOM      5  C   UNL     1      32.810 -22.406 -16.801  0.00  0.00    +0.136 C 
ATOM      6  C   UNL     1      33.271 -22.636 -15.516  0.00  0.00    +0.146 C 
ATOM      7  C   UNL     1      34.666 -22.486 -15.616  0.00  0.00    +0.072 C 
ATOM      8  C   UNL     1      32.318 -22.930 -14.546  0.00  0.00    +0.111 C 
ATOM      9  C   UNL     1      30.705 -22.729 -16.196  0.00  0.00    +0.252 C 
ATOM     10  N   UNL     1      32.691 -23.179 -13.214  0.00  0.00    -0.346 N 
ATOM     11  H   UNL     1      32.003 -23.385 -12.540  0.00  0.00    +0.143 HD
ATOM     12  H   UNL     1      33.640 -23.146 -12.954  0.00  0.00    +0.143 HD
ENDROOT
BRANCH   1  13
ATOM     13  C   UNL     1      33.952 -21.822 -19.059  0.00  0.00    +0.081 C 
ATOM     14  C   UNL     1      33.706 -23.112 -19.872  0.00  0.00    +0.022 C 
ATOM     15  C   UNL     1      35.331 -21.241 -19.433  0.00  0.00    +0.022 C 
ATOM     16  C   UNL     1      32.886 -20.794 -19.504  0.00  0.00    +0.022 C 
ENDBRANCH   1  13
BRANCH   7  17
ATOM     17  C   UNL     1      35.674 -22.619 -14.549  0.00  0.00    +0.070 C 
BRANCH  17  18
ATOM     18  C   UNL     1      36.403 -23.955 -14.531  0.00  0.00    -0.017 C 
ATOM     19  C   UNL     1      37.784 -23.994 -14.339  0.00  0.00    -0.008 C 
ATOM     20  C   UNL     1      35.690 -25.141 -14.706  0.00  0.00    -0.004 C 
ATOM     21  C   UNL     1      38.452 -25.218 -14.323  0.00  0.00    -0.022 C 
ATOM     22  C   UNL     1      36.357 -26.365 -14.690  0.00  0.00    -0.001 C 
ATOM     23  C   UNL     1      37.738 -26.404 -14.498  0.00  0.00    -0.004 C 
ATOM     24  C   UNL     1      39.929 -25.260 -14.119  0.00  0.00    +0.031 C 
ENDBRANCH  17  18
ENDBRANCH   7  17
TORSDOF 3
ENDMDL
MODEL 3
REMARK VINA RESULT:     -11.0     11.637     15.332
REMARK  Name = 24865390
REMARK  3 active torsions:
REMARK  status: ('A' for Active; 'I' for Inactive)
REMARK    1  A    between atoms: N_1  and  C_10
REMARK    2  A    between atoms: C_7  and  C_17
REMARK    3  A    between atoms: C_17  and  C_18
REMARK                            x       y       z     vdW  Elec       q    Type
REMARK                         _______ _______ _______ _____ _____    ______ ____
ROOT
ATOM      1  N   UNL     1      31.341  -7.248 -23.002  0.00  0.00    -0.202 N 
ATOM      2  N   UNL     1      30.951  -8.525 -23.169  0.00  0.00    -0.185 NA
ATOM      3  N   UNL     1      32.047  -5.744 -21.240  0.00  0.00    -0.232 NA
ATOM      4  N   UNL     1      32.072  -6.849 -19.066  0.00  0.00    -0.234 NA
ATOM      5  C   UNL     1      31.634  -6.932 -21.708  0.00  0.00    +0.136 C 
ATOM      6  C   UNL     1      31.420  -8.087 -20.975  0.00  0.00    +0.146 C 
ATOM      7  C   UNL     1      31.000  -9.031 -21.931  0.00  0.00    +0.072 C 
ATOM      8  C   UNL     1      31.653  -8.019 -19.606  0.00  0.00    +0.111 C 
ATOM      9  C   UNL     1      32.240  -5.799 -19.905  0.00  0.00    +0.252 C 
ATOM     10  N   UNL     1      31.462  -9.141 -18.780  0.00  0.00    -0.346 N 
ATOM     11  H   UNL     1      31.633  -9.076 -17.812  0.00  0.00    +0.143 HD
ATOM     12  H   UNL     1      31.159  -9.993 -19.169  0.00  0.00    +0.143 HD
ENDROOT
BRANCH   1  13
ATOM     13  C   UNL     1      31.416  -6.312 -24.220  0.00  0.00    +0.081 C 
ATOM     14  C   UNL     1      30.777  -7.002 -25.445  0.00  0.00    +0.022 C 
ATOM     15  C   UNL     1      32.892  -5.985 -24.533  0.00  0.00    +0.022 C 
ATOM     16  C   UNL     1      30.681  -4.967 -24.020  0.00  0.00    +0.022 C 
ENDBRANCH   1  13
BRANCH   7  17
ATOM     17  C   UNL     1      30.632 -10.441 -21.714  0.00  0.00    +0.070 C 
BRANCH  17  18
ATOM     18  C   UNL     1      31.751 -11.437 -21.991  0.00  0.00    -0.017 C 
ATOM     19  C   UNL     1      32.034 -12.443 -21.068  0.00  0.00    -0.008 C 
ATOM     20  C   UNL     1      32.493 -11.341 -23.168  0.00  0.00    -0.004 C 
ATOM     21  C   UNL     1      33.059 -13.354 -21.321  0.00  0.00    -0.022 C 
ATOM     22  C   UNL     1      33.518 -12.252 -23.423  0.00  0.00    -0.001 C 
ATOM     23  C   UNL     1      33.801 -13.258 -22.500  0.00  0.00    -0.004 C 
ATOM     24  C   UNL     1      33.363 -14.430 -20.334  0.00  0.00    +0.031 C 
ENDBRANCH  17  18
ENDBRANCH   7  17
TORSDOF 3
ENDMDL
MODEL 4
REMARK VINA RESULT:     -10.6      1.462      3.784
REMARK  Name = 24865390
REMARK  3 active torsions:
REMARK  status: ('A' for Active; 'I' for Inactive)
REMARK    1  A    between atoms: N_1  and  C_10
REMARK    2  A    between atoms: C_7  and  C_17
REMARK    3  A    between atoms: C_17  and  C_18
REMARK                            x       y       z     vdW  Elec       q    Type
REMARK                         _______ _______ _______ _____ _____    ______ ____
ROOT
ATOM      1  N   UNL     1      33.110 -22.800 -15.415  0.00  0.00    -0.202 N 
ATOM      2  N   UNL     1      33.371 -22.400 -16.674  0.00  0.00    -0.185 NA
ATOM      3  N   UNL     1      34.283 -23.421 -13.390  0.00  0.00    -0.232 NA
ATOM      4  N   UNL     1      36.703 -23.297 -13.675  0.00  0.00    -0.234 NA
ATOM      5  C   UNL     1      34.231 -23.019 -14.670  0.00  0.00    +0.136 C 
ATOM      6  C   UNL     1      35.302 -22.742 -15.500  0.00  0.00    +0.146 C 
ATOM      7  C   UNL     1      34.708 -22.367 -16.720  0.00  0.00    +0.072 C 
ATOM      8  C   UNL     1      36.576 -22.894 -14.962  0.00  0.00    +0.111 C 
ATOM      9  C   UNL     1      35.565 -23.532 -12.979  0.00  0.00    +0.252 C 
ATOM     10  N   UNL     1      37.725 -22.636 -15.730  0.00  0.00    -0.346 N 
ATOM     11  H   UNL     1      38.619 -22.748 -15.332  0.00  0.00    +0.143 HD
ATOM     12  H   UNL     1      37.636 -22.343 -16.665  0.00  0.00    +0.143 HD
ENDROOT
BRANCH   1  13
ATOM     13  C   UNL     1      31.651 -22.965 -14.959  0.00  0.00    +0.081 C 
ATOM     14  C   UNL     1      31.436 -24.394 -14.414  0.00  0.00    +0.022 C 
ATOM     15  C   UNL     1      30.703 -22.729 -16.153  0.00  0.00    +0.022 C 
ATOM     16  C   UNL     1      31.231 -21.984 -13.840  0.00  0.00    +0.022 C 
ENDBRANCH   1  13
BRANCH   7  17
ATOM     17  C   UNL     1      35.375 -21.964 -17.970  0.00  0.00    +0.070 C 
BRANCH  17  18
ATOM     18  C   UNL     1      34.492 -21.183 -18.934  0.00  0.00    -0.017 C 
ATOM     19  C   UNL     1      35.069 -20.323 -19.869  0.00  0.00    -0.008 C 
ATOM     20  C   UNL     1      33.106 -21.327 -18.883  0.00  0.00    -0.004 C 
ATOM     21  C   UNL     1      34.261 -19.607 -20.751  0.00  0.00    -0.022 C 
ATOM     22  C   UNL     1      32.297 -20.612 -19.765  0.00  0.00    -0.001 C 
ATOM     23  C   UNL     1      32.874 -19.752 -20.700  0.00  0.00    -0.004 C 
ATOM     24  C   UNL     1      34.878 -18.688 -21.751  0.00  0.00    +0.031 C 
ENDBRANCH  17  18
ENDBRANCH   7  17
TORSDOF 3
ENDMDL
MODEL 5
REMARK VINA RESULT:     -10.5      1.878      6.093
REMARK  Name = 24865390
REMARK  3 active torsions:
REMARK  status: ('A' for Active; 'I' for Inactive)
REMARK    1  A    between atoms: N_1  and  C_10
REMARK    2  A    between atoms: C_7  and  C_17
REMARK    3  A    between atoms: C_17  and  C_18
REMARK                            x       y       z     vdW  Elec       q    Type
REMARK                         _______ _______ _______ _____ _____    ______ ____
ROOT
ATOM      1  N   UNL     1      33.887 -22.298 -17.042  0.00  0.00    -0.202 N 
ATOM      2  N   UNL     1      32.810 -22.567 -16.281  0.00  0.00    -0.185 NA
ATOM      3  N   UNL     1      36.286 -22.043 -16.830  0.00  0.00    -0.232 NA
ATOM      4  N   UNL     1      37.028 -22.367 -14.528  0.00  0.00    -0.234 NA
ATOM      5  C   UNL     1      35.058 -22.281 -16.343  0.00  0.00    +0.136 C 
ATOM      6  C   UNL     1      34.722 -22.559 -15.029  0.00  0.00    +0.146 C 
ATOM      7  C   UNL     1      33.325 -22.724 -15.056  0.00  0.00    +0.072 C 
ATOM      8  C   UNL     1      35.761 -22.598 -14.105  0.00  0.00    +0.111 C 
ATOM      9  C   UNL     1      37.208 -22.108 -15.845  0.00  0.00    +0.252 C 
ATOM     10  N   UNL     1      35.517 -22.872 -12.748  0.00  0.00    -0.346 N 
ATOM     11  H   UNL     1      36.265 -22.897 -12.108  0.00  0.00    +0.143 HD
ATOM     12  H   UNL     1      34.598 -23.040 -12.438  0.00  0.00    +0.143 HD
ENDROOT
BRANCH   1  13
ATOM     13  C   UNL     1      33.709 -22.047 -18.549  0.00  0.00    +0.081 C 
ATOM     14  C   UNL     1      32.430 -21.216 -18.789  0.00  0.00    +0.022 C 
ATOM     15  C   UNL     1      33.584 -23.396 -19.289  0.00  0.00    +0.022 C 
ATOM     16  C   UNL     1      34.881 -21.276 -19.197  0.00  0.00    +0.022 C 
ENDBRANCH   1  13
BRANCH   7  17
ATOM     17  C   UNL     1      32.424 -23.037 -13.932  0.00  0.00    +0.070 C 
BRANCH  17  18
ATOM     18  C   UNL     1      31.031 -23.490 -14.346  0.00  0.00    -0.017 C 
ATOM     19  C   UNL     1      30.184 -22.612 -15.022  0.00  0.00    -0.008 C 
ATOM     20  C   UNL     1      30.600 -24.782 -14.048  0.00  0.00    -0.004 C 
ATOM     21  C   UNL     1      28.907 -23.026 -15.400  0.00  0.00    -0.022 C 
ATOM     22  C   UNL     1      29.324 -25.197 -14.426  0.00  0.00    -0.001 C 
ATOM     23  C   UNL     1      28.477 -24.320 -15.102  0.00  0.00    -0.004 C 
ATOM     24  C   UNL     1      28.000 -22.088 -16.123  0.00  0.00    +0.031 C 
ENDBRANCH  17  18
ENDBRANCH   7  17
TORSDOF 3
ENDMDL
MODEL 6
REMARK VINA RESULT:     -10.1      2.345      6.162
REMARK  Name = 24865390
REMARK  3 active torsions:
REMARK  status: ('A' for Active; 'I' for Inactive)
REMARK    1  A    between atoms: N_1  and  C_10
REMARK    2  A    between atoms: C_7  and  C_17
REMARK    3  A    between atoms: C_17  and  C_18
REMARK                            x       y       z     vdW  Elec       q    Type
REMARK                         _______ _______ _______ _____ _____    ______ ____
ROOT
ATOM      1  N   UNL     1      31.905 -23.311 -14.700  0.00  0.00    -0.202 N 
ATOM      2  N   UNL     1      32.802 -23.440 -13.706  0.00  0.00    -0.185 NA
ATOM      3  N   UNL     1      31.807 -22.678 -17.035  0.00  0.00    -0.232 NA
ATOM      4  N   UNL     1      34.007 -22.074 -17.899  0.00  0.00    -0.234 NA
ATOM      5  C   UNL     1      32.451 -22.893 -15.877  0.00  0.00    +0.136 C 
ATOM      6  C   UNL     1      33.805 -22.737 -15.635  0.00  0.00    +0.146 C 
ATOM      7  C   UNL     1      33.958 -23.088 -14.281  0.00  0.00    +0.072 C 
ATOM      8  C   UNL     1      34.593 -22.311 -16.700  0.00  0.00    +0.111 C 
ATOM      9  C   UNL     1      32.670 -22.270 -17.990  0.00  0.00    +0.252 C 
ATOM     10  N   UNL     1      35.978 -22.124 -16.550  0.00  0.00    -0.346 N 
ATOM     11  H   UNL     1      36.520 -21.823 -17.314  0.00  0.00    +0.143 HD
ATOM     12  H   UNL     1      36.406 -22.295 -15.680  0.00  0.00    +0.143 HD
ENDROOT
BRANCH   1  13
ATOM     13  C   UNL     1      30.424 -23.629 -14.431  0.00  0.00    +0.081 C 
ATOM     14  C   UNL     1      29.587 -22.336 -14.542  0.00  0.00    +0.022 C 
ATOM     15  C   UNL     1      30.268 -24.215 -13.012  0.00  0.00    +0.022 C 
ATOM     16  C   UNL     1      29.816 -24.652 -15.418  0.00  0.00    +0.022 C 
ENDBRANCH   1  13
BRANCH   7  17
ATOM     17  C   UNL     1      35.195 -23.107 -13.481  0.00  0.00    +0.070 C 
BRANCH  17  18
ATOM     18  C   UNL     1      36.179 -24.204 -13.864  0.00  0.00    -0.017 C 
ATOM     19  C   UNL     1      37.550 -23.995 -13.714  0.00  0.00    -0.008 C 
ATOM     20  C   UNL     1      35.710 -25.418 -14.365  0.00  0.00    -0.004 C 
ATOM     21  C   UNL     1      38.452 -25.000 -14.065  0.00  0.00    -0.022 C 
ATOM     22  C   UNL     1      36.610 -26.423 -14.716  0.00  0.00    -0.001 C 
ATOM     23  C   UNL     1      37.981 -26.214 -14.566  0.00  0.00    -0.004 C 
ATOM     24  C   UNL     1      39.918 -24.777 -13.906  0.00  0.00    +0.031 C 
ENDBRANCH  17  18
ENDBRANCH   7  17
TORSDOF 3
ENDMDL
MODEL 7
REMARK VINA RESULT:      -9.6      1.927      6.259
REMARK  Name = 24865390
REMARK  3 active torsions:
REMARK  status: ('A' for Active; 'I' for Inactive)
REMARK    1  A    between atoms: N_1  and  C_10
REMARK    2  A    between atoms: C_7  and  C_17
REMARK    3  A    between atoms: C_17  and  C_18
REMARK                            x       y       z     vdW  Elec       q    Type
REMARK                         _______ _______ _______ _____ _____    ______ ____
ROOT
ATOM      1  N   UNL     1      32.810 -22.937 -15.512  0.00  0.00    -0.202 N 
ATOM      2  N   UNL     1      33.984 -23.105 -14.876  0.00  0.00    -0.185 NA
ATOM      3  N   UNL     1      31.950 -22.121 -17.624  0.00  0.00    -0.232 NA
ATOM      4  N   UNL     1      33.741 -21.350 -19.090  0.00  0.00    -0.234 NA
ATOM      5  C   UNL     1      32.938 -22.401 -16.759  0.00  0.00    +0.136 C 
ATOM      6  C   UNL     1      34.294 -22.204 -16.952  0.00  0.00    +0.146 C 
ATOM      7  C   UNL     1      34.884 -22.656 -15.757  0.00  0.00    +0.072 C 
ATOM      8  C   UNL     1      34.687 -21.657 -18.170  0.00  0.00    +0.111 C 
ATOM      9  C   UNL     1      32.450 -21.598 -18.764  0.00  0.00    +0.252 C 
ATOM     10  N   UNL     1      36.043 -21.420 -18.456  0.00  0.00    -0.346 N 
ATOM     11  H   UNL     1      36.303 -21.033 -19.323  0.00  0.00    +0.143 HD
ATOM     12  H   UNL     1      36.733 -21.642 -17.790  0.00  0.00    +0.143 HD
ENDROOT
BRANCH   1  13
ATOM     13  C   UNL     1      31.502 -23.343 -14.813  0.00  0.00    +0.081 C 
ATOM     14  C   UNL     1      30.893 -22.116 -14.099  0.00  0.00    +0.022 C 
ATOM     15  C   UNL     1      31.790 -24.445 -13.772  0.00  0.00    +0.022 C 
ATOM     16  C   UNL     1      30.423 -23.892 -15.774  0.00  0.00    +0.022 C 
ENDBRANCH   1  13
BRANCH   7  17
ATOM     17  C   UNL     1      36.314 -22.684 -15.403  0.00  0.00    +0.070 C 
BRANCH  17  18
ATOM     18  C   UNL     1      36.647 -23.532 -14.183  0.00  0.00    -0.017 C 
ATOM     19  C   UNL     1      36.245 -23.118 -12.914  0.00  0.00    -0.008 C 
ATOM     20  C   UNL     1      37.354 -24.724 -14.335  0.00  0.00    -0.004 C 
ATOM     21  C   UNL     1      36.550 -23.894 -11.797  0.00  0.00    -0.022 C 
ATOM     22  C   UNL     1      37.660 -25.502 -13.219  0.00  0.00    -0.001 C 
ATOM     23  C   UNL     1      37.258 -25.087 -11.950  0.00  0.00    -0.004 C 
ATOM     24  C   UNL     1      36.121 -23.451 -10.438  0.00  0.00    +0.031 C 
ENDBRANCH  17  18
ENDBRANCH   7  17
TORSDOF 3
ENDMDL
MODEL 8
REMARK VINA RESULT:      -9.5      2.009      3.158
REMARK  Name = 24865390
REMARK  3 active torsions:
REMARK  status: ('A' for Active; 'I' for Inactive)
REMARK    1  A    between atoms: N_1  and  C_10
REMARK    2  A    between atoms: C_7  and  C_17
REMARK    3  A    between atoms: C_17  and  C_18
REMARK                            x       y       z     vdW  Elec       q    Type
REMARK                         _______ _______ _______ _____ _____    ______ ____
ROOT
ATOM      1  N   UNL     1      36.588 -24.293 -14.237  0.00  0.00    -0.202 N 
ATOM      2  N   UNL     1      35.910 -24.062 -15.376  0.00  0.00    -0.185 NA
ATOM      3  N   UNL     1      36.275 -24.171 -11.839  0.00  0.00    -0.232 NA
ATOM      4  N   UNL     1      34.038 -23.386 -11.260  0.00  0.00    -0.234 NA
ATOM      5  C   UNL     1      35.865 -24.034 -13.110  0.00  0.00    +0.136 C 
ATOM      6  C   UNL     1      34.624 -23.603 -13.544  0.00  0.00    +0.146 C 
ATOM      7  C   UNL     1      34.714 -23.642 -14.948  0.00  0.00    +0.072 C 
ATOM      8  C   UNL     1      33.692 -23.272 -12.566  0.00  0.00    +0.111 C 
ATOM      9  C   UNL     1      35.290 -23.822 -10.983  0.00  0.00    +0.252 C 
ATOM     10  N   UNL     1      32.405 -22.824 -12.910  0.00  0.00    -0.346 N 
ATOM     11  H   UNL     1      31.758 -22.595 -12.204  0.00  0.00    +0.143 HD
ATOM     12  H   UNL     1      32.150 -22.740 -13.857  0.00  0.00    +0.143 HD
ENDROOT
BRANCH   1  13
ATOM     13  C   UNL     1      38.039 -24.799 -14.307  0.00  0.00    +0.081 C 
ATOM     14  C   UNL     1      38.827 -23.974 -15.347  0.00  0.00    +0.022 C 
ATOM     15  C   UNL     1      38.051 -26.285 -14.723  0.00  0.00    +0.022 C 
ATOM     16  C   UNL     1      38.803 -24.692 -12.967  0.00  0.00    +0.022 C 
ENDBRANCH   1  13
BRANCH   7  17
ATOM     17  C   UNL     1      33.680 -23.286 -15.935  0.00  0.00    +0.070 C 
BRANCH  17  18
ATOM     18  C   UNL     1      34.169 -22.395 -17.069  0.00  0.00    -0.017 C 
ATOM     19  C   UNL     1      33.277 -21.964 -18.052  0.00  0.00    -0.008 C 
ATOM     20  C   UNL     1      35.508 -22.011 -17.127  0.00  0.00    -0.004 C 
ATOM     21  C   UNL     1      33.724 -21.149 -19.091  0.00  0.00    -0.022 C 
ATOM     22  C   UNL     1      35.956 -21.196 -18.165  0.00  0.00    -0.001 C 
ATOM     23  C   UNL     1      35.065 -20.765 -19.147  0.00  0.00    -0.004 C 
ATOM     24  C   UNL     1      32.772 -20.687 -20.142  0.00  0.00    +0.031 C 
ENDBRANCH  17  18
ENDBRANCH   7  17
TORSDOF 3
ENDMDL
MODEL 9
REMARK VINA RESULT:      -9.4      5.373      9.372
REMARK  Name = 24865390
REMARK  3 active torsions:
REMARK  status: ('A' for Active; 'I' for Inactive)
REMARK    1  A    between atoms: N_1  and  C_10
REMARK    2  A    between atoms: C_7  and  C_17
REMARK    3  A    between atoms: C_17  and  C_18
REMARK                            x       y       z     vdW  Elec       q    Type
REMARK                         _______ _______ _______ _____ _____    ______ ____
ROOT
ATOM      1  N   UNL     1      33.937 -15.091 -21.851  0.00  0.00    -0.202 N 
ATOM      2  N   UNL     1      34.600 -15.877 -20.983  0.00  0.00    -0.185 NA
ATOM      3  N   UNL     1      33.047 -15.160 -24.102  0.00  0.00    -0.232 NA
ATOM      4  N   UNL     1      33.463 -17.313 -25.171  0.00  0.00    -0.234 NA
ATOM      5  C   UNL     1      33.687 -15.693 -23.049  0.00  0.00    +0.136 C 
ATOM      6  C   UNL     1      34.226 -16.964 -22.958  0.00  0.00    +0.146 C 
ATOM      7  C   UNL     1      34.774 -17.016 -21.663  0.00  0.00    +0.072 C 
ATOM      8  C   UNL     1      34.098 -17.787 -24.072  0.00  0.00    +0.111 C 
ATOM      9  C   UNL     1      32.984 -16.047 -25.118  0.00  0.00    +0.252 C 
ATOM     10  N   UNL     1      34.614 -19.094 -24.073  0.00  0.00    -0.346 N 
ATOM     11  H   UNL     1      34.514 -19.663 -24.870  0.00  0.00    +0.143 HD
ATOM     12  H   UNL     1      35.076 -19.441 -23.276  0.00  0.00    +0.143 HD
ENDROOT
BRANCH   1  13
ATOM     13  C   UNL     1      33.543 -13.664 -21.435  0.00  0.00    +0.081 C 
ATOM     14  C   UNL     1      33.792 -12.693 -22.611  0.00  0.00    +0.022 C 
ATOM     15  C   UNL     1      34.392 -13.223 -20.224  0.00  0.00    +0.022 C 
ATOM     16  C   UNL     1      32.058 -13.518 -21.031  0.00  0.00    +0.022 C 
ENDBRANCH   1  13
BRANCH   7  17
ATOM     17  C   UNL     1      35.480 -18.138 -21.018  0.00  0.00    +0.070 C 
BRANCH  17  18
ATOM     18  C   UNL     1      34.567 -19.214 -20.446  0.00  0.00    -0.017 C 
ATOM     19  C   UNL     1      35.073 -20.155 -19.550  0.00  0.00    -0.008 C 
ATOM     20  C   UNL     1      33.223 -19.258 -20.818  0.00  0.00    -0.004 C 
ATOM     21  C   UNL     1      34.238 -21.141 -19.027  0.00  0.00    -0.022 C 
ATOM     22  C   UNL     1      32.387 -20.243 -20.295  0.00  0.00    -0.001 C 
ATOM     23  C   UNL     1      32.893 -21.185 -19.399  0.00  0.00    -0.004 C 
ATOM     24  C   UNL     1      34.779 -22.148 -18.069  0.00  0.00    +0.031 C 
ENDBRANCH  17  18
ENDBRANCH   7  17
TORSDOF 3
ENDMDL
