MODEL 1
REMARK VINA RESULT:     -11.6      0.000      0.000
REMARK  Name = 16071605
REMARK  7 active torsions:
REMARK  status: ('A' for Active; 'I' for Inactive)
REMARK    1  A    between atoms: C_3  and  S_11
REMARK    2  A    between atoms: C_7  and  O_24
REMARK    3  A    between atoms: S_11  and  C_14
REMARK    4  A    between atoms: O_24  and  C_25
REMARK    5  A    between atoms: C_25  and  C_26
REMARK    6  A    between atoms: C_26  and  C_27
REMARK    7  A    between atoms: C_27  and  N_28
REMARK                            x       y       z     vdW  Elec       q    Type
REMARK                         _______ _______ _______ _____ _____    ______ ____
ROOT
ATOM      1  N   UNL     1      34.308 -18.443 -23.833  0.00  0.00    -0.260 N 
ATOM      2  N   UNL     1      33.707 -17.749 -24.819  0.00  0.00    -0.172 NA
ATOM      3  C   UNL     1      34.636 -17.690 -22.763  0.00  0.00    +0.186 A 
ATOM      4  C   UNL     1      34.240 -16.436 -23.043  0.00  0.00    +0.057 A 
ATOM      5  C   UNL     1      33.647 -16.486 -24.358  0.00  0.00    +0.104 A 
ATOM      6  C   UNL     1      34.375 -15.323 -22.224  0.00  0.00    +0.041 C 
ATOM      7  C   UNL     1      33.845 -14.174 -22.843  0.00  0.00    +0.139 C 
ATOM      8  C   UNL     1      33.126 -15.323 -24.953  0.00  0.00    +0.024 C 
ATOM      9  C   UNL     1      33.248 -14.172 -24.144  0.00  0.00    +0.039 C 
ATOM     10  H   UNL     1      34.489 -19.409 -23.889  0.00  0.00    +0.190 HD
ENDROOT
BRANCH   3  11
ATOM     11  S   UNL     1      35.444 -18.440 -21.351  0.00  0.00    +0.043 S 
ATOM     12  O   UNL     1      35.729 -17.372 -20.414  0.00  0.00    -0.163 OA
ATOM     13  O   UNL     1      36.498 -19.243 -21.939  0.00  0.00    -0.163 OA
BRANCH  11  14
ATOM     14  C   UNL     1      34.264 -19.500 -20.594  0.00  0.00    +0.112 C 
ATOM     15  C   UNL     1      34.589 -20.371 -19.541  0.00  0.00    +0.018 C 
ATOM     16  C   UNL     1      33.579 -21.194 -18.987  0.00  0.00    +0.001 C 
ATOM     17  C   UNL     1      32.963 -19.441 -21.093  0.00  0.00    +0.019 C 
ATOM     18  C   UNL     1      35.893 -20.444 -19.027  0.00  0.00    +0.001 C 
ATOM     19  C   UNL     1      32.275 -21.121 -19.502  0.00  0.00    +0.000 C 
ATOM     20  C   UNL     1      31.969 -20.249 -20.548  0.00  0.00    +0.001 C 
ATOM     21  C   UNL     1      33.903 -22.065 -17.934  0.00  0.00    +0.000 C 
ATOM     22  C   UNL     1      36.198 -21.316 -17.980  0.00  0.00    +0.000 C 
ATOM     23  C   UNL     1      35.205 -22.125 -17.436  0.00  0.00    +0.000 C 
ENDBRANCH  11  14
ENDBRANCH   3  11
BRANCH   7  24
ATOM     24  O   UNL     1      33.902 -12.987 -22.161  0.00  0.00    -0.476 OA
BRANCH  24  25
ATOM     25  C   UNL     1      33.552 -13.023 -20.783  0.00  0.00    +0.203 C 
BRANCH  25  26
ATOM     26  C   UNL     1      32.035 -12.972 -20.659  0.00  0.00    +0.025 C 
BRANCH  26  27
ATOM     27  C   UNL     1      31.413 -12.098 -21.744  0.00  0.00    -0.074 C 
BRANCH  27  28
ATOM     28  N   UNL     1      31.757 -10.699 -21.527  0.00  0.00    +0.384 N 
ATOM     29  C   UNL     1      31.918 -10.002 -22.804  0.00  0.00    -0.101 C 
ATOM     30  C   UNL     1      30.737 -10.036 -20.713  0.00  0.00    -0.101 C 
ATOM     31  H   UNL     1      32.645 -10.664 -21.025  0.00  0.00    -0.080 HD
ENDBRANCH  27  28
ENDBRANCH  26  27
ENDBRANCH  25  26
ENDBRANCH  24  25
ENDBRANCH   7  24
TORSDOF 7
ENDMDL
MODEL 2
REMARK VINA RESULT:     -11.5      2.965      8.951
REMARK  Name = 16071605
REMARK  7 active torsions:
REMARK  status: ('A' for Active; 'I' for Inactive)
REMARK    1  A    between atoms: C_3  and  S_11
REMARK    2  A    between atoms: C_7  and  O_24
REMARK    3  A    between atoms: S_11  and  C_14
REMARK    4  A    between atoms: O_24  and  C_25
REMARK    5  A    between atoms: C_25  and  C_26
REMARK    6  A    between atoms: C_26  and  C_27
REMARK    7  A    between atoms: C_27  and  N_28
REMARK                            x       y       z     vdW  Elec       q    Type
REMARK                         _______ _______ _______ _____ _____    ______ ____
ROOT
ATOM      1  N   UNL     1      32.934 -19.137 -21.359  0.00  0.00    -0.260 N 
ATOM      2  N   UNL     1      32.116 -19.976 -20.691  0.00  0.00    -0.172 NA
ATOM      3  C   UNL     1      34.226 -19.227 -20.981  0.00  0.00    +0.186 A 
ATOM      4  C   UNL     1      34.278 -20.163 -20.018  0.00  0.00    +0.057 A 
ATOM      5  C   UNL     1      32.925 -20.634 -19.842  0.00  0.00    +0.104 A 
ATOM      6  C   UNL     1      35.411 -20.587 -19.335  0.00  0.00    +0.041 C 
ATOM      7  C   UNL     1      35.089 -21.585 -18.395  0.00  0.00    +0.139 C 
ATOM      8  C   UNL     1      32.632 -21.632 -18.894  0.00  0.00    +0.024 C 
ATOM      9  C   UNL     1      33.765 -22.085 -18.183  0.00  0.00    +0.039 C 
ATOM     10  H   UNL     1      32.618 -18.520 -22.057  0.00  0.00    +0.190 HD
ENDROOT
BRANCH   3  11
ATOM     11  S   UNL     1      35.463 -18.190 -21.758  0.00  0.00    +0.043 S 
ATOM     12  O   UNL     1      36.208 -19.034 -22.669  0.00  0.00    -0.163 OA
ATOM     13  O   UNL     1      36.101 -17.517 -20.643  0.00  0.00    -0.163 OA
BRANCH  11  14
ATOM     14  C   UNL     1      34.597 -17.007 -22.727  0.00  0.00    +0.112 C 
ATOM     15  C   UNL     1      34.129 -15.790 -22.204  0.00  0.00    +0.018 C 
ATOM     16  C   UNL     1      33.439 -14.891 -23.051  0.00  0.00    +0.001 C 
ATOM     17  C   UNL     1      34.387 -17.332 -24.067  0.00  0.00    +0.019 C 
ATOM     18  C   UNL     1      34.330 -15.446 -20.857  0.00  0.00    +0.001 C 
ATOM     19  C   UNL     1      33.238 -15.236 -24.398  0.00  0.00    +0.000 C 
ATOM     20  C   UNL     1      33.710 -16.449 -24.902  0.00  0.00    +0.001 C 
ATOM     21  C   UNL     1      32.971 -13.675 -22.529  0.00  0.00    +0.000 C 
ATOM     22  C   UNL     1      33.858 -14.233 -20.353  0.00  0.00    +0.000 C 
ATOM     23  C   UNL     1      33.179 -13.349 -21.189  0.00  0.00    +0.000 C 
ENDBRANCH  11  14
ENDBRANCH   3  11
BRANCH   7  24
ATOM     24  O   UNL     1      36.102 -22.110 -17.636  0.00  0.00    -0.476 OA
BRANCH  24  25
ATOM     25  C   UNL     1      36.601 -21.295 -16.583  0.00  0.00    +0.203 C 
BRANCH  25  26
ATOM     26  C   UNL     1      37.304 -22.182 -15.564  0.00  0.00    +0.025 C 
BRANCH  26  27
ATOM     27  C   UNL     1      36.387 -23.292 -15.060  0.00  0.00    -0.074 C 
BRANCH  27  28
ATOM     28  N   UNL     1      37.106 -24.558 -15.007  0.00  0.00    +0.384 N 
ATOM     29  C   UNL     1      38.312 -24.433 -14.187  0.00  0.00    -0.101 C 
ATOM     30  C   UNL     1      36.245 -25.619 -14.484  0.00  0.00    -0.101 C 
ATOM     31  H   UNL     1      37.385 -24.806 -15.957  0.00  0.00    -0.080 HD
ENDBRANCH  27  28
ENDBRANCH  26  27
ENDBRANCH  25  26
ENDBRANCH  24  25
ENDBRANCH   7  24
TORSDOF 7
ENDMDL
MODEL 3
REMARK VINA RESULT:     -11.5      3.309      5.434
REMARK  Name = 16071605
REMARK  7 active torsions:
REMARK  status: ('A' for Active; 'I' for Inactive)
REMARK    1  A    between atoms: C_3  and  S_11
REMARK    2  A    between atoms: C_7  and  O_24
REMARK    3  A    between atoms: S_11  and  C_14
REMARK    4  A    between atoms: O_24  and  C_25
REMARK    5  A    between atoms: C_25  and  C_26
REMARK    6  A    between atoms: C_26  and  C_27
REMARK    7  A    between atoms: C_27  and  N_28
REMARK                            x       y       z     vdW  Elec       q    Type
REMARK                         _______ _______ _______ _____ _____    ______ ____
ROOT
ATOM      1  N   UNL     1      35.636 -20.901 -18.552  0.00  0.00    -0.260 N 
ATOM      2  N   UNL     1      36.531 -20.010 -19.021  0.00  0.00    -0.172 NA
ATOM      3  C   UNL     1      34.505 -20.967 -19.284  0.00  0.00    +0.186 A 
ATOM      4  C   UNL     1      34.646 -20.082 -20.286  0.00  0.00    +0.057 A 
ATOM      5  C   UNL     1      35.944 -19.477 -20.107  0.00  0.00    +0.104 A 
ATOM      6  C   UNL     1      33.723 -19.812 -21.288  0.00  0.00    +0.041 C 
ATOM      7  C   UNL     1      34.210 -18.826 -22.169  0.00  0.00    +0.139 C 
ATOM      8  C   UNL     1      36.405 -18.494 -21.003  0.00  0.00    +0.024 C 
ATOM      9  C   UNL     1      35.489 -18.197 -22.035  0.00  0.00    +0.039 C 
ATOM     10  H   UNL     1      35.793 -21.452 -17.752  0.00  0.00    +0.190 HD
ENDROOT
BRANCH   3  11
ATOM     11  S   UNL     1      33.196 -22.097 -18.815  0.00  0.00    +0.043 S 
ATOM     12  O   UNL     1      33.435 -23.337 -19.525  0.00  0.00    -0.163 OA
ATOM     13  O   UNL     1      31.984 -21.325 -19.010  0.00  0.00    -0.163 OA
BRANCH  11  14
ATOM     14  C   UNL     1      33.400 -22.426 -17.100  0.00  0.00    +0.112 C 
ATOM     15  C   UNL     1      32.316 -22.589 -16.223  0.00  0.00    +0.018 C 
ATOM     16  C   UNL     1      32.565 -22.851 -14.855  0.00  0.00    +0.001 C 
ATOM     17  C   UNL     1      34.711 -22.520 -16.635  0.00  0.00    +0.019 C 
ATOM     18  C   UNL     1      30.988 -22.497 -16.673  0.00  0.00    +0.001 C 
ATOM     19  C   UNL     1      33.893 -22.943 -14.405  0.00  0.00    +0.000 C 
ATOM     20  C   UNL     1      34.958 -22.778 -15.290  0.00  0.00    +0.001 C 
ATOM     21  C   UNL     1      31.481 -23.015 -13.977  0.00  0.00    +0.000 C 
ATOM     22  C   UNL     1      29.923 -22.662 -15.787  0.00  0.00    +0.000 C 
ATOM     23  C   UNL     1      30.170 -22.920 -14.441  0.00  0.00    +0.000 C 
ENDBRANCH  11  14
ENDBRANCH   3  11
BRANCH   7  24
ATOM     24  O   UNL     1      33.414 -18.445 -23.217  0.00  0.00    -0.476 OA
BRANCH  24  25
ATOM     25  C   UNL     1      34.034 -17.689 -24.250  0.00  0.00    +0.203 C 
BRANCH  25  26
ATOM     26  C   UNL     1      33.378 -16.316 -24.317  0.00  0.00    +0.025 C 
BRANCH  26  27
ATOM     27  C   UNL     1      34.262 -15.241 -23.694  0.00  0.00    -0.074 C 
BRANCH  27  28
ATOM     28  N   UNL     1      33.522 -14.501 -22.681  0.00  0.00    +0.384 N 
ATOM     29  C   UNL     1      34.028 -14.811 -21.342  0.00  0.00    -0.101 C 
ATOM     30  C   UNL     1      33.602 -13.060 -22.932  0.00  0.00    -0.101 C 
ATOM     31  H   UNL     1      32.543 -14.784 -22.731  0.00  0.00    -0.080 HD
ENDBRANCH  27  28
ENDBRANCH  26  27
ENDBRANCH  25  26
ENDBRANCH  24  25
ENDBRANCH   7  24
TORSDOF 7
ENDMDL
MODEL 4
REMARK VINA RESULT:     -11.2      3.253      9.193
REMARK  Name = 16071605
REMARK  7 active torsions:
REMARK  status: ('A' for Active; 'I' for Inactive)
REMARK    1  A    between atoms: C_3  and  S_11
REMARK    2  A    between atoms: C_7  and  O_24
REMARK    3  A    between atoms: S_11  and  C_14
REMARK    4  A    between atoms: O_24  and  C_25
REMARK    5  A    between atoms: C_25  and  C_26
REMARK    6  A    between atoms: C_26  and  C_27
REMARK    7  A    between atoms: C_27  and  N_28
REMARK                            x       y       z     vdW  Elec       q    Type
REMARK                         _______ _______ _______ _____ _____    ______ ____
ROOT
ATOM      1  N   UNL     1      32.927 -19.291 -21.155  0.00  0.00    -0.260 N 
ATOM      2  N   UNL     1      32.226 -20.199 -20.448  0.00  0.00    -0.172 NA
ATOM      3  C   UNL     1      34.236 -19.246 -20.831  0.00  0.00    +0.186 A 
ATOM      4  C   UNL     1      34.421 -20.161 -19.863  0.00  0.00    +0.057 A 
ATOM      5  C   UNL     1      33.130 -20.763 -19.628  0.00  0.00    +0.104 A 
ATOM      6  C   UNL     1      35.617 -20.461 -19.225  0.00  0.00    +0.041 C 
ATOM      7  C   UNL     1      35.435 -21.476 -18.264  0.00  0.00    +0.139 C 
ATOM      8  C   UNL     1      32.978 -21.774 -18.661  0.00  0.00    +0.024 C 
ATOM      9  C   UNL     1      34.178 -22.103 -17.994  0.00  0.00    +0.039 C 
ATOM     10  H   UNL     1      32.523 -18.717 -21.845  0.00  0.00    +0.190 HD
ENDROOT
BRANCH   3  11
ATOM     11  S   UNL     1      35.330 -18.099 -21.665  0.00  0.00    +0.043 S 
ATOM     12  O   UNL     1      35.374 -18.497 -23.058  0.00  0.00    -0.163 OA
ATOM     13  O   UNL     1      36.519 -18.087 -20.836  0.00  0.00    -0.163 OA
BRANCH  11  14
ATOM     14  C   UNL     1      34.561 -16.521 -21.595  0.00  0.00    +0.112 C 
ATOM     15  C   UNL     1      34.116 -15.840 -22.740  0.00  0.00    +0.018 C 
ATOM     16  C   UNL     1      33.507 -14.571 -22.598  0.00  0.00    +0.001 C 
ATOM     17  C   UNL     1      34.407 -15.958 -20.329  0.00  0.00    +0.019 C 
ATOM     18  C   UNL     1      34.263 -16.391 -24.024  0.00  0.00    +0.001 C 
ATOM     19  C   UNL     1      33.360 -14.020 -21.314  0.00  0.00    +0.000 C 
ATOM     20  C   UNL     1      33.808 -14.710 -20.188  0.00  0.00    +0.001 C 
ATOM     21  C   UNL     1      33.061 -13.889 -23.743  0.00  0.00    +0.000 C 
ATOM     22  C   UNL     1      33.815 -15.700 -25.151  0.00  0.00    +0.000 C 
ATOM     23  C   UNL     1      33.216 -14.451 -25.010  0.00  0.00    +0.000 C 
ENDBRANCH  11  14
ENDBRANCH   3  11
BRANCH   7  24
ATOM     24  O   UNL     1      36.526 -21.888 -17.545  0.00  0.00    -0.476 OA
BRANCH  24  25
ATOM     25  C   UNL     1      36.521 -21.598 -16.152  0.00  0.00    +0.203 C 
BRANCH  25  26
ATOM     26  C   UNL     1      37.094 -22.790 -15.399  0.00  0.00    +0.025 C 
BRANCH  26  27
ATOM     27  C   UNL     1      36.701 -22.764 -13.925  0.00  0.00    -0.074 C 
BRANCH  27  28
ATOM     28  N   UNL     1      36.811 -24.097 -13.347  0.00  0.00    +0.384 N 
ATOM     29  C   UNL     1      36.688 -25.122 -14.386  0.00  0.00    -0.101 C 
ATOM     30  C   UNL     1      38.080 -24.248 -12.634  0.00  0.00    -0.101 C 
ATOM     31  H   UNL     1      36.048 -24.219 -12.681  0.00  0.00    -0.080 HD
ENDBRANCH  27  28
ENDBRANCH  26  27
ENDBRANCH  25  26
ENDBRANCH  24  25
ENDBRANCH   7  24
TORSDOF 7
ENDMDL
MODEL 5
REMARK VINA RESULT:     -10.2      4.893      7.876
REMARK  Name = 16071605
REMARK  7 active torsions:
REMARK  status: ('A' for Active; 'I' for Inactive)
REMARK    1  A    between atoms: C_3  and  S_11
REMARK    2  A    between atoms: C_7  and  O_24
REMARK    3  A    between atoms: S_11  and  C_14
REMARK    4  A    between atoms: O_24  and  C_25
REMARK    5  A    between atoms: C_25  and  C_26
REMARK    6  A    between atoms: C_26  and  C_27
REMARK    7  A    between atoms: C_27  and  N_28
REMARK                            x       y       z     vdW  Elec       q    Type
REMARK                         _______ _______ _______ _____ _____    ______ ____
ROOT
ATOM      1  N   UNL     1      34.439 -23.142 -15.827  0.00  0.00    -0.260 N 
ATOM      2  N   UNL     1      33.389 -23.016 -16.663  0.00  0.00    -0.172 NA
ATOM      3  C   UNL     1      35.530 -22.454 -16.222  0.00  0.00    +0.186 A 
ATOM      4  C   UNL     1      35.199 -21.840 -17.373  0.00  0.00    +0.057 A 
ATOM      5  C   UNL     1      33.830 -22.207 -17.643  0.00  0.00    +0.104 A 
ATOM      6  C   UNL     1      36.018 -21.020 -18.138  0.00  0.00    +0.041 C 
ATOM      7  C   UNL     1      35.335 -20.552 -19.279  0.00  0.00    +0.139 C 
ATOM      8  C   UNL     1      33.173 -21.724 -18.790  0.00  0.00    +0.024 C 
ATOM      9  C   UNL     1      33.980 -20.886 -19.591  0.00  0.00    +0.039 C 
ATOM     10  H   UNL     1      34.411 -23.683 -15.006  0.00  0.00    +0.190 HD
ENDROOT
BRANCH   3  11
ATOM     11  S   UNL     1      37.026 -22.499 -15.238  0.00  0.00    +0.043 S 
ATOM     12  O   UNL     1      36.981 -21.355 -14.350  0.00  0.00    -0.163 OA
ATOM     13  O   UNL     1      38.082 -22.666 -16.218  0.00  0.00    -0.163 OA
BRANCH  11  14
ATOM     14  C   UNL     1      36.932 -23.942 -14.239  0.00  0.00    +0.112 C 
ATOM     15  C   UNL     1      36.505 -23.914 -12.901  0.00  0.00    +0.018 C 
ATOM     16  C   UNL     1      36.459 -25.121 -12.163  0.00  0.00    +0.001 C 
ATOM     17  C   UNL     1      37.309 -25.142 -14.840  0.00  0.00    +0.019 C 
ATOM     18  C   UNL     1      36.123 -22.714 -12.278  0.00  0.00    +0.001 C 
ATOM     19  C   UNL     1      36.841 -26.321 -12.786  0.00  0.00    +0.000 C 
ATOM     20  C   UNL     1      37.263 -26.330 -14.116  0.00  0.00    +0.001 C 
ATOM     21  C   UNL     1      36.032 -25.094 -10.826  0.00  0.00    +0.000 C 
ATOM     22  C   UNL     1      35.701 -22.705 -10.948  0.00  0.00    +0.000 C 
ATOM     23  C   UNL     1      35.656 -23.893 -10.224  0.00  0.00    +0.000 C 
ENDBRANCH  11  14
ENDBRANCH   3  11
BRANCH   7  24
ATOM     24  O   UNL     1      36.008 -19.726 -20.141  0.00  0.00    -0.476 OA
BRANCH  24  25
ATOM     25  C   UNL     1      35.270 -19.212 -21.242  0.00  0.00    +0.203 C 
BRANCH  25  26
ATOM     26  C   UNL     1      35.855 -17.864 -21.641  0.00  0.00    +0.025 C 
BRANCH  26  27
ATOM     27  C   UNL     1      34.834 -16.742 -21.490  0.00  0.00    -0.074 C 
BRANCH  27  28
ATOM     28  N   UNL     1      34.795 -15.925 -22.696  0.00  0.00    +0.384 N 
ATOM     29  C   UNL     1      34.161 -16.656 -23.794  0.00  0.00    -0.101 C 
ATOM     30  C   UNL     1      34.086 -14.669 -22.446  0.00  0.00    -0.101 C 
ATOM     31  H   UNL     1      35.755 -15.708 -22.963  0.00  0.00    -0.080 HD
ENDBRANCH  27  28
ENDBRANCH  26  27
ENDBRANCH  25  26
ENDBRANCH  24  25
ENDBRANCH   7  24
TORSDOF 7
ENDMDL
MODEL 6
REMARK VINA RESULT:     -10.2      3.061      8.528
REMARK  Name = 16071605
REMARK  7 active torsions:
REMARK  status: ('A' for Active; 'I' for Inactive)
REMARK    1  A    between atoms: C_3  and  S_11
REMARK    2  A    between atoms: C_7  and  O_24
REMARK    3  A    between atoms: S_11  and  C_14
REMARK    4  A    between atoms: O_24  and  C_25
REMARK    5  A    between atoms: C_25  and  C_26
REMARK    6  A    between atoms: C_26  and  C_27
REMARK    7  A    between atoms: C_27  and  N_28
REMARK                            x       y       z     vdW  Elec       q    Type
REMARK                         _______ _______ _______ _____ _____    ______ ____
ROOT
ATOM      1  N   UNL     1      36.446 -17.848 -22.065  0.00  0.00    -0.260 N 
ATOM      2  N   UNL     1      37.083 -18.574 -21.125  0.00  0.00    -0.172 NA
ATOM      3  C   UNL     1      35.122 -18.098 -22.137  0.00  0.00    +0.186 A 
ATOM      4  C   UNL     1      34.860 -19.032 -21.206  0.00  0.00    +0.057 A 
ATOM      5  C   UNL     1      36.119 -19.328 -20.567  0.00  0.00    +0.104 A 
ATOM      6  C   UNL     1      33.621 -19.593 -20.924  0.00  0.00    +0.041 C 
ATOM      7  C   UNL     1      33.722 -20.540 -19.885  0.00  0.00    +0.139 C 
ATOM      8  C   UNL     1      36.191 -20.279 -19.532  0.00  0.00    +0.024 C 
ATOM      9  C   UNL     1      34.946 -20.868 -19.221  0.00  0.00    +0.039 C 
ATOM     10  H   UNL     1      36.904 -17.196 -22.643  0.00  0.00    +0.190 HD
ENDROOT
BRANCH   3  11
ATOM     11  S   UNL     1      34.107 -17.227 -23.328  0.00  0.00    +0.043 S 
ATOM     12  O   UNL     1      32.812 -17.878 -23.333  0.00  0.00    -0.163 OA
ATOM     13  O   UNL     1      34.937 -17.168 -24.515  0.00  0.00    -0.163 OA
BRANCH  11  14
ATOM     14  C   UNL     1      33.874 -15.600 -22.704  0.00  0.00    +0.112 C 
ATOM     15  C   UNL     1      33.493 -14.521 -23.519  0.00  0.00    +0.018 C 
ATOM     16  C   UNL     1      33.328 -13.241 -22.939  0.00  0.00    +0.001 C 
ATOM     17  C   UNL     1      34.090 -15.420 -21.339  0.00  0.00    +0.019 C 
ATOM     18  C   UNL     1      33.272 -14.684 -24.896  0.00  0.00    +0.001 C 
ATOM     19  C   UNL     1      33.549 -13.078 -21.561  0.00  0.00    +0.000 C 
ATOM     20  C   UNL     1      33.927 -14.161 -20.767  0.00  0.00    +0.001 C 
ATOM     21  C   UNL     1      32.946 -12.162 -23.752  0.00  0.00    +0.000 C 
ATOM     22  C   UNL     1      32.894 -13.601 -25.690  0.00  0.00    +0.000 C 
ATOM     23  C   UNL     1      32.731 -12.341 -25.118  0.00  0.00    +0.000 C 
ENDBRANCH  11  14
ENDBRANCH   3  11
BRANCH   7  24
ATOM     24  O   UNL     1      32.582 -21.187 -19.487  0.00  0.00    -0.476 OA
BRANCH  24  25
ATOM     25  C   UNL     1      32.743 -22.262 -18.570  0.00  0.00    +0.203 C 
BRANCH  25  26
ATOM     26  C   UNL     1      31.834 -22.027 -17.371  0.00  0.00    +0.025 C 
BRANCH  26  27
ATOM     27  C   UNL     1      32.201 -22.937 -16.202  0.00  0.00    -0.074 C 
BRANCH  27  28
ATOM     28  N   UNL     1      31.053 -23.119 -15.323  0.00  0.00    +0.384 N 
ATOM     29  C   UNL     1      31.241 -22.386 -14.070  0.00  0.00    -0.101 C 
ATOM     30  C   UNL     1      29.821 -22.685 -15.985  0.00  0.00    -0.101 C 
ATOM     31  H   UNL     1      30.972 -24.113 -15.108  0.00  0.00    -0.080 HD
ENDBRANCH  27  28
ENDBRANCH  26  27
ENDBRANCH  25  26
ENDBRANCH  24  25
ENDBRANCH   7  24
TORSDOF 7
ENDMDL
MODEL 7
REMARK VINA RESULT:     -10.0      5.596     10.660
REMARK  Name = 16071605
REMARK  7 active torsions:
REMARK  status: ('A' for Active; 'I' for Inactive)
REMARK    1  A    between atoms: C_3  and  S_11
REMARK    2  A    between atoms: C_7  and  O_24
REMARK    3  A    between atoms: S_11  and  C_14
REMARK    4  A    between atoms: O_24  and  C_25
REMARK    5  A    between atoms: C_25  and  C_26
REMARK    6  A    between atoms: C_26  and  C_27
REMARK    7  A    between atoms: C_27  and  N_28
REMARK                            x       y       z     vdW  Elec       q    Type
REMARK                         _______ _______ _______ _____ _____    ______ ____
ROOT
ATOM      1  N   UNL     1      31.022 -22.045 -17.216  0.00  0.00    -0.260 N 
ATOM      2  N   UNL     1      30.607 -22.189 -15.942  0.00  0.00    -0.172 NA
ATOM      3  C   UNL     1      32.272 -22.503 -17.432  0.00  0.00    +0.186 A 
ATOM      4  C   UNL     1      32.717 -22.972 -16.253  0.00  0.00    +0.057 A 
ATOM      5  C   UNL     1      31.644 -22.767 -15.309  0.00  0.00    +0.104 A 
ATOM      6  C   UNL     1      33.959 -23.540 -16.003  0.00  0.00    +0.041 C 
ATOM      7  C   UNL     1      34.077 -23.920 -14.652  0.00  0.00    +0.139 C 
ATOM      8  C   UNL     1      31.790 -23.156 -13.965  0.00  0.00    +0.024 C 
ATOM      9  C   UNL     1      33.044 -23.738 -13.678  0.00  0.00    +0.039 C 
ATOM     10  H   UNL     1      30.464 -21.646 -17.921  0.00  0.00    +0.190 HD
ENDROOT
BRANCH   3  11
ATOM     11  S   UNL     1      32.997 -22.397 -19.067  0.00  0.00    +0.043 S 
ATOM     12  O   UNL     1      32.053 -21.681 -19.901  0.00  0.00    -0.163 OA
ATOM     13  O   UNL     1      33.396 -23.760 -19.359  0.00  0.00    -0.163 OA
BRANCH  11  14
ATOM     14  C   UNL     1      34.434 -21.394 -18.921  0.00  0.00    +0.112 C 
ATOM     15  C   UNL     1      34.767 -20.402 -19.858  0.00  0.00    +0.018 C 
ATOM     16  C   UNL     1      35.943 -19.638 -19.668  0.00  0.00    +0.001 C 
ATOM     17  C   UNL     1      35.248 -21.630 -17.814  0.00  0.00    +0.019 C 
ATOM     18  C   UNL     1      33.959 -20.152 -20.979  0.00  0.00    +0.001 C 
ATOM     19  C   UNL     1      36.751 -19.889 -18.547  0.00  0.00    +0.000 C 
ATOM     20  C   UNL     1      36.405 -20.878 -17.626  0.00  0.00    +0.001 C 
ATOM     21  C   UNL     1      36.276 -18.646 -20.604  0.00  0.00    +0.000 C 
ATOM     22  C   UNL     1      34.305 -19.162 -21.900  0.00  0.00    +0.000 C 
ATOM     23  C   UNL     1      35.462 -18.411 -21.712  0.00  0.00    +0.000 C 
ENDBRANCH  11  14
ENDBRANCH   3  11
BRANCH   7  24
ATOM     24  O   UNL     1      35.250 -24.499 -14.242  0.00  0.00    -0.476 OA
BRANCH  24  25
ATOM     25  C   UNL     1      35.651 -25.682 -14.923  0.00  0.00    +0.203 C 
BRANCH  25  26
ATOM     26  C   UNL     1      36.747 -26.366 -14.117  0.00  0.00    +0.025 C 
BRANCH  26  27
ATOM     27  C   UNL     1      36.971 -25.675 -12.775  0.00  0.00    -0.074 C 
BRANCH  27  28
ATOM     28  N   UNL     1      37.759 -24.462 -12.955  0.00  0.00    +0.384 N 
ATOM     29  C   UNL     1      37.875 -23.729 -11.693  0.00  0.00    -0.101 C 
ATOM     30  C   UNL     1      39.088 -24.783 -13.479  0.00  0.00    -0.101 C 
ATOM     31  H   UNL     1      37.279 -23.868 -13.632  0.00  0.00    -0.080 HD
ENDBRANCH  27  28
ENDBRANCH  26  27
ENDBRANCH  25  26
ENDBRANCH  24  25
ENDBRANCH   7  24
TORSDOF 7
ENDMDL
MODEL 8
REMARK VINA RESULT:     -10.0      5.141     10.589
REMARK  Name = 16071605
REMARK  7 active torsions:
REMARK  status: ('A' for Active; 'I' for Inactive)
REMARK    1  A    between atoms: C_3  and  S_11
REMARK    2  A    between atoms: C_7  and  O_24
REMARK    3  A    between atoms: S_11  and  C_14
REMARK    4  A    between atoms: O_24  and  C_25
REMARK    5  A    between atoms: C_25  and  C_26
REMARK    6  A    between atoms: C_26  and  C_27
REMARK    7  A    between atoms: C_27  and  N_28
REMARK                            x       y       z     vdW  Elec       q    Type
REMARK                         _______ _______ _______ _____ _____    ______ ____
ROOT
ATOM      1  N   UNL     1      33.498 -22.463 -17.386  0.00  0.00    -0.260 N 
ATOM      2  N   UNL     1      32.891 -23.083 -16.355  0.00  0.00    -0.172 NA
ATOM      3  C   UNL     1      34.752 -22.052 -17.108  0.00  0.00    +0.186 A 
ATOM      4  C   UNL     1      34.997 -22.410 -15.834  0.00  0.00    +0.057 A 
ATOM      5  C   UNL     1      33.801 -23.067 -15.365  0.00  0.00    +0.104 A 
ATOM      6  C   UNL     1      36.169 -22.188 -15.123  0.00  0.00    +0.041 C 
ATOM      7  C   UNL     1      36.069 -22.700 -13.815  0.00  0.00    +0.139 C 
ATOM      8  C   UNL     1      33.729 -23.569 -14.052  0.00  0.00    +0.024 C 
ATOM      9  C   UNL     1      34.906 -23.359 -13.302  0.00  0.00    +0.039 C 
ATOM     10  H   UNL     1      33.067 -22.326 -18.260  0.00  0.00    +0.190 HD
ENDROOT
BRANCH   3  11
ATOM     11  S   UNL     1      35.719 -21.208 -18.357  0.00  0.00    +0.043 S 
ATOM     12  O   UNL     1      36.469 -22.225 -19.067  0.00  0.00    -0.163 OA
ATOM     13  O   UNL     1      36.378 -20.143 -17.626  0.00  0.00    -0.163 OA
BRANCH  11  14
ATOM     14  C   UNL     1      34.578 -20.508 -19.495  0.00  0.00    +0.112 C 
ATOM     15  C   UNL     1      34.958 -19.583 -20.482  0.00  0.00    +0.018 C 
ATOM     16  C   UNL     1      33.977 -19.065 -21.360  0.00  0.00    +0.001 C 
ATOM     17  C   UNL     1      33.249 -20.914 -19.375  0.00  0.00    +0.019 C 
ATOM     18  C   UNL     1      36.292 -19.162 -20.617  0.00  0.00    +0.001 C 
ATOM     19  C   UNL     1      32.644 -19.486 -21.225  0.00  0.00    +0.000 C 
ATOM     20  C   UNL     1      32.284 -20.405 -20.238  0.00  0.00    +0.001 C 
ATOM     21  C   UNL     1      34.357 -18.141 -22.347  0.00  0.00    +0.000 C 
ATOM     22  C   UNL     1      36.652 -18.244 -21.604  0.00  0.00    +0.000 C 
ATOM     23  C   UNL     1      35.685 -17.734 -22.467  0.00  0.00    +0.000 C 
ENDBRANCH  11  14
ENDBRANCH   3  11
BRANCH   7  24
ATOM     24  O   UNL     1      37.147 -22.560 -12.981  0.00  0.00    -0.476 OA
BRANCH  24  25
ATOM     25  C   UNL     1      37.165 -23.375 -11.816  0.00  0.00    +0.203 C 
BRANCH  25  26
ATOM     26  C   UNL     1      38.106 -24.550 -12.051  0.00  0.00    +0.025 C 
BRANCH  26  27
ATOM     27  C   UNL     1      37.339 -25.818 -12.411  0.00  0.00    -0.074 C 
BRANCH  27  28
ATOM     28  N   UNL     1      37.747 -26.302 -13.724  0.00  0.00    +0.384 N 
ATOM     29  C   UNL     1      36.623 -26.266 -14.661  0.00  0.00    -0.101 C 
ATOM     30  C   UNL     1      38.864 -25.509 -14.241  0.00  0.00    -0.101 C 
ATOM     31  H   UNL     1      38.055 -27.269 -13.624  0.00  0.00    -0.080 HD
ENDBRANCH  27  28
ENDBRANCH  26  27
ENDBRANCH  25  26
ENDBRANCH  24  25
ENDBRANCH   7  24
TORSDOF 7
ENDMDL
MODEL 9
REMARK VINA RESULT:      -9.8      6.017     12.051
REMARK  Name = 16071605
REMARK  7 active torsions:
REMARK  status: ('A' for Active; 'I' for Inactive)
REMARK    1  A    between atoms: C_3  and  S_11
REMARK    2  A    between atoms: C_7  and  O_24
REMARK    3  A    between atoms: S_11  and  C_14
REMARK    4  A    between atoms: O_24  and  C_25
REMARK    5  A    between atoms: C_25  and  C_26
REMARK    6  A    between atoms: C_26  and  C_27
REMARK    7  A    between atoms: C_27  and  N_28
REMARK                            x       y       z     vdW  Elec       q    Type
REMARK                         _______ _______ _______ _____ _____    ______ ____
ROOT
ATOM      1  N   UNL     1      31.342  -6.401 -20.233  0.00  0.00    -0.260 N 
ATOM      2  N   UNL     1      31.524  -7.159 -19.134  0.00  0.00    -0.172 NA
ATOM      3  C   UNL     1      31.192  -7.119 -21.366  0.00  0.00    +0.186 A 
ATOM      4  C   UNL     1      31.279  -8.413 -21.012  0.00  0.00    +0.057 A 
ATOM      5  C   UNL     1      31.490  -8.426 -19.584  0.00  0.00    +0.104 A 
ATOM      6  C   UNL     1      31.182  -9.511 -21.857  0.00  0.00    +0.041 C 
ATOM      7  C   UNL     1      31.319 -10.714 -21.138  0.00  0.00    +0.139 C 
ATOM      8  C   UNL     1      31.625  -9.643 -18.892  0.00  0.00    +0.024 C 
ATOM      9  C   UNL     1      31.531 -10.779 -19.724  0.00  0.00    +0.039 C 
ATOM     10  H   UNL     1      31.318  -5.418 -20.211  0.00  0.00    +0.190 HD
ENDROOT
BRANCH   3  11
ATOM     11  S   UNL     1      30.938  -6.285 -22.931  0.00  0.00    +0.043 S 
ATOM     12  O   UNL     1      30.736  -4.882 -22.632  0.00  0.00    -0.163 OA
ATOM     13  O   UNL     1      29.921  -7.082 -23.588  0.00  0.00    -0.163 OA
BRANCH  11  14
ATOM     14  C   UNL     1      32.444  -6.419 -23.827  0.00  0.00    +0.112 C 
ATOM     15  C   UNL     1      32.718  -5.653 -24.972  0.00  0.00    +0.018 C 
ATOM     16  C   UNL     1      33.956  -5.821 -25.638  0.00  0.00    +0.001 C 
ATOM     17  C   UNL     1      33.377  -7.337 -23.345  0.00  0.00    +0.019 C 
ATOM     18  C   UNL     1      31.791  -4.724 -25.472  0.00  0.00    +0.001 C 
ATOM     19  C   UNL     1      34.883  -6.750 -25.138  0.00  0.00    +0.000 C 
ATOM     20  C   UNL     1      34.594  -7.503 -23.999  0.00  0.00    +0.001 C 
ATOM     21  C   UNL     1      34.231  -5.056 -26.783  0.00  0.00    +0.000 C 
ATOM     22  C   UNL     1      32.080  -3.972 -26.611  0.00  0.00    +0.000 C 
ATOM     23  C   UNL     1      33.298  -4.138 -27.265  0.00  0.00    +0.000 C 
ENDBRANCH  11  14
ENDBRANCH   3  11
BRANCH   7  24
ATOM     24  O   UNL     1      31.247 -11.894 -21.831  0.00  0.00    -0.476 OA
BRANCH  24  25
ATOM     25  C   UNL     1      31.982 -12.992 -21.305  0.00  0.00    +0.203 C 
BRANCH  25  26
ATOM     26  C   UNL     1      33.361 -13.017 -21.950  0.00  0.00    +0.025 C 
BRANCH  26  27
ATOM     27  C   UNL     1      33.310 -12.548 -23.400  0.00  0.00    -0.074 C 
BRANCH  27  28
ATOM     28  N   UNL     1      32.664 -13.553 -24.235  0.00  0.00    +0.384 N 
ATOM     29  C   UNL     1      32.568 -13.090 -25.620  0.00  0.00    -0.101 C 
ATOM     30  C   UNL     1      33.394 -14.821 -24.174  0.00  0.00    -0.101 C 
ATOM     31  H   UNL     1      31.721 -13.705 -23.878  0.00  0.00    -0.080 HD
ENDBRANCH  27  28
ENDBRANCH  26  27
ENDBRANCH  25  26
ENDBRANCH  24  25
ENDBRANCH   7  24
TORSDOF 7
ENDMDL
