MODEL 1
REMARK VINA RESULT:     -10.9      0.000      0.000
REMARK  Name = 16214776
REMARK  6 active torsions:
REMARK  status: ('A' for Active; 'I' for Inactive)
REMARK    1  A    between atoms: C_1  and  C_2
REMARK    2  A    between atoms: C_1  and  C_10
REMARK    3  A    between atoms: C_1  and  N_18
REMARK    4  A    between atoms: N_9  and  C_13
REMARK    5  A    between atoms: N_18  and  S_20
REMARK    6  A    between atoms: S_20  and  C_26
REMARK                            x       y       z     vdW  Elec       q    Type
REMARK                         _______ _______ _______ _____ _____    ______ ____
ROOT
ATOM      1  C   UNL     1      33.928 -21.895 -17.182  0.00  0.00    +0.173 C 
ENDROOT
BRANCH   1   2
ATOM      2  C   UNL     1      33.826 -21.198 -18.520  0.00  0.00    +0.002 C 
ATOM      3  C   UNL     1      32.575 -20.897 -19.033  0.00  0.00    -0.002 C 
ATOM      4  C   UNL     1      34.985 -20.874 -19.205  0.00  0.00    -0.002 C 
ATOM      5  C   UNL     1      32.481 -20.253 -20.267  0.00  0.00    -0.000 C 
ATOM      6  C   UNL     1      34.890 -20.231 -20.439  0.00  0.00    -0.000 C 
ATOM      7  C   UNL     1      33.638 -19.920 -20.970  0.00  0.00    -0.000 C 
ENDBRANCH   1   2
BRANCH   1  10
ATOM      8  O   UNL     1      32.737 -23.904 -17.759  0.00  0.00    -0.273 OA
ATOM      9  N   UNL     1      31.964 -22.593 -15.973  0.00  0.00    -0.282 N 
ATOM     10  C   UNL     1      32.821 -22.928 -17.018  0.00  0.00    +0.246 C 
ATOM     11  H   UNL     1      32.172 -21.762 -15.490  0.00  0.00    +0.155 HD
BRANCH   9  13
ATOM     12  N   UNL     1      28.603 -24.716 -14.646  0.00  0.00    -0.242 NA
ATOM     13  C   UNL     1      30.828 -23.310 -15.525  0.00  0.00    +0.053 C 
ATOM     14  C   UNL     1      30.975 -24.259 -14.533  0.00  0.00    +0.035 C 
ATOM     15  C   UNL     1      29.596 -23.047 -16.087  0.00  0.00    +0.035 C 
ATOM     16  C   UNL     1      29.834 -24.933 -14.129  0.00  0.00    +0.100 C 
ATOM     17  C   UNL     1      28.516 -23.776 -15.615  0.00  0.00    +0.100 C 
ENDBRANCH   9  13
ENDBRANCH   1  10
BRANCH   1  18
ATOM     18  N   UNL     1      35.200 -22.607 -16.997  0.00  0.00    -0.171 NA
ATOM     19  H   UNL     1      34.985 -23.604 -17.019  0.00  0.00    +0.149 HD
BRANCH  18  20
ATOM     20  S   UNL     1      36.132 -22.333 -15.590  0.00  0.00    +0.049 S 
ATOM     21  O   UNL     1      35.295 -21.663 -14.602  0.00  0.00    -0.157 OA
ATOM     22  O   UNL     1      37.397 -21.726 -15.983  0.00  0.00    -0.157 OA
BRANCH  20  26
ATOM     23  S   UNL     1      40.120 -24.768 -14.334  0.00  0.00    +0.116 S 
ATOM     24  N   UNL     1      38.906 -23.738 -14.807  0.00  0.00    -0.193 NA
ATOM     25  N   UNL     1      39.251 -26.145 -14.007  0.00  0.00    -0.194 NA
ATOM     26  C   UNL     1      36.467 -23.954 -15.038  0.00  0.00    +0.209 C 
ATOM     27  C   UNL     1      37.761 -24.436 -14.727  0.00  0.00    +0.110 A 
ATOM     28  C   UNL     1      35.416 -24.873 -14.878  0.00  0.00    +0.000 C 
ATOM     29  C   UNL     1      37.965 -25.854 -14.255  0.00  0.00    +0.089 A 
ATOM     30  C   UNL     1      35.606 -26.203 -14.435  0.00  0.00    -0.022 C 
ATOM     31  C   UNL     1      36.866 -26.736 -14.113  0.00  0.00    +0.073 C 
ENDBRANCH  20  26
ENDBRANCH  18  20
ENDBRANCH   1  18
TORSDOF 6
ENDMDL
MODEL 2
REMARK VINA RESULT:     -10.8      1.759      2.099
REMARK  Name = 16214776
REMARK  6 active torsions:
REMARK  status: ('A' for Active; 'I' for Inactive)
REMARK    1  A    between atoms: C_1  and  C_2
REMARK    2  A    between atoms: C_1  and  C_10
REMARK    3  A    between atoms: C_1  and  N_18
REMARK    4  A    between atoms: N_9  and  C_13
REMARK    5  A    between atoms: N_18  and  S_20
REMARK    6  A    between atoms: S_20  and  C_26
REMARK                            x       y       z     vdW  Elec       q    Type
REMARK                         _______ _______ _______ _____ _____    ______ ____
ROOT
ATOM      1  C   UNL     1      34.546 -22.085 -16.785  0.00  0.00    +0.173 C 
ENDROOT
BRANCH   1   2
ATOM      2  C   UNL     1      34.535 -21.397 -18.131  0.00  0.00    +0.002 C 
ATOM      3  C   UNL     1      35.736 -21.036 -18.717  0.00  0.00    -0.002 C 
ATOM      4  C   UNL     1      33.323 -21.143 -18.752  0.00  0.00    -0.002 C 
ATOM      5  C   UNL     1      35.726 -20.401 -19.960  0.00  0.00    -0.000 C 
ATOM      6  C   UNL     1      33.313 -20.509 -19.995  0.00  0.00    -0.000 C 
ATOM      7  C   UNL     1      34.514 -20.138 -20.599  0.00  0.00    -0.000 C 
ENDBRANCH   1   2
BRANCH   1  10
ATOM      8  O   UNL     1      33.133 -23.913 -17.455  0.00  0.00    -0.273 OA
ATOM      9  N   UNL     1      32.595 -22.706 -15.516  0.00  0.00    -0.282 N 
ATOM     10  C   UNL     1      33.354 -23.021 -16.640  0.00  0.00    +0.246 C 
ATOM     11  H   UNL     1      32.911 -21.946 -14.977  0.00  0.00    +0.155 HD
BRANCH   9  13
ATOM     12  N   UNL     1      29.122 -24.621 -14.162  0.00  0.00    -0.242 NA
ATOM     13  C   UNL     1      31.421 -23.353 -15.059  0.00  0.00    +0.053 C 
ATOM     14  C   UNL     1      31.484 -24.156 -13.939  0.00  0.00    +0.035 C 
ATOM     15  C   UNL     1      30.236 -23.167 -15.741  0.00  0.00    +0.035 C 
ATOM     16  C   UNL     1      30.309 -24.767 -13.531  0.00  0.00    +0.100 C 
ATOM     17  C   UNL     1      29.117 -23.823 -15.253  0.00  0.00    +0.100 C 
ENDBRANCH   9  13
ENDBRANCH   1  10
BRANCH   1  18
ATOM     18  N   UNL     1      35.750 -22.897 -16.562  0.00  0.00    -0.171 NA
ATOM     19  H   UNL     1      35.433 -23.848 -16.373  0.00  0.00    +0.149 HD
BRANCH  18  20
ATOM     20  S   UNL     1      36.837 -22.481 -15.310  0.00  0.00    +0.049 S 
ATOM     21  O   UNL     1      36.286 -21.350 -14.573  0.00  0.00    -0.157 OA
ATOM     22  O   UNL     1      38.177 -22.379 -15.874  0.00  0.00    -0.157 OA
BRANCH  20  26
ATOM     23  S   UNL     1      35.891 -23.301 -10.636  0.00  0.00    +0.116 S 
ATOM     24  N   UNL     1      36.172 -22.778 -12.187  0.00  0.00    -0.193 NA
ATOM     25  N   UNL     1      36.148 -24.933 -10.806  0.00  0.00    -0.194 NA
ATOM     26  C   UNL     1      36.795 -23.894 -14.288  0.00  0.00    +0.209 C 
ATOM     27  C   UNL     1      36.480 -23.868 -12.908  0.00  0.00    +0.110 A 
ATOM     28  C   UNL     1      37.086 -25.159 -14.826  0.00  0.00    +0.000 C 
ATOM     29  C   UNL     1      36.466 -25.138 -12.095  0.00  0.00    +0.089 A 
ATOM     30  C   UNL     1      37.073 -26.350 -14.064  0.00  0.00    -0.022 C 
ATOM     31  C   UNL     1      36.768 -26.385 -12.692  0.00  0.00    +0.073 C 
ENDBRANCH  20  26
ENDBRANCH  18  20
ENDBRANCH   1  18
TORSDOF 6
ENDMDL
MODEL 3
REMARK VINA RESULT:     -10.8      1.744      1.884
REMARK  Name = 16214776
REMARK  6 active torsions:
REMARK  status: ('A' for Active; 'I' for Inactive)
REMARK    1  A    between atoms: C_1  and  C_2
REMARK    2  A    between atoms: C_1  and  C_10
REMARK    3  A    between atoms: C_1  and  N_18
REMARK    4  A    between atoms: N_9  and  C_13
REMARK    5  A    between atoms: N_18  and  S_20
REMARK    6  A    between atoms: S_20  and  C_26
REMARK                            x       y       z     vdW  Elec       q    Type
REMARK                         _______ _______ _______ _____ _____    ______ ____
ROOT
ATOM      1  C   UNL     1      34.487 -22.146 -16.649  0.00  0.00    +0.173 C 
ENDROOT
BRANCH   1   2
ATOM      2  C   UNL     1      34.531 -21.490 -18.010  0.00  0.00    +0.002 C 
ATOM      3  C   UNL     1      33.345 -21.237 -18.679  0.00  0.00    -0.002 C 
ATOM      4  C   UNL     1      35.757 -21.154 -18.561  0.00  0.00    -0.002 C 
ATOM      5  C   UNL     1      33.386 -20.631 -19.935  0.00  0.00    -0.000 C 
ATOM      6  C   UNL     1      35.797 -20.548 -19.817  0.00  0.00    -0.000 C 
ATOM      7  C   UNL     1      34.611 -20.286 -20.504  0.00  0.00    -0.000 C 
ENDBRANCH   1   2
BRANCH   1  10
ATOM      8  O   UNL     1      33.187 -24.066 -17.290  0.00  0.00    -0.273 OA
ATOM      9  N   UNL     1      32.427 -22.709 -15.532  0.00  0.00    -0.282 N 
ATOM     10  C   UNL     1      33.305 -23.100 -16.540  0.00  0.00    +0.246 C 
ATOM     11  H   UNL     1      32.671 -21.896 -15.035  0.00  0.00    +0.155 HD
BRANCH   9  13
ATOM     12  N   UNL     1      28.872 -24.597 -14.368  0.00  0.00    -0.242 NA
ATOM     13  C   UNL     1      31.226 -23.347 -15.140  0.00  0.00    +0.053 C 
ATOM     14  C   UNL     1      31.255 -24.273 -14.116  0.00  0.00    +0.035 C 
ATOM     15  C   UNL     1      30.049 -23.031 -15.785  0.00  0.00    +0.035 C 
ATOM     16  C   UNL     1      30.053 -24.869 -13.769  0.00  0.00    +0.100 C 
ATOM     17  C   UNL     1      28.901 -23.683 -15.363  0.00  0.00    +0.100 C 
ENDBRANCH   9  13
ENDBRANCH   1  10
BRANCH   1  18
ATOM     18  N   UNL     1      35.692 -22.931 -16.347  0.00  0.00    -0.171 NA
ATOM     19  H   UNL     1      35.383 -23.765 -15.848  0.00  0.00    +0.149 HD
BRANCH  18  20
ATOM     20  S   UNL     1      36.948 -22.238 -15.418  0.00  0.00    +0.049 S 
ATOM     21  O   UNL     1      36.651 -20.825 -15.215  0.00  0.00    -0.157 OA
ATOM     22  O   UNL     1      38.225 -22.620 -16.007  0.00  0.00    -0.157 OA
BRANCH  20  26
ATOM     23  S   UNL     1      36.928 -26.874 -14.033  0.00  0.00    +0.116 S 
ATOM     24  N   UNL     1      36.965 -25.373 -14.742  0.00  0.00    -0.193 NA
ATOM     25  N   UNL     1      36.726 -26.461 -12.438  0.00  0.00    -0.194 NA
ATOM     26  C   UNL     1      36.794 -23.071 -13.893  0.00  0.00    +0.209 C 
ATOM     27  C   UNL     1      36.821 -24.479 -13.750  0.00  0.00    +0.110 A 
ATOM     28  C   UNL     1      36.631 -22.337 -12.705  0.00  0.00    +0.000 C 
ATOM     29  C   UNL     1      36.680 -25.121 -12.392  0.00  0.00    +0.089 A 
ATOM     30  C   UNL     1      36.499 -22.938 -11.432  0.00  0.00    -0.022 C 
ATOM     31  C   UNL     1      36.517 -24.329 -11.229  0.00  0.00    +0.073 C 
ENDBRANCH  20  26
ENDBRANCH  18  20
ENDBRANCH   1  18
TORSDOF 6
ENDMDL
MODEL 4
REMARK VINA RESULT:     -10.5      1.759      2.298
REMARK  Name = 16214776
REMARK  6 active torsions:
REMARK  status: ('A' for Active; 'I' for Inactive)
REMARK    1  A    between atoms: C_1  and  C_2
REMARK    2  A    between atoms: C_1  and  C_10
REMARK    3  A    between atoms: C_1  and  N_18
REMARK    4  A    between atoms: N_9  and  C_13
REMARK    5  A    between atoms: N_18  and  S_20
REMARK    6  A    between atoms: S_20  and  C_26
REMARK                            x       y       z     vdW  Elec       q    Type
REMARK                         _______ _______ _______ _____ _____    ______ ____
ROOT
ATOM      1  C   UNL     1      33.998 -22.354 -16.534  0.00  0.00    +0.173 C 
ENDROOT
BRANCH   1   2
ATOM      2  C   UNL     1      34.360 -21.652 -17.823  0.00  0.00    +0.002 C 
ATOM      3  C   UNL     1      33.354 -21.281 -18.698  0.00  0.00    -0.002 C 
ATOM      4  C   UNL     1      35.692 -21.393 -18.102  0.00  0.00    -0.002 C 
ATOM      5  C   UNL     1      33.687 -20.633 -19.887  0.00  0.00    -0.000 C 
ATOM      6  C   UNL     1      36.026 -20.745 -19.292  0.00  0.00    -0.000 C 
ATOM      7  C   UNL     1      35.023 -20.365 -20.184  0.00  0.00    -0.000 C 
ENDBRANCH   1   2
BRANCH   1  10
ATOM      8  O   UNL     1      32.596 -24.078 -17.455  0.00  0.00    -0.273 OA
ATOM      9  N   UNL     1      31.698 -22.606 -15.864  0.00  0.00    -0.282 N 
ATOM     10  C   UNL     1      32.696 -23.130 -16.681  0.00  0.00    +0.246 C 
ATOM     11  H   UNL     1      31.949 -21.829 -15.314  0.00  0.00    +0.155 HD
BRANCH   9  13
ATOM     12  N   UNL     1      27.749 -23.954 -15.473  0.00  0.00    -0.242 NA
ATOM     13  C   UNL     1      30.364 -23.062 -15.731  0.00  0.00    +0.053 C 
ATOM     14  C   UNL     1      29.351 -22.391 -16.388  0.00  0.00    +0.035 C 
ATOM     15  C   UNL     1      30.101 -24.168 -14.950  0.00  0.00    +0.035 C 
ATOM     16  C   UNL     1      28.063 -22.877 -16.227  0.00  0.00    +0.100 C 
ATOM     17  C   UNL     1      28.779 -24.573 -14.852  0.00  0.00    +0.100 C 
ENDBRANCH   9  13
ENDBRANCH   1  10
BRANCH   1  18
ATOM     18  N   UNL     1      35.016 -23.319 -16.096  0.00  0.00    -0.171 NA
ATOM     19  H   UNL     1      35.221 -23.916 -16.897  0.00  0.00    +0.149 HD
BRANCH  18  20
ATOM     20  S   UNL     1      34.693 -24.357 -14.776  0.00  0.00    +0.049 S 
ATOM     21  O   UNL     1      34.846 -25.736 -15.222  0.00  0.00    -0.157 OA
ATOM     22  O   UNL     1      33.440 -23.943 -14.157  0.00  0.00    -0.157 OA
BRANCH  20  26
ATOM     23  S   UNL     1      39.487 -25.010 -14.755  0.00  0.00    +0.116 S 
ATOM     24  N   UNL     1      37.846 -24.900 -14.986  0.00  0.00    -0.193 NA
ATOM     25  N   UNL     1      39.642 -24.280 -13.272  0.00  0.00    -0.194 NA
ATOM     26  C   UNL     1      35.987 -23.975 -13.670  0.00  0.00    +0.209 C 
ATOM     27  C   UNL     1      37.348 -24.281 -13.903  0.00  0.00    +0.110 A 
ATOM     28  C   UNL     1      35.704 -23.322 -12.458  0.00  0.00    +0.000 C 
ATOM     29  C   UNL     1      38.407 -23.916 -12.893  0.00  0.00    +0.089 A 
ATOM     30  C   UNL     1      36.697 -22.979 -11.510  0.00  0.00    -0.022 C 
ATOM     31  C   UNL     1      38.062 -23.258 -11.688  0.00  0.00    +0.073 C 
ENDBRANCH  20  26
ENDBRANCH  18  20
ENDBRANCH   1  18
TORSDOF 6
ENDMDL
MODEL 5
REMARK VINA RESULT:     -10.3      2.290      5.236
REMARK  Name = 16214776
REMARK  6 active torsions:
REMARK  status: ('A' for Active; 'I' for Inactive)
REMARK    1  A    between atoms: C_1  and  C_2
REMARK    2  A    between atoms: C_1  and  C_10
REMARK    3  A    between atoms: C_1  and  N_18
REMARK    4  A    between atoms: N_9  and  C_13
REMARK    5  A    between atoms: N_18  and  S_20
REMARK    6  A    between atoms: S_20  and  C_26
REMARK                            x       y       z     vdW  Elec       q    Type
REMARK                         _______ _______ _______ _____ _____    ______ ____
ROOT
ATOM      1  C   UNL     1      33.808 -23.082 -15.731  0.00  0.00    +0.173 C 
ENDROOT
BRANCH   1   2
ATOM      2  C   UNL     1      32.615 -23.309 -14.831  0.00  0.00    +0.002 C 
ATOM      3  C   UNL     1      31.597 -22.371 -14.805  0.00  0.00    -0.002 C 
ATOM      4  C   UNL     1      32.562 -24.453 -14.051  0.00  0.00    -0.002 C 
ATOM      5  C   UNL     1      30.496 -22.581 -13.975  0.00  0.00    -0.000 C 
ATOM      6  C   UNL     1      31.461 -24.663 -13.221  0.00  0.00    -0.000 C 
ATOM      7  C   UNL     1      30.427 -23.727 -13.184  0.00  0.00    -0.000 C 
ENDBRANCH   1   2
BRANCH   1  10
ATOM      8  O   UNL     1      32.402 -23.143 -17.682  0.00  0.00    -0.273 OA
ATOM      9  N   UNL     1      34.203 -21.640 -17.620  0.00  0.00    -0.282 N 
ATOM     10  C   UNL     1      33.369 -22.635 -17.119  0.00  0.00    +0.246 C 
ATOM     11  H   UNL     1      34.944 -21.359 -17.037  0.00  0.00    +0.155 HD
BRANCH   9  13
ATOM     12  N   UNL     1      33.919 -19.696 -21.321  0.00  0.00    -0.242 NA
ATOM     13  C   UNL     1      34.108 -20.983 -18.870  0.00  0.00    +0.053 C 
ATOM     14  C   UNL     1      32.862 -20.688 -19.386  0.00  0.00    +0.035 C 
ATOM     15  C   UNL     1      35.261 -20.650 -19.550  0.00  0.00    +0.035 C 
ATOM     16  C   UNL     1      32.821 -20.044 -20.613  0.00  0.00    +0.100 C 
ATOM     17  C   UNL     1      35.113 -20.009 -20.770  0.00  0.00    +0.100 C 
ENDBRANCH   9  13
ENDBRANCH   1  10
BRANCH   1  18
ATOM     18  N   UNL     1      34.723 -22.049 -15.226  0.00  0.00    -0.171 NA
ATOM     19  H   UNL     1      34.554 -21.209 -15.779  0.00  0.00    +0.149 HD
BRANCH  18  20
ATOM     20  S   UNL     1      36.411 -22.323 -15.247  0.00  0.00    +0.049 S 
ATOM     21  O   UNL     1      37.068 -21.229 -14.541  0.00  0.00    -0.157 OA
ATOM     22  O   UNL     1      36.813 -22.632 -16.613  0.00  0.00    -0.157 OA
BRANCH  20  26
ATOM     23  S   UNL     1      35.573 -23.521 -10.635  0.00  0.00    +0.116 S 
ATOM     24  N   UNL     1      35.781 -22.880 -12.153  0.00  0.00    -0.193 NA
ATOM     25  N   UNL     1      36.063 -25.087 -10.888  0.00  0.00    -0.194 NA
ATOM     26  C   UNL     1      36.569 -23.780 -14.302  0.00  0.00    +0.209 C 
ATOM     27  C   UNL     1      36.247 -23.874 -12.927  0.00  0.00    +0.110 A 
ATOM     28  C   UNL     1      37.042 -24.959 -14.903  0.00  0.00    +0.000 C 
ATOM     29  C   UNL     1      36.413 -25.175 -12.181  0.00  0.00    +0.089 A 
ATOM     30  C   UNL     1      37.197 -26.179 -14.204  0.00  0.00    -0.022 C 
ATOM     31  C   UNL     1      36.895 -26.331 -12.840  0.00  0.00    +0.073 C 
ENDBRANCH  20  26
ENDBRANCH  18  20
ENDBRANCH   1  18
TORSDOF 6
ENDMDL
MODEL 6
REMARK VINA RESULT:     -10.3      2.578      7.377
REMARK  Name = 16214776
REMARK  6 active torsions:
REMARK  status: ('A' for Active; 'I' for Inactive)
REMARK    1  A    between atoms: C_1  and  C_2
REMARK    2  A    between atoms: C_1  and  C_10
REMARK    3  A    between atoms: C_1  and  N_18
REMARK    4  A    between atoms: N_9  and  C_13
REMARK    5  A    between atoms: N_18  and  S_20
REMARK    6  A    between atoms: S_20  and  C_26
REMARK                            x       y       z     vdW  Elec       q    Type
REMARK                         _______ _______ _______ _____ _____    ______ ____
ROOT
ATOM      1  C   UNL     1      34.465 -22.571 -15.849  0.00  0.00    +0.173 C 
ENDROOT
BRANCH   1   2
ATOM      2  C   UNL     1      33.043 -22.730 -15.361  0.00  0.00    +0.002 C 
ATOM      3  C   UNL     1      32.802 -22.826 -14.001  0.00  0.00    -0.002 C 
ATOM      4  C   UNL     1      32.011 -22.774 -16.283  0.00  0.00    -0.002 C 
ATOM      5  C   UNL     1      31.489 -22.972 -13.549  0.00  0.00    -0.000 C 
ATOM      6  C   UNL     1      30.699 -22.921 -15.831  0.00  0.00    -0.000 C 
ATOM      7  C   UNL     1      30.439 -23.019 -14.464  0.00  0.00    -0.000 C 
ENDBRANCH   1   2
BRANCH   1  10
ATOM      8  O   UNL     1      34.930 -24.892 -15.420  0.00  0.00    -0.273 OA
ATOM      9  N   UNL     1      36.574 -23.291 -14.932  0.00  0.00    -0.282 N 
ATOM     10  C   UNL     1      35.335 -23.733 -15.388  0.00  0.00    +0.246 C 
ATOM     11  H   UNL     1      36.727 -22.320 -14.964  0.00  0.00    +0.155 HD
BRANCH   9  13
ATOM     12  N   UNL     1      39.727 -25.616 -13.446  0.00  0.00    -0.242 NA
ATOM     13  C   UNL     1      37.639 -24.076 -14.430  0.00  0.00    +0.053 C 
ATOM     14  C   UNL     1      38.799 -24.194 -15.168  0.00  0.00    +0.035 C 
ATOM     15  C   UNL     1      37.498 -24.709 -13.212  0.00  0.00    +0.035 C 
ATOM     16  C   UNL     1      39.812 -24.974 -14.633  0.00  0.00    +0.100 C 
ATOM     17  C   UNL     1      38.569 -25.467 -12.765  0.00  0.00    +0.100 C 
ENDBRANCH   9  13
ENDBRANCH   1  10
BRANCH   1  18
ATOM     18  N   UNL     1      34.570 -22.522 -17.314  0.00  0.00    -0.171 NA
ATOM     19  H   UNL     1      34.862 -23.450 -17.620  0.00  0.00    +0.149 HD
BRANCH  18  20
ATOM     20  S   UNL     1      35.630 -21.403 -18.054  0.00  0.00    +0.049 S 
ATOM     21  O   UNL     1      36.688 -22.142 -18.732  0.00  0.00    -0.157 OA
ATOM     22  O   UNL     1      35.987 -20.385 -17.074  0.00  0.00    -0.157 OA
BRANCH  20  26
ATOM     23  S   UNL     1      36.305 -18.167 -21.588  0.00  0.00    +0.116 S 
ATOM     24  N   UNL     1      36.319 -19.249 -20.328  0.00  0.00    -0.193 NA
ATOM     25  N   UNL     1      34.706 -18.228 -22.034  0.00  0.00    -0.194 NA
ATOM     26  C   UNL     1      34.609 -20.653 -19.254  0.00  0.00    +0.209 C 
ATOM     27  C   UNL     1      35.062 -19.708 -20.205  0.00  0.00    +0.110 A 
ATOM     28  C   UNL     1      33.243 -20.979 -19.317  0.00  0.00    +0.000 C 
ATOM     29  C   UNL     1      34.112 -19.106 -21.210  0.00  0.00    +0.089 A 
ATOM     30  C   UNL     1      32.352 -20.415 -20.260  0.00  0.00    -0.022 C 
ATOM     31  C   UNL     1      32.745 -19.473 -21.225  0.00  0.00    +0.073 C 
ENDBRANCH  20  26
ENDBRANCH  18  20
ENDBRANCH   1  18
TORSDOF 6
ENDMDL
MODEL 7
REMARK VINA RESULT:     -10.2      2.556      5.643
REMARK  Name = 16214776
REMARK  6 active torsions:
REMARK  status: ('A' for Active; 'I' for Inactive)
REMARK    1  A    between atoms: C_1  and  C_2
REMARK    2  A    between atoms: C_1  and  C_10
REMARK    3  A    between atoms: C_1  and  N_18
REMARK    4  A    between atoms: N_9  and  C_13
REMARK    5  A    between atoms: N_18  and  S_20
REMARK    6  A    between atoms: S_20  and  C_26
REMARK                            x       y       z     vdW  Elec       q    Type
REMARK                         _______ _______ _______ _____ _____    ______ ____
ROOT
ATOM      1  C   UNL     1      31.739 -23.200 -16.115  0.00  0.00    +0.173 C 
ENDROOT
BRANCH   1   2
ATOM      2  C   UNL     1      30.272 -23.174 -15.749  0.00  0.00    +0.002 C 
ATOM      3  C   UNL     1      29.718 -22.006 -15.254  0.00  0.00    -0.002 C 
ATOM      4  C   UNL     1      29.511 -24.319 -15.918  0.00  0.00    -0.002 C 
ATOM      5  C   UNL     1      28.364 -21.982 -14.917  0.00  0.00    -0.000 C 
ATOM      6  C   UNL     1      28.158 -24.295 -15.581  0.00  0.00    -0.000 C 
ATOM      7  C   UNL     1      27.584 -23.126 -15.081  0.00  0.00    -0.000 C 
ENDBRANCH   1   2
BRANCH   1  10
ATOM      8  O   UNL     1      31.139 -21.618 -17.824  0.00  0.00    -0.273 OA
ATOM      9  N   UNL     1      33.396 -22.197 -17.547  0.00  0.00    -0.282 N 
ATOM     10  C   UNL     1      32.035 -22.238 -17.257  0.00  0.00    +0.246 C 
ATOM     11  H   UNL     1      33.975 -22.774 -16.999  0.00  0.00    +0.155 HD
BRANCH   9  13
ATOM     12  N   UNL     1      35.312 -19.901 -20.483  0.00  0.00    -0.242 NA
ATOM     13  C   UNL     1      34.044 -21.422 -18.539  0.00  0.00    +0.053 C 
ATOM     14  C   UNL     1      33.284 -20.751 -19.476  0.00  0.00    +0.035 C 
ATOM     15  C   UNL     1      35.421 -21.350 -18.550  0.00  0.00    +0.035 C 
ATOM     16  C   UNL     1      33.965 -20.005 -20.425  0.00  0.00    +0.100 C 
ATOM     17  C   UNL     1      36.007 -20.579 -19.541  0.00  0.00    +0.100 C 
ENDBRANCH   9  13
ENDBRANCH   1  10
BRANCH   1  18
ATOM     18  N   UNL     1      32.618 -22.816 -15.001  0.00  0.00    -0.171 NA
ATOM     19  H   UNL     1      33.576 -22.906 -15.338  0.00  0.00    +0.149 HD
BRANCH  18  20
ATOM     20  S   UNL     1      32.534 -23.664 -13.519  0.00  0.00    +0.049 S 
ATOM     21  O   UNL     1      32.163 -25.047 -13.795  0.00  0.00    -0.157 OA
ATOM     22  O   UNL     1      31.732 -22.884 -12.584  0.00  0.00    -0.157 OA
BRANCH  20  26
ATOM     23  S   UNL     1      36.781 -22.470 -15.506  0.00  0.00    +0.116 S 
ATOM     24  N   UNL     1      35.224 -22.821 -15.047  0.00  0.00    -0.193 NA
ATOM     25  N   UNL     1      37.603 -22.811 -14.104  0.00  0.00    -0.194 NA
ATOM     26  C   UNL     1      34.188 -23.623 -12.966  0.00  0.00    +0.209 C 
ATOM     27  C   UNL     1      35.284 -23.222 -13.767  0.00  0.00    +0.110 A 
ATOM     28  C   UNL     1      34.498 -24.004 -11.649  0.00  0.00    +0.000 C 
ATOM     29  C   UNL     1      36.686 -23.216 -13.211  0.00  0.00    +0.089 A 
ATOM     30  C   UNL     1      35.812 -23.998 -11.127  0.00  0.00    -0.022 C 
ATOM     31  C   UNL     1      36.938 -23.611 -11.875  0.00  0.00    +0.073 C 
ENDBRANCH  20  26
ENDBRANCH  18  20
ENDBRANCH   1  18
TORSDOF 6
ENDMDL
MODEL 8
REMARK VINA RESULT:     -10.1      2.199      2.746
REMARK  Name = 16214776
REMARK  6 active torsions:
REMARK  status: ('A' for Active; 'I' for Inactive)
REMARK    1  A    between atoms: C_1  and  C_2
REMARK    2  A    between atoms: C_1  and  C_10
REMARK    3  A    between atoms: C_1  and  N_18
REMARK    4  A    between atoms: N_9  and  C_13
REMARK    5  A    between atoms: N_18  and  S_20
REMARK    6  A    between atoms: S_20  and  C_26
REMARK                            x       y       z     vdW  Elec       q    Type
REMARK                         _______ _______ _______ _____ _____    ______ ____
ROOT
ATOM      1  C   UNL     1      33.998 -22.238 -16.668  0.00  0.00    +0.173 C 
ENDROOT
BRANCH   1   2
ATOM      2  C   UNL     1      34.354 -21.541 -17.961  0.00  0.00    +0.002 C 
ATOM      3  C   UNL     1      35.686 -21.311 -18.261  0.00  0.00    -0.002 C 
ATOM      4  C   UNL     1      33.342 -21.147 -18.820  0.00  0.00    -0.002 C 
ATOM      5  C   UNL     1      36.016 -20.667 -19.455  0.00  0.00    -0.000 C 
ATOM      6  C   UNL     1      33.671 -20.504 -20.014  0.00  0.00    -0.000 C 
ATOM      7  C   UNL     1      35.009 -20.265 -20.331  0.00  0.00    -0.000 C 
ENDBRANCH   1   2
BRANCH   1  10
ATOM      8  O   UNL     1      32.570 -23.917 -17.632  0.00  0.00    -0.273 OA
ATOM      9  N   UNL     1      31.729 -22.550 -15.920  0.00  0.00    -0.282 N 
ATOM     10  C   UNL     1      32.696 -23.016 -16.807  0.00  0.00    +0.246 C 
ATOM     11  H   UNL     1      31.997 -21.806 -15.336  0.00  0.00    +0.155 HD
BRANCH   9  13
ATOM     12  N   UNL     1      27.811 -23.959 -15.445  0.00  0.00    -0.242 NA
ATOM     13  C   UNL     1      30.405 -23.026 -15.760  0.00  0.00    +0.053 C 
ATOM     14  C   UNL     1      30.173 -24.122 -14.952  0.00  0.00    +0.035 C 
ATOM     15  C   UNL     1      29.372 -22.386 -16.412  0.00  0.00    +0.035 C 
ATOM     16  C   UNL     1      28.860 -24.548 -14.828  0.00  0.00    +0.100 C 
ATOM     17  C   UNL     1      28.095 -22.891 -16.223  0.00  0.00    +0.100 C 
ENDBRANCH   9  13
ENDBRANCH   1  10
BRANCH   1  18
ATOM     18  N   UNL     1      35.018 -23.200 -16.229  0.00  0.00    -0.171 NA
ATOM     19  H   UNL     1      35.288 -23.738 -17.052  0.00  0.00    +0.149 HD
BRANCH  18  20
ATOM     20  S   UNL     1      34.651 -24.328 -14.998  0.00  0.00    +0.049 S 
ATOM     21  O   UNL     1      34.551 -25.653 -15.598  0.00  0.00    -0.157 OA
ATOM     22  O   UNL     1      33.534 -23.814 -14.216  0.00  0.00    -0.157 OA
BRANCH  20  26
ATOM     23  S   UNL     1      35.483 -23.941 -10.248  0.00  0.00    +0.116 S 
ATOM     24  N   UNL     1      34.954 -24.064 -11.817  0.00  0.00    -0.193 NA
ATOM     25  N   UNL     1      37.128 -23.990 -10.469  0.00  0.00    -0.194 NA
ATOM     26  C   UNL     1      36.077 -24.270 -13.995  0.00  0.00    +0.209 C 
ATOM     27  C   UNL     1      36.052 -24.150 -12.585  0.00  0.00    +0.110 A 
ATOM     28  C   UNL     1      37.352 -24.343 -14.582  0.00  0.00    +0.000 C 
ATOM     29  C   UNL     1      37.334 -24.106 -11.790  0.00  0.00    +0.089 A 
ATOM     30  C   UNL     1      38.554 -24.302 -13.837  0.00  0.00    -0.022 C 
ATOM     31  C   UNL     1      38.590 -24.184 -12.437  0.00  0.00    +0.073 C 
ENDBRANCH  20  26
ENDBRANCH  18  20
ENDBRANCH   1  18
TORSDOF 6
ENDMDL
MODEL 9
REMARK VINA RESULT:      -9.9      2.067      5.353
REMARK  Name = 16214776
REMARK  6 active torsions:
REMARK  status: ('A' for Active; 'I' for Inactive)
REMARK    1  A    between atoms: C_1  and  C_2
REMARK    2  A    between atoms: C_1  and  C_10
REMARK    3  A    between atoms: C_1  and  N_18
REMARK    4  A    between atoms: N_9  and  C_13
REMARK    5  A    between atoms: N_18  and  S_20
REMARK    6  A    between atoms: S_20  and  C_26
REMARK                            x       y       z     vdW  Elec       q    Type
REMARK                         _______ _______ _______ _____ _____    ______ ____
ROOT
ATOM      1  C   UNL     1      32.115 -23.168 -16.133  0.00  0.00    +0.173 C 
ENDROOT
BRANCH   1   2
ATOM      2  C   UNL     1      30.700 -23.290 -15.617  0.00  0.00    +0.002 C 
ATOM      3  C   UNL     1      30.067 -22.170 -15.105  0.00  0.00    -0.002 C 
ATOM      4  C   UNL     1      30.063 -24.519 -15.668  0.00  0.00    -0.002 C 
ATOM      5  C   UNL     1      28.760 -22.282 -14.629  0.00  0.00    -0.000 C 
ATOM      6  C   UNL     1      28.757 -24.632 -15.192  0.00  0.00    -0.000 C 
ATOM      7  C   UNL     1      28.105 -23.512 -14.673  0.00  0.00    -0.000 C 
ENDBRANCH   1   2
BRANCH   1  10
ATOM      8  O   UNL     1      31.167 -21.745 -17.825  0.00  0.00    -0.273 OA
ATOM      9  N   UNL     1      33.492 -22.055 -17.767  0.00  0.00    -0.282 N 
ATOM     10  C   UNL     1      32.181 -22.234 -17.334  0.00  0.00    +0.246 C 
ATOM     11  H   UNL     1      34.186 -22.537 -17.263  0.00  0.00    +0.155 HD
BRANCH   9  13
ATOM     12  N   UNL     1      34.826 -19.703 -20.968  0.00  0.00    -0.242 NA
ATOM     13  C   UNL     1      33.942 -21.260 -18.849  0.00  0.00    +0.053 C 
ATOM     14  C   UNL     1      35.297 -21.149 -19.089  0.00  0.00    +0.035 C 
ATOM     15  C   UNL     1      33.019 -20.612 -19.643  0.00  0.00    +0.035 C 
ATOM     16  C   UNL     1      35.687 -20.360 -20.159  0.00  0.00    +0.100 C 
ATOM     17  C   UNL     1      33.511 -19.846 -20.688  0.00  0.00    +0.100 C 
ENDBRANCH   9  13
ENDBRANCH   1  10
BRANCH   1  18
ATOM     18  N   UNL     1      33.051 -22.635 -15.132  0.00  0.00    -0.171 NA
ATOM     19  H   UNL     1      33.710 -22.039 -15.633  0.00  0.00    +0.149 HD
BRANCH  18  20
ATOM     20  S   UNL     1      33.980 -23.708 -14.180  0.00  0.00    +0.049 S 
ATOM     21  O   UNL     1      33.652 -25.075 -14.566  0.00  0.00    -0.157 OA
ATOM     22  O   UNL     1      33.857 -23.313 -12.783  0.00  0.00    -0.157 OA
BRANCH  20  26
ATOM     23  S   UNL     1      38.361 -25.476 -13.136  0.00  0.00    +0.116 S 
ATOM     24  N   UNL     1      36.771 -25.040 -13.332  0.00  0.00    -0.193 NA
ATOM     25  N   UNL     1      39.106 -24.412 -14.172  0.00  0.00    -0.194 NA
ATOM     26  C   UNL     1      35.610 -23.353 -14.693  0.00  0.00    +0.209 C 
ATOM     27  C   UNL     1      36.757 -24.036 -14.224  0.00  0.00    +0.110 A 
ATOM     28  C   UNL     1      35.844 -22.332 -15.629  0.00  0.00    +0.000 C 
ATOM     29  C   UNL     1      38.133 -23.667 -14.719  0.00  0.00    +0.089 A 
ATOM     30  C   UNL     1      37.134 -21.985 -16.094  0.00  0.00    -0.022 C 
ATOM     31  C   UNL     1      38.308 -22.627 -15.664  0.00  0.00    +0.073 C 
ENDBRANCH  20  26
ENDBRANCH  18  20
ENDBRANCH   1  18
TORSDOF 6
ENDMDL
