MODEL 1
REMARK VINA RESULT:     -13.0      0.000      0.000
REMARK  Name = 1202104
REMARK  5 active torsions:
REMARK  status: ('A' for Active; 'I' for Inactive)
REMARK    1  A    between atoms: C_1  and  N_9
REMARK    2  A    between atoms: C_4  and  S_21
REMARK    3  A    between atoms: C_16  and  N_18
REMARK    4  A    between atoms: S_21  and  C_22
REMARK    5  A    between atoms: C_25  and  N_28
REMARK                            x       y       z     vdW  Elec       q    Type
REMARK                         _______ _______ _______ _____ _____    ______ ____
ROOT
ATOM      1  C   UNL     1      33.590 -14.482 -22.088  0.00  0.00    +0.061 C 
ATOM      2  C   UNL     1      33.999 -15.090 -20.899  0.00  0.00    +0.016 C 
ATOM      3  C   UNL     1      33.817 -15.124 -23.308  0.00  0.00    +0.016 C 
ATOM      4  C   UNL     1      34.855 -16.972 -22.149  0.00  0.00    +0.030 C 
ATOM      5  C   UNL     1      34.631 -16.332 -20.929  0.00  0.00    +0.008 C 
ATOM      6  C   UNL     1      34.449 -16.368 -23.338  0.00  0.00    +0.008 C 
ENDROOT
BRANCH   1   9
ATOM      7  O   UNL     1      33.767 -12.166 -24.044  0.00  0.00    -0.269 OA
ATOM      8  O   UNL     1      31.655 -13.326 -20.054  0.00  0.00    -0.269 OA
ATOM      9  N   UNL     1      32.943 -13.203 -22.059  0.00  0.00    -0.201 N 
ATOM     10  C   UNL     1      32.261 -11.095 -22.613  0.00  0.00    +0.060 C 
ATOM     11  C   UNL     1      31.660 -11.428 -21.416  0.00  0.00    +0.059 C 
ATOM     12  C   UNL     1      33.091 -12.222 -23.032  0.00  0.00    +0.259 C 
ATOM     13  C   UNL     1      32.083 -12.778 -21.053  0.00  0.00    +0.259 C 
ATOM     14  C   UNL     1      32.051  -9.873 -23.221  0.00  0.00    +0.019 C 
ATOM     15  C   UNL     1      30.811 -10.558 -20.760  0.00  0.00    +0.006 C 
ATOM     16  C   UNL     1      31.196  -8.977 -22.577  0.00  0.00    +0.042 C 
ATOM     17  C   UNL     1      30.581  -9.316 -21.356  0.00  0.00    +0.014 C 
BRANCH  16  18
ATOM     18  N   UNL     1      30.945  -7.712 -23.154  0.00  0.00    -0.357 N 
ATOM     19  H   UNL     1      30.958  -6.903 -22.593  0.00  0.00    +0.142 HD
ATOM     20  H   UNL     1      30.756  -7.640 -24.118  0.00  0.00    +0.142 HD
ENDBRANCH  16  18
ENDBRANCH   1   9
BRANCH   4  21
ATOM     21  S   UNL     1      35.667 -18.558 -22.188  0.00  0.00    -0.087 S 
BRANCH  21  22
ATOM     22  C   UNL     1      34.642 -19.503 -21.070  0.00  0.00    +0.030 C 
ATOM     23  C   UNL     1      35.234 -20.311 -20.104  0.00  0.00    +0.008 C 
ATOM     24  C   UNL     1      33.255 -19.428 -21.170  0.00  0.00    +0.008 C 
ATOM     25  C   UNL     1      33.045 -20.977 -19.329  0.00  0.00    +0.042 C 
ATOM     26  C   UNL     1      34.435 -21.050 -19.232  0.00  0.00    +0.015 C 
ATOM     27  C   UNL     1      32.455 -20.165 -20.298  0.00  0.00    +0.015 C 
BRANCH  25  28
ATOM     28  N   UNL     1      32.235 -21.724 -18.447  0.00  0.00    -0.357 N 
ATOM     29  H   UNL     1      31.532 -22.313 -18.806  0.00  0.00    +0.142 HD
ATOM     30  H   UNL     1      32.373 -21.656 -17.476  0.00  0.00    +0.142 HD
ENDBRANCH  25  28
ENDBRANCH  21  22
ENDBRANCH   4  21
TORSDOF 5
ENDMDL
MODEL 2
REMARK VINA RESULT:     -11.9      4.046     10.320
REMARK  Name = 1202104
REMARK  5 active torsions:
REMARK  status: ('A' for Active; 'I' for Inactive)
REMARK    1  A    between atoms: C_1  and  N_9
REMARK    2  A    between atoms: C_4  and  S_21
REMARK    3  A    between atoms: C_16  and  N_18
REMARK    4  A    between atoms: S_21  and  C_22
REMARK    5  A    between atoms: C_25  and  N_28
REMARK                            x       y       z     vdW  Elec       q    Type
REMARK                         _______ _______ _______ _____ _____    ______ ____
ROOT
ATOM      1  C   UNL     1      34.229 -20.939 -19.066  0.00  0.00    +0.061 C 
ATOM      2  C   UNL     1      35.545 -20.672 -19.449  0.00  0.00    +0.016 C 
ATOM      3  C   UNL     1      33.172 -20.463 -19.846  0.00  0.00    +0.016 C 
ATOM      4  C   UNL     1      34.745 -19.461 -21.380  0.00  0.00    +0.030 C 
ATOM      5  C   UNL     1      35.804 -19.935 -20.604  0.00  0.00    +0.008 C 
ATOM      6  C   UNL     1      33.430 -19.725 -21.002  0.00  0.00    +0.008 C 
ENDROOT
BRANCH   1   9
ATOM      7  O   UNL     1      31.590 -21.945 -17.950  0.00  0.00    -0.269 OA
ATOM      8  O   UNL     1      36.144 -21.984 -16.956  0.00  0.00    -0.269 OA
ATOM      9  N   UNL     1      33.962 -21.694 -17.877  0.00  0.00    -0.201 N 
ATOM     10  C   UNL     1      32.886 -22.849 -16.228  0.00  0.00    +0.060 C 
ATOM     11  C   UNL     1      34.231 -22.834 -15.918  0.00  0.00    +0.059 C 
ATOM     12  C   UNL     1      32.700 -22.116 -17.478  0.00  0.00    +0.259 C 
ATOM     13  C   UNL     1      34.933 -22.103 -16.970  0.00  0.00    +0.259 C 
ATOM     14  C   UNL     1      31.957 -23.473 -15.419  0.00  0.00    +0.019 C 
ATOM     15  C   UNL     1      34.725 -23.446 -14.783  0.00  0.00    +0.006 C 
ATOM     16  C   UNL     1      32.432 -24.100 -14.265  0.00  0.00    +0.042 C 
ATOM     17  C   UNL     1      33.804 -24.087 -13.949  0.00  0.00    +0.014 C 
BRANCH  16  18
ATOM     18  N   UNL     1      31.527 -24.755 -13.401  0.00  0.00    -0.357 N 
ATOM     19  H   UNL     1      31.464 -25.738 -13.407  0.00  0.00    +0.142 HD
ATOM     20  H   UNL     1      30.957 -24.229 -12.793  0.00  0.00    +0.142 HD
ENDBRANCH  16  18
ENDBRANCH   1   9
BRANCH   4  21
ATOM     21  S   UNL     1      35.075 -18.515 -22.854  0.00  0.00    -0.087 S 
BRANCH  21  22
ATOM     22  C   UNL     1      34.592 -16.875 -22.332  0.00  0.00    +0.030 C 
ATOM     23  C   UNL     1      34.511 -16.577 -20.976  0.00  0.00    +0.008 C 
ATOM     24  C   UNL     1      34.296 -15.904 -23.285  0.00  0.00    +0.008 C 
ATOM     25  C   UNL     1      33.837 -14.321 -21.519  0.00  0.00    +0.042 C 
ATOM     26  C   UNL     1      34.133 -15.298 -20.568  0.00  0.00    +0.015 C 
ATOM     27  C   UNL     1      33.919 -14.625 -22.879  0.00  0.00    +0.015 C 
BRANCH  25  28
ATOM     28  N   UNL     1      33.454 -13.027 -21.107  0.00  0.00    -0.357 N 
ATOM     29  H   UNL     1      33.921 -12.591 -20.359  0.00  0.00    +0.142 HD
ATOM     30  H   UNL     1      32.719 -12.562 -21.568  0.00  0.00    +0.142 HD
ENDBRANCH  25  28
ENDBRANCH  21  22
ENDBRANCH   4  21
TORSDOF 5
ENDMDL
MODEL 3
REMARK VINA RESULT:     -11.7      4.048     10.290
REMARK  Name = 1202104
REMARK  5 active torsions:
REMARK  status: ('A' for Active; 'I' for Inactive)
REMARK    1  A    between atoms: C_1  and  N_9
REMARK    2  A    between atoms: C_4  and  S_21
REMARK    3  A    between atoms: C_16  and  N_18
REMARK    4  A    between atoms: S_21  and  C_22
REMARK    5  A    between atoms: C_25  and  N_28
REMARK                            x       y       z     vdW  Elec       q    Type
REMARK                         _______ _______ _______ _____ _____    ______ ____
ROOT
ATOM      1  C   UNL     1      34.308 -20.890 -19.069  0.00  0.00    +0.061 C 
ATOM      2  C   UNL     1      35.616 -20.593 -19.462  0.00  0.00    +0.016 C 
ATOM      3  C   UNL     1      33.236 -20.465 -19.857  0.00  0.00    +0.016 C 
ATOM      4  C   UNL     1      34.777 -19.453 -21.419  0.00  0.00    +0.030 C 
ATOM      5  C   UNL     1      35.850 -19.876 -20.634  0.00  0.00    +0.008 C 
ATOM      6  C   UNL     1      33.470 -19.747 -21.031  0.00  0.00    +0.008 C 
ENDROOT
BRANCH   1   9
ATOM      7  O   UNL     1      36.249 -21.778 -16.909  0.00  0.00    -0.269 OA
ATOM      8  O   UNL     1      31.711 -21.994 -17.951  0.00  0.00    -0.269 OA
ATOM      9  N   UNL     1      34.066 -21.624 -17.862  0.00  0.00    -0.201 N 
ATOM     10  C   UNL     1      34.368 -22.693 -15.867  0.00  0.00    +0.060 C 
ATOM     11  C   UNL     1      33.029 -22.783 -16.191  0.00  0.00    +0.059 C 
ATOM     12  C   UNL     1      35.045 -21.958 -16.933  0.00  0.00    +0.259 C 
ATOM     13  C   UNL     1      32.822 -22.097 -17.464  0.00  0.00    +0.259 C 
ATOM     14  C   UNL     1      34.879 -23.246 -14.709  0.00  0.00    +0.019 C 
ATOM     15  C   UNL     1      32.123 -23.429 -15.373  0.00  0.00    +0.006 C 
ATOM     16  C   UNL     1      33.981 -23.905 -13.866  0.00  0.00    +0.042 C 
ATOM     17  C   UNL     1      32.615 -23.996 -14.195  0.00  0.00    +0.014 C 
BRANCH  16  18
ATOM     18  N   UNL     1      34.448 -24.489 -12.668  0.00  0.00    -0.357 N 
ATOM     19  H   UNL     1      35.384 -24.361 -12.390  0.00  0.00    +0.142 HD
ATOM     20  H   UNL     1      33.838 -25.025 -12.110  0.00  0.00    +0.142 HD
ENDBRANCH  16  18
ENDBRANCH   1   9
BRANCH   4  21
ATOM     21  S   UNL     1      35.075 -18.533 -22.916  0.00  0.00    -0.087 S 
BRANCH  21  22
ATOM     22  C   UNL     1      34.592 -16.886 -22.416  0.00  0.00    +0.030 C 
ATOM     23  C   UNL     1      34.517 -16.568 -21.064  0.00  0.00    +0.008 C 
ATOM     24  C   UNL     1      34.292 -15.929 -23.382  0.00  0.00    +0.008 C 
ATOM     25  C   UNL     1      33.838 -14.322 -21.638  0.00  0.00    +0.042 C 
ATOM     26  C   UNL     1      34.140 -15.283 -20.673  0.00  0.00    +0.015 C 
ATOM     27  C   UNL     1      33.915 -14.645 -22.993  0.00  0.00    +0.015 C 
BRANCH  25  28
ATOM     28  N   UNL     1      33.455 -13.022 -21.243  0.00  0.00    -0.357 N 
ATOM     29  H   UNL     1      32.670 -12.594 -21.657  0.00  0.00    +0.142 HD
ATOM     30  H   UNL     1      33.972 -12.544 -20.556  0.00  0.00    +0.142 HD
ENDBRANCH  25  28
ENDBRANCH  21  22
ENDBRANCH   4  21
TORSDOF 5
ENDMDL
MODEL 4
REMARK VINA RESULT:     -11.7      3.426      9.932
REMARK  Name = 1202104
REMARK  5 active torsions:
REMARK  status: ('A' for Active; 'I' for Inactive)
REMARK    1  A    between atoms: C_1  and  N_9
REMARK    2  A    between atoms: C_4  and  S_21
REMARK    3  A    between atoms: C_16  and  N_18
REMARK    4  A    between atoms: S_21  and  C_22
REMARK    5  A    between atoms: C_25  and  N_28
REMARK                            x       y       z     vdW  Elec       q    Type
REMARK                         _______ _______ _______ _____ _____    ______ ____
ROOT
ATOM      1  C   UNL     1      32.645 -12.075 -22.513  0.00  0.00    +0.061 C 
ATOM      2  C   UNL     1      33.159 -11.077 -23.344  0.00  0.00    +0.016 C 
ATOM      3  C   UNL     1      31.606 -11.771 -21.630  0.00  0.00    +0.016 C 
ATOM      4  C   UNL     1      31.601  -9.485 -22.411  0.00  0.00    +0.030 C 
ATOM      5  C   UNL     1      32.639  -9.785 -23.294  0.00  0.00    +0.008 C 
ATOM      6  C   UNL     1      31.084 -10.478 -21.579  0.00  0.00    +0.008 C 
ENDROOT
BRANCH   1   9
ATOM      7  O   UNL     1      33.968 -13.721 -20.331  0.00  0.00    -0.269 OA
ATOM      8  O   UNL     1      32.779 -14.034 -24.828  0.00  0.00    -0.269 OA
ATOM      9  N   UNL     1      33.182 -13.403 -22.562  0.00  0.00    -0.201 N 
ATOM     10  C   UNL     1      34.159 -15.379 -21.967  0.00  0.00    +0.060 C 
ATOM     11  C   UNL     1      33.834 -15.459 -23.306  0.00  0.00    +0.059 C 
ATOM     12  C   UNL     1      33.752 -14.063 -21.480  0.00  0.00    +0.259 C 
ATOM     13  C   UNL     1      33.202 -14.203 -23.698  0.00  0.00    +0.259 C 
ATOM     14  C   UNL     1      34.771 -16.421 -21.299  0.00  0.00    +0.019 C 
ATOM     15  C   UNL     1      34.099 -16.590 -24.054  0.00  0.00    +0.006 C 
ATOM     16  C   UNL     1      35.049 -17.576 -22.035  0.00  0.00    +0.042 C 
ATOM     17  C   UNL     1      34.717 -17.660 -23.400  0.00  0.00    +0.014 C 
BRANCH  16  18
ATOM     18  N   UNL     1      35.674 -18.674 -21.402  0.00  0.00    -0.357 N 
ATOM     19  H   UNL     1      36.524 -19.025 -21.753  0.00  0.00    +0.142 HD
ATOM     20  H   UNL     1      35.258 -19.088 -20.611  0.00  0.00    +0.142 HD
ENDBRANCH  16  18
ENDBRANCH   1   9
BRANCH   4  21
ATOM     21  S   UNL     1      30.937  -7.832 -22.342  0.00  0.00    -0.087 S 
BRANCH  21  22
ATOM     22  C   UNL     1      31.830  -7.041 -23.673  0.00  0.00    +0.030 C 
ATOM     23  C   UNL     1      31.185  -6.777 -24.878  0.00  0.00    +0.008 C 
ATOM     24  C   UNL     1      33.168  -6.695 -23.500  0.00  0.00    +0.008 C 
ATOM     25  C   UNL     1      33.222  -5.812 -25.748  0.00  0.00    +0.042 C 
ATOM     26  C   UNL     1      31.882  -6.161 -25.917  0.00  0.00    +0.015 C 
ATOM     27  C   UNL     1      33.865  -6.078 -24.538  0.00  0.00    +0.015 C 
BRANCH  25  28
ATOM     28  N   UNL     1      33.928  -5.189 -26.799  0.00  0.00    -0.357 N 
ATOM     29  H   UNL     1      33.734  -4.253 -27.034  0.00  0.00    +0.142 HD
ATOM     30  H   UNL     1      34.612  -5.691 -27.297  0.00  0.00    +0.142 HD
ENDBRANCH  25  28
ENDBRANCH  21  22
ENDBRANCH   4  21
TORSDOF 5
ENDMDL
MODEL 5
REMARK VINA RESULT:     -11.6      2.467      4.020
REMARK  Name = 1202104
REMARK  5 active torsions:
REMARK  status: ('A' for Active; 'I' for Inactive)
REMARK    1  A    between atoms: C_1  and  N_9
REMARK    2  A    between atoms: C_4  and  S_21
REMARK    3  A    between atoms: C_16  and  N_18
REMARK    4  A    between atoms: S_21  and  C_22
REMARK    5  A    between atoms: C_25  and  N_28
REMARK                            x       y       z     vdW  Elec       q    Type
REMARK                         _______ _______ _______ _____ _____    ______ ____
ROOT
ATOM      1  C   UNL     1      34.664 -17.621 -21.549  0.00  0.00    +0.061 C 
ATOM      2  C   UNL     1      33.713 -18.577 -21.184  0.00  0.00    +0.016 C 
ATOM      3  C   UNL     1      36.012 -17.839 -21.254  0.00  0.00    +0.016 C 
ATOM      4  C   UNL     1      35.454 -19.958 -20.238  0.00  0.00    +0.030 C 
ATOM      5  C   UNL     1      34.106 -19.743 -20.531  0.00  0.00    +0.008 C 
ATOM      6  C   UNL     1      36.406 -19.007 -20.600  0.00  0.00    +0.008 C 
ENDROOT
BRANCH   1   9
ATOM      7  O   UNL     1      34.237 -14.826 -20.442  0.00  0.00    -0.269 OA
ATOM      8  O   UNL     1      33.994 -17.154 -24.473  0.00  0.00    -0.269 OA
ATOM      9  N   UNL     1      34.259 -16.419 -22.218  0.00  0.00    -0.201 N 
ATOM     10  C   UNL     1      33.697 -14.247 -22.641  0.00  0.00    +0.060 C 
ATOM     11  C   UNL     1      33.595 -14.944 -23.828  0.00  0.00    +0.059 C 
ATOM     12  C   UNL     1      34.115 -15.183 -21.600  0.00  0.00    +0.259 C 
ATOM     13  C   UNL     1      33.959 -16.335 -23.573  0.00  0.00    +0.259 C 
ATOM     14  C   UNL     1      33.418 -12.897 -22.560  0.00  0.00    +0.019 C 
ATOM     15  C   UNL     1      33.214 -14.329 -25.005  0.00  0.00    +0.006 C 
ATOM     16  C   UNL     1      33.030 -12.253 -23.737  0.00  0.00    +0.042 C 
ATOM     17  C   UNL     1      32.928 -12.962 -24.949  0.00  0.00    +0.014 C 
BRANCH  16  18
ATOM     18  N   UNL     1      32.734 -10.872 -23.713  0.00  0.00    -0.357 N 
ATOM     19  H   UNL     1      32.257 -10.457 -24.469  0.00  0.00    +0.142 HD
ATOM     20  H   UNL     1      33.004 -10.323 -22.941  0.00  0.00    +0.142 HD
ENDBRANCH  16  18
ENDBRANCH   1   9
BRANCH   4  21
ATOM     21  S   UNL     1      35.958 -21.448 -19.399  0.00  0.00    -0.087 S 
BRANCH  21  22
ATOM     22  C   UNL     1      34.508 -21.802 -18.415  0.00  0.00    +0.030 C 
ATOM     23  C   UNL     1      34.653 -22.287 -17.119  0.00  0.00    +0.008 C 
ATOM     24  C   UNL     1      33.240 -21.593 -18.950  0.00  0.00    +0.008 C 
ATOM     25  C   UNL     1      32.250 -22.356 -16.883  0.00  0.00    +0.042 C 
ATOM     26  C   UNL     1      33.522 -22.564 -16.351  0.00  0.00    +0.015 C 
ATOM     27  C   UNL     1      32.109 -21.870 -18.183  0.00  0.00    +0.015 C 
BRANCH  25  28
ATOM     28  N   UNL     1      31.105 -22.637 -16.108  0.00  0.00    -0.357 N 
ATOM     29  H   UNL     1      30.216 -22.653 -16.531  0.00  0.00    +0.142 HD
ATOM     30  H   UNL     1      31.196 -22.817 -15.144  0.00  0.00    +0.142 HD
ENDBRANCH  25  28
ENDBRANCH  21  22
ENDBRANCH   4  21
TORSDOF 5
ENDMDL
MODEL 6
REMARK VINA RESULT:     -11.6      2.761      4.046
REMARK  Name = 1202104
REMARK  5 active torsions:
REMARK  status: ('A' for Active; 'I' for Inactive)
REMARK    1  A    between atoms: C_1  and  N_9
REMARK    2  A    between atoms: C_4  and  S_21
REMARK    3  A    between atoms: C_16  and  N_18
REMARK    4  A    between atoms: S_21  and  C_22
REMARK    5  A    between atoms: C_25  and  N_28
REMARK                            x       y       z     vdW  Elec       q    Type
REMARK                         _______ _______ _______ _____ _____    ______ ____
ROOT
ATOM      1  C   UNL     1      34.686 -17.736 -21.535  0.00  0.00    +0.061 C 
ATOM      2  C   UNL     1      33.739 -18.702 -21.189  0.00  0.00    +0.016 C 
ATOM      3  C   UNL     1      36.025 -17.921 -21.179  0.00  0.00    +0.016 C 
ATOM      4  C   UNL     1      35.464 -20.027 -20.139  0.00  0.00    +0.030 C 
ATOM      5  C   UNL     1      34.126 -19.846 -20.492  0.00  0.00    +0.008 C 
ATOM      6  C   UNL     1      36.413 -19.065 -20.482  0.00  0.00    +0.008 C 
ENDROOT
BRANCH   1   9
ATOM      7  O   UNL     1      33.988 -17.380 -24.468  0.00  0.00    -0.269 OA
ATOM      8  O   UNL     1      34.303 -14.894 -20.538  0.00  0.00    -0.269 OA
ATOM      9  N   UNL     1      34.288 -16.558 -22.249  0.00  0.00    -0.201 N 
ATOM     10  C   UNL     1      33.621 -15.141 -23.910  0.00  0.00    +0.060 C 
ATOM     11  C   UNL     1      33.744 -14.399 -22.752  0.00  0.00    +0.059 C 
ATOM     12  C   UNL     1      33.974 -16.525 -23.602  0.00  0.00    +0.259 C 
ATOM     13  C   UNL     1      34.165 -15.296 -21.679  0.00  0.00    +0.259 C 
ATOM     14  C   UNL     1      33.232 -14.570 -25.106  0.00  0.00    +0.019 C 
ATOM     15  C   UNL     1      33.481 -13.044 -22.723  0.00  0.00    +0.006 C 
ATOM     16  C   UNL     1      32.960 -13.200 -25.101  0.00  0.00    +0.042 C 
ATOM     17  C   UNL     1      33.083 -12.443 -23.921  0.00  0.00    +0.014 C 
BRANCH  16  18
ATOM     18  N   UNL     1      32.557 -12.564 -26.296  0.00  0.00    -0.357 N 
ATOM     19  H   UNL     1      32.007 -13.051 -26.952  0.00  0.00    +0.142 HD
ATOM     20  H   UNL     1      32.825 -11.633 -26.474  0.00  0.00    +0.142 HD
ENDBRANCH  16  18
ENDBRANCH   1   9
BRANCH   4  21
ATOM     21  S   UNL     1      35.959 -21.487 -19.244  0.00  0.00    -0.087 S 
BRANCH  21  22
ATOM     22  C   UNL     1      34.479 -21.842 -18.307  0.00  0.00    +0.030 C 
ATOM     23  C   UNL     1      34.583 -22.360 -17.020  0.00  0.00    +0.008 C 
ATOM     24  C   UNL     1      33.229 -21.601 -18.869  0.00  0.00    +0.008 C 
ATOM     25  C   UNL     1      32.174 -22.397 -16.848  0.00  0.00    +0.042 C 
ATOM     26  C   UNL     1      33.429 -22.638 -16.288  0.00  0.00    +0.015 C 
ATOM     27  C   UNL     1      32.074 -21.878 -18.139  0.00  0.00    +0.015 C 
BRANCH  25  28
ATOM     28  N   UNL     1      31.005 -22.679 -16.109  0.00  0.00    -0.357 N 
ATOM     29  H   UNL     1      30.588 -21.975 -15.562  0.00  0.00    +0.142 HD
ATOM     30  H   UNL     1      30.608 -23.579 -16.141  0.00  0.00    +0.142 HD
ENDBRANCH  25  28
ENDBRANCH  21  22
ENDBRANCH   4  21
TORSDOF 5
ENDMDL
MODEL 7
REMARK VINA RESULT:     -11.4      0.627      2.066
REMARK  Name = 1202104
REMARK  5 active torsions:
REMARK  status: ('A' for Active; 'I' for Inactive)
REMARK    1  A    between atoms: C_1  and  N_9
REMARK    2  A    between atoms: C_4  and  S_21
REMARK    3  A    between atoms: C_16  and  N_18
REMARK    4  A    between atoms: S_21  and  C_22
REMARK    5  A    between atoms: C_25  and  N_28
REMARK                            x       y       z     vdW  Elec       q    Type
REMARK                         _______ _______ _______ _____ _____    ______ ____
ROOT
ATOM      1  C   UNL     1      33.717 -14.784 -22.126  0.00  0.00    +0.061 C 
ATOM      2  C   UNL     1      33.836 -15.484 -23.329  0.00  0.00    +0.016 C 
ATOM      3  C   UNL     1      34.155 -15.373 -20.937  0.00  0.00    +0.016 C 
ATOM      4  C   UNL     1      34.827 -17.348 -22.155  0.00  0.00    +0.030 C 
ATOM      5  C   UNL     1      34.390 -16.763 -23.344  0.00  0.00    +0.008 C 
ATOM      6  C   UNL     1      34.710 -16.653 -20.951  0.00  0.00    +0.008 C 
ENDROOT
BRANCH   1   9
ATOM      7  O   UNL     1      32.027 -13.424 -20.001  0.00  0.00    -0.269 OA
ATOM      8  O   UNL     1      33.854 -12.576 -24.205  0.00  0.00    -0.269 OA
ATOM      9  N   UNL     1      33.144 -13.470 -22.109  0.00  0.00    -0.201 N 
ATOM     10  C   UNL     1      32.019 -11.595 -21.455  0.00  0.00    +0.060 C 
ATOM     11  C   UNL     1      32.534 -11.355 -22.713  0.00  0.00    +0.059 C 
ATOM     12  C   UNL     1      32.397 -12.949 -21.060  0.00  0.00    +0.259 C 
ATOM     13  C   UNL     1      33.263 -12.546 -23.141  0.00  0.00    +0.259 C 
ATOM     14  C   UNL     1      31.277 -10.648 -20.777  0.00  0.00    +0.019 C 
ATOM     15  C   UNL     1      32.341 -10.152 -23.363  0.00  0.00    +0.006 C 
ATOM     16  C   UNL     1      31.067  -9.423 -21.415  0.00  0.00    +0.042 C 
ATOM     17  C   UNL     1      31.595  -9.177 -22.697  0.00  0.00    +0.014 C 
BRANCH  16  18
ATOM     18  N   UNL     1      30.317  -8.417 -20.767  0.00  0.00    -0.357 N 
ATOM     19  H   UNL     1      29.944  -7.668 -21.288  0.00  0.00    +0.142 HD
ATOM     20  H   UNL     1      30.166  -8.463 -19.795  0.00  0.00    +0.142 HD
ENDBRANCH  16  18
ENDBRANCH   1   9
BRANCH   4  21
ATOM     21  S   UNL     1      35.532 -18.985 -22.172  0.00  0.00    -0.087 S 
BRANCH  21  22
ATOM     22  C   UNL     1      34.504 -19.821 -20.973  0.00  0.00    +0.030 C 
ATOM     23  C   UNL     1      35.089 -20.624 -19.999  0.00  0.00    +0.008 C 
ATOM     24  C   UNL     1      33.120 -19.667 -21.019  0.00  0.00    +0.008 C 
ATOM     25  C   UNL     1      32.902 -21.125 -19.106  0.00  0.00    +0.042 C 
ATOM     26  C   UNL     1      34.288 -21.277 -19.063  0.00  0.00    +0.015 C 
ATOM     27  C   UNL     1      32.318 -20.319 -20.084  0.00  0.00    +0.015 C 
BRANCH  25  28
ATOM     28  N   UNL     1      32.089 -21.787 -18.161  0.00  0.00    -0.357 N 
ATOM     29  H   UNL     1      31.268 -22.244 -18.453  0.00  0.00    +0.142 HD
ATOM     30  H   UNL     1      32.344 -21.790 -17.210  0.00  0.00    +0.142 HD
ENDBRANCH  25  28
ENDBRANCH  21  22
ENDBRANCH   4  21
TORSDOF 5
ENDMDL
MODEL 8
REMARK VINA RESULT:     -11.3      1.534      2.142
REMARK  Name = 1202104
REMARK  5 active torsions:
REMARK  status: ('A' for Active; 'I' for Inactive)
REMARK    1  A    between atoms: C_1  and  N_9
REMARK    2  A    between atoms: C_4  and  S_21
REMARK    3  A    between atoms: C_16  and  N_18
REMARK    4  A    between atoms: S_21  and  C_22
REMARK    5  A    between atoms: C_25  and  N_28
REMARK                            x       y       z     vdW  Elec       q    Type
REMARK                         _______ _______ _______ _____ _____    ______ ____
ROOT
ATOM      1  C   UNL     1      33.119 -13.559 -22.989  0.00  0.00    +0.061 C 
ATOM      2  C   UNL     1      32.808 -14.039 -24.263  0.00  0.00    +0.016 C 
ATOM      3  C   UNL     1      33.836 -14.366 -22.102  0.00  0.00    +0.016 C 
ATOM      4  C   UNL     1      33.928 -16.119 -23.761  0.00  0.00    +0.030 C 
ATOM      5  C   UNL     1      33.211 -15.316 -24.649  0.00  0.00    +0.008 C 
ATOM      6  C   UNL     1      34.240 -15.644 -22.487  0.00  0.00    +0.008 C 
ENDROOT
BRANCH   1   9
ATOM      7  O   UNL     1      33.754 -10.857 -24.219  0.00  0.00    -0.269 OA
ATOM      8  O   UNL     1      31.348 -12.699 -20.677  0.00  0.00    -0.269 OA
ATOM      9  N   UNL     1      32.701 -12.247 -22.590  0.00  0.00    -0.201 N 
ATOM     10  C   UNL     1      32.410  -9.983 -22.519  0.00  0.00    +0.060 C 
ATOM     11  C   UNL     1      31.723 -10.527 -21.452  0.00  0.00    +0.059 C 
ATOM     12  C   UNL     1      33.047 -11.075 -23.252  0.00  0.00    +0.259 C 
ATOM     13  C   UNL     1      31.896 -11.976 -21.490  0.00  0.00    +0.259 C 
ATOM     14  C   UNL     1      32.433  -8.623 -22.756  0.00  0.00    +0.019 C 
ATOM     15  C   UNL     1      31.015  -9.741 -20.564  0.00  0.00    +0.006 C 
ATOM     16  C   UNL     1      31.725  -7.807 -21.871  0.00  0.00    +0.042 C 
ATOM     17  C   UNL     1      31.022  -8.361 -20.784  0.00  0.00    +0.014 C 
BRANCH  16  18
ATOM     18  N   UNL     1      31.713  -6.408 -22.066  0.00  0.00    -0.357 N 
ATOM     19  H   UNL     1      31.044  -5.852 -21.605  0.00  0.00    +0.142 HD
ATOM     20  H   UNL     1      32.374  -5.989 -22.665  0.00  0.00    +0.142 HD
ENDBRANCH  16  18
ENDBRANCH   1   9
BRANCH   4  21
ATOM     21  S   UNL     1      34.440 -17.754 -24.251  0.00  0.00    -0.087 S 
BRANCH  21  22
ATOM     22  C   UNL     1      34.874 -18.473 -22.674  0.00  0.00    +0.030 C 
ATOM     23  C   UNL     1      36.137 -18.248 -22.135  0.00  0.00    +0.008 C 
ATOM     24  C   UNL     1      33.947 -19.257 -21.991  0.00  0.00    +0.008 C 
ATOM     25  C   UNL     1      35.550 -19.595 -20.217  0.00  0.00    +0.042 C 
ATOM     26  C   UNL     1      36.476 -18.810 -20.904  0.00  0.00    +0.015 C 
ATOM     27  C   UNL     1      34.285 -19.818 -20.760  0.00  0.00    +0.015 C 
BRANCH  25  28
ATOM     28  N   UNL     1      35.893 -20.164 -18.972  0.00  0.00    -0.357 N 
ATOM     29  H   UNL     1      35.237 -20.171 -18.237  0.00  0.00    +0.142 HD
ATOM     30  H   UNL     1      36.787 -20.553 -18.838  0.00  0.00    +0.142 HD
ENDBRANCH  25  28
ENDBRANCH  21  22
ENDBRANCH   4  21
TORSDOF 5
ENDMDL
MODEL 9
REMARK VINA RESULT:     -11.2      3.044      9.301
REMARK  Name = 1202104
REMARK  5 active torsions:
REMARK  status: ('A' for Active; 'I' for Inactive)
REMARK    1  A    between atoms: C_1  and  N_9
REMARK    2  A    between atoms: C_4  and  S_21
REMARK    3  A    between atoms: C_16  and  N_18
REMARK    4  A    between atoms: S_21  and  C_22
REMARK    5  A    between atoms: C_25  and  N_28
REMARK                            x       y       z     vdW  Elec       q    Type
REMARK                         _______ _______ _______ _____ _____    ______ ____
ROOT
ATOM      1  C   UNL     1      34.138 -18.903 -21.259  0.00  0.00    +0.061 C 
ATOM      2  C   UNL     1      33.634 -19.231 -22.519  0.00  0.00    +0.016 C 
ATOM      3  C   UNL     1      34.711 -17.647 -21.049  0.00  0.00    +0.016 C 
ATOM      4  C   UNL     1      34.275 -17.056 -23.350  0.00  0.00    +0.030 C 
ATOM      5  C   UNL     1      33.702 -18.310 -23.564  0.00  0.00    +0.008 C 
ATOM      6  C   UNL     1      34.780 -16.724 -22.093  0.00  0.00    +0.008 C 
ENDROOT
BRANCH   1   9
ATOM      7  O   UNL     1      36.339 -19.956 -19.452  0.00  0.00    -0.269 OA
ATOM      8  O   UNL     1      31.754 -20.422 -20.151  0.00  0.00    -0.269 OA
ATOM      9  N   UNL     1      34.071 -19.851 -20.186  0.00  0.00    -0.201 N 
ATOM     10  C   UNL     1      34.644 -21.209 -18.442  0.00  0.00    +0.060 C 
ATOM     11  C   UNL     1      33.292 -21.369 -18.670  0.00  0.00    +0.059 C 
ATOM     12  C   UNL     1      35.156 -20.244 -19.412  0.00  0.00    +0.259 C 
ATOM     13  C   UNL     1      32.911 -20.500 -19.780  0.00  0.00    +0.259 C 
ATOM     14  C   UNL     1      35.305 -21.901 -17.446  0.00  0.00    +0.019 C 
ATOM     15  C   UNL     1      32.522 -22.228 -17.910  0.00  0.00    +0.006 C 
ATOM     16  C   UNL     1      34.546 -22.775 -16.664  0.00  0.00    +0.042 C 
ATOM     17  C   UNL     1      33.167 -22.938 -16.894  0.00  0.00    +0.014 C 
BRANCH  16  18
ATOM     18  N   UNL     1      35.170 -23.508 -15.630  0.00  0.00    -0.357 N 
ATOM     19  H   UNL     1      34.630 -23.876 -14.892  0.00  0.00    +0.142 HD
ATOM     20  H   UNL     1      36.144 -23.650 -15.645  0.00  0.00    +0.142 HD
ENDBRANCH  16  18
ENDBRANCH   1   9
BRANCH   4  21
ATOM     21  S   UNL     1      34.367 -15.879 -24.686  0.00  0.00    -0.087 S 
BRANCH  21  22
ATOM     22  C   UNL     1      33.651 -14.429 -23.924  0.00  0.00    +0.030 C 
ATOM     23  C   UNL     1      33.884 -14.169 -22.577  0.00  0.00    +0.008 C 
ATOM     24  C   UNL     1      32.861 -13.568 -24.681  0.00  0.00    +0.008 C 
ATOM     25  C   UNL     1      32.533 -12.172 -22.737  0.00  0.00    +0.042 C 
ATOM     26  C   UNL     1      33.324 -13.038 -21.982  0.00  0.00    +0.015 C 
ATOM     27  C   UNL     1      32.302 -12.437 -24.087  0.00  0.00    +0.015 C 
BRANCH  25  28
ATOM     28  N   UNL     1      31.966 -11.029 -22.135  0.00  0.00    -0.357 N 
ATOM     29  H   UNL     1      31.919 -10.182 -22.636  0.00  0.00    +0.142 HD
ATOM     30  H   UNL     1      31.618 -11.078 -21.216  0.00  0.00    +0.142 HD
ENDBRANCH  25  28
ENDBRANCH  21  22
ENDBRANCH   4  21
TORSDOF 5
ENDMDL
