MODEL 1
REMARK VINA RESULT:     -11.0      0.000      0.000
REMARK  Name = 3035714
REMARK  6 active torsions:
REMARK  status: ('A' for Active; 'I' for Inactive)
REMARK    1  A    between atoms: C_2  and  N_7
REMARK    2  A    between atoms: N_7  and  S_9
REMARK    3  A    between atoms: S_9  and  C_12
REMARK    4  A    between atoms: C_17  and  O_18
REMARK    5  A    between atoms: N_20  and  C_22
REMARK    6  A    between atoms: C_27  and  O_28
REMARK                            x       y       z     vdW  Elec       q    Type
REMARK                         _______ _______ _______ _____ _____    ______ ____
ROOT
ATOM      1  N   UNL     1      35.356 -23.663 -15.647  0.00  0.00    -0.228 NA
ATOM      2  C   UNL     1      33.540 -23.278 -14.099  0.00  0.00    +0.096 C 
ATOM      3  C   UNL     1      34.107 -23.217 -15.367  0.00  0.00    +0.147 C 
ATOM      4  C   UNL     1      34.294 -23.827 -13.067  0.00  0.00    +0.020 C 
ATOM      5  C   UNL     1      35.579 -24.292 -13.324  0.00  0.00    +0.022 C 
ATOM      6  C   UNL     1      36.059 -24.189 -14.619  0.00  0.00    +0.100 C 
ATOM      7  N   UNL     1      33.348 -22.664 -16.418  0.00  0.00    -0.297 N 
ATOM      8  H   UNL     1      32.377 -22.790 -16.313  0.00  0.00    +0.154 HD
ENDROOT
BRANCH   7   9
ATOM      9  C   UNL     1      33.706 -21.968 -17.591  0.00  0.00    +0.050 C 
ATOM     10  C   UNL     1      35.046 -21.694 -17.857  0.00  0.00    +0.018 C 
ATOM     11  C   UNL     1      32.718 -21.554 -18.484  0.00  0.00    +0.018 C 
ATOM     12  C   UNL     1      35.401 -21.004 -19.017  0.00  0.00    +0.038 C 
ATOM     13  C   UNL     1      33.071 -20.864 -19.644  0.00  0.00    +0.038 C 
ATOM     14  C   UNL     1      34.413 -20.590 -19.910  0.00  0.00    +0.134 C 
BRANCH  14  15
ATOM     15  O   UNL     1      34.757 -19.918 -21.043  0.00  0.00    -0.506 OA
ATOM     16  H   UNL     1      34.309 -19.127 -21.274  0.00  0.00    +0.292 HD
ENDBRANCH  14  15
ENDBRANCH   7   9
BRANCH   2  17
ATOM     17  N   UNL     1      32.219 -22.801 -13.835  0.00  0.00    -0.212 N 
ATOM     18  H   UNL     1      32.020 -21.836 -13.861  0.00  0.00    +0.174 HD
BRANCH  17  19
ATOM     19  S   UNL     1      30.983 -23.942 -13.468  0.00  0.00    +0.074 S 
ATOM     20  O   UNL     1      31.473 -25.277 -13.756  0.00  0.00    -0.150 OA
ATOM     21  O   UNL     1      30.408 -23.651 -12.169  0.00  0.00    -0.150 OA
BRANCH  19  22
ATOM     22  C   UNL     1      29.765 -23.567 -14.695  0.00  0.00    +0.125 C 
ATOM     23  C   UNL     1      28.870 -24.550 -15.078  0.00  0.00    +0.023 C 
ATOM     24  C   UNL     1      29.732 -22.298 -15.247  0.00  0.00    +0.023 C 
ATOM     25  C   UNL     1      27.909 -24.254 -16.045  0.00  0.00    +0.038 C 
ATOM     26  C   UNL     1      28.771 -22.003 -16.215  0.00  0.00    +0.038 C 
ATOM     27  C   UNL     1      27.860 -22.982 -16.614  0.00  0.00    +0.139 C 
BRANCH  27  28
ATOM     28  O   UNL     1      26.922 -22.693 -17.557  0.00  0.00    -0.471 OA
ATOM     29  C   UNL     1      26.130 -21.525 -17.350  0.00  0.00    +0.252 C 
ENDBRANCH  27  28
ENDBRANCH  19  22
ENDBRANCH  17  19
ENDBRANCH   2  17
TORSDOF 6
ENDMDL
MODEL 2
REMARK VINA RESULT:     -10.9      3.077      6.688
REMARK  Name = 3035714
REMARK  6 active torsions:
REMARK  status: ('A' for Active; 'I' for Inactive)
REMARK    1  A    between atoms: C_2  and  N_7
REMARK    2  A    between atoms: N_7  and  S_9
REMARK    3  A    between atoms: S_9  and  C_12
REMARK    4  A    between atoms: C_17  and  O_18
REMARK    5  A    between atoms: N_20  and  C_22
REMARK    6  A    between atoms: C_27  and  O_28
REMARK                            x       y       z     vdW  Elec       q    Type
REMARK                         _______ _______ _______ _____ _____    ______ ____
ROOT
ATOM      1  N   UNL     1      33.525 -24.520 -13.613  0.00  0.00    -0.228 NA
ATOM      2  C   UNL     1      33.099 -22.780 -15.237  0.00  0.00    +0.096 C 
ATOM      3  C   UNL     1      33.880 -23.801 -14.707  0.00  0.00    +0.147 C 
ATOM      4  C   UNL     1      31.893 -22.483 -14.613  0.00  0.00    +0.020 C 
ATOM      5  C   UNL     1      31.502 -23.203 -13.489  0.00  0.00    +0.022 C 
ATOM      6  C   UNL     1      32.346 -24.202 -13.034  0.00  0.00    +0.100 C 
ATOM      7  N   UNL     1      35.103 -24.109 -15.335  0.00  0.00    -0.297 N 
ATOM      8  H   UNL     1      35.106 -23.934 -16.303  0.00  0.00    +0.154 HD
ENDROOT
BRANCH   7   9
ATOM      9  C   UNL     1      36.324 -24.620 -14.848  0.00  0.00    +0.050 C 
ATOM     10  C   UNL     1      36.476 -25.991 -14.648  0.00  0.00    +0.018 C 
ATOM     11  C   UNL     1      37.380 -23.753 -14.568  0.00  0.00    +0.018 C 
ATOM     12  C   UNL     1      37.684 -26.497 -14.166  0.00  0.00    +0.038 C 
ATOM     13  C   UNL     1      38.589 -24.257 -14.086  0.00  0.00    +0.038 C 
ATOM     14  C   UNL     1      38.740 -25.629 -13.885  0.00  0.00    +0.134 C 
BRANCH  14  15
ATOM     15  O   UNL     1      39.919 -26.121 -13.417  0.00  0.00    -0.506 OA
ATOM     16  H   UNL     1      39.946 -26.964 -13.006  0.00  0.00    +0.292 HD
ENDBRANCH  14  15
ENDBRANCH   7   9
BRANCH   2  17
ATOM     17  N   UNL     1      33.500 -22.041 -16.392  0.00  0.00    -0.212 N 
ATOM     18  H   UNL     1      34.188 -21.339 -16.324  0.00  0.00    +0.174 HD
BRANCH  17  19
ATOM     19  S   UNL     1      32.758 -22.399 -17.904  0.00  0.00    +0.074 S 
ATOM     20  O   UNL     1      33.127 -23.744 -18.304  0.00  0.00    -0.150 OA
ATOM     21  O   UNL     1      31.360 -22.015 -17.873  0.00  0.00    -0.150 OA
BRANCH  19  22
ATOM     22  C   UNL     1      33.600 -21.290 -18.995  0.00  0.00    +0.125 C 
ATOM     23  C   UNL     1      34.983 -21.245 -18.975  0.00  0.00    +0.023 C 
ATOM     24  C   UNL     1      32.858 -20.491 -19.848  0.00  0.00    +0.023 C 
ATOM     25  C   UNL     1      35.647 -20.371 -19.836  0.00  0.00    +0.038 C 
ATOM     26  C   UNL     1      33.523 -19.616 -20.708  0.00  0.00    +0.038 C 
ATOM     27  C   UNL     1      34.918 -19.557 -20.702  0.00  0.00    +0.139 C 
BRANCH  27  28
ATOM     28  O   UNL     1      35.566 -18.704 -21.543  0.00  0.00    -0.471 OA
ATOM     29  C   UNL     1      35.248 -17.318 -21.433  0.00  0.00    +0.252 C 
ENDBRANCH  27  28
ENDBRANCH  19  22
ENDBRANCH  17  19
ENDBRANCH   2  17
TORSDOF 6
ENDMDL
MODEL 3
REMARK VINA RESULT:     -10.5      2.258      4.204
REMARK  Name = 3035714
REMARK  6 active torsions:
REMARK  status: ('A' for Active; 'I' for Inactive)
REMARK    1  A    between atoms: C_2  and  N_7
REMARK    2  A    between atoms: N_7  and  S_9
REMARK    3  A    between atoms: S_9  and  C_12
REMARK    4  A    between atoms: C_17  and  O_18
REMARK    5  A    between atoms: N_20  and  C_22
REMARK    6  A    between atoms: C_27  and  O_28
REMARK                            x       y       z     vdW  Elec       q    Type
REMARK                         _______ _______ _______ _____ _____    ______ ____
ROOT
ATOM      1  N   UNL     1      34.358 -22.857 -16.859  0.00  0.00    -0.228 NA
ATOM      2  C   UNL     1      32.534 -22.596 -15.295  0.00  0.00    +0.096 C 
ATOM      3  C   UNL     1      33.859 -22.886 -15.598  0.00  0.00    +0.147 C 
ATOM      4  C   UNL     1      31.679 -22.259 -16.338  0.00  0.00    +0.020 C 
ATOM      5  C   UNL     1      32.162 -22.221 -17.641  0.00  0.00    +0.022 C 
ATOM      6  C   UNL     1      33.497 -22.525 -17.846  0.00  0.00    +0.100 C 
ATOM      7  N   UNL     1      34.733 -23.227 -14.546  0.00  0.00    -0.297 N 
ATOM      8  H   UNL     1      34.500 -22.805 -13.687  0.00  0.00    +0.154 HD
ENDROOT
BRANCH   7   9
ATOM      9  C   UNL     1      35.874 -24.052 -14.483  0.00  0.00    +0.050 C 
ATOM     10  C   UNL     1      37.134 -23.487 -14.291  0.00  0.00    +0.018 C 
ATOM     11  C   UNL     1      35.742 -25.435 -14.611  0.00  0.00    +0.018 C 
ATOM     12  C   UNL     1      38.263 -24.303 -14.229  0.00  0.00    +0.038 C 
ATOM     13  C   UNL     1      36.871 -26.252 -14.549  0.00  0.00    +0.038 C 
ATOM     14  C   UNL     1      38.131 -25.686 -14.358  0.00  0.00    +0.134 C 
BRANCH  14  15
ATOM     15  O   UNL     1      39.232 -26.484 -14.295  0.00  0.00    -0.506 OA
ATOM     16  H   UNL     1      39.936 -26.360 -14.902  0.00  0.00    +0.292 HD
ENDBRANCH  14  15
ENDBRANCH   7   9
BRANCH   2  17
ATOM     17  N   UNL     1      32.037 -22.634 -13.955  0.00  0.00    -0.212 N 
ATOM     18  H   UNL     1      32.360 -21.991 -13.282  0.00  0.00    +0.174 HD
BRANCH  17  19
ATOM     19  S   UNL     1      30.866 -23.825 -13.539  0.00  0.00    +0.074 S 
ATOM     20  O   UNL     1      31.355 -25.130 -13.945  0.00  0.00    -0.150 OA
ATOM     21  O   UNL     1      30.410 -23.619 -12.178  0.00  0.00    -0.150 OA
BRANCH  19  22
ATOM     22  C   UNL     1      29.530 -23.419 -14.625  0.00  0.00    +0.125 C 
ATOM     23  C   UNL     1      29.086 -24.365 -15.531  0.00  0.00    +0.023 C 
ATOM     24  C   UNL     1      28.956 -22.161 -14.546  0.00  0.00    +0.023 C 
ATOM     25  C   UNL     1      28.033 -24.045 -16.387  0.00  0.00    +0.038 C 
ATOM     26  C   UNL     1      27.902 -21.841 -15.403  0.00  0.00    +0.038 C 
ATOM     27  C   UNL     1      27.441 -22.783 -16.324  0.00  0.00    +0.139 C 
BRANCH  27  28
ATOM     28  O   UNL     1      26.412 -22.471 -17.159  0.00  0.00    -0.471 OA
ATOM     29  C   UNL     1      25.955 -21.120 -17.148  0.00  0.00    +0.252 C 
ENDBRANCH  27  28
ENDBRANCH  19  22
ENDBRANCH  17  19
ENDBRANCH   2  17
TORSDOF 6
ENDMDL
MODEL 4
REMARK VINA RESULT:     -10.4      2.726      6.843
REMARK  Name = 3035714
REMARK  6 active torsions:
REMARK  status: ('A' for Active; 'I' for Inactive)
REMARK    1  A    between atoms: C_2  and  N_7
REMARK    2  A    between atoms: N_7  and  S_9
REMARK    3  A    between atoms: S_9  and  C_12
REMARK    4  A    between atoms: C_17  and  O_18
REMARK    5  A    between atoms: N_20  and  C_22
REMARK    6  A    between atoms: C_27  and  O_28
REMARK                            x       y       z     vdW  Elec       q    Type
REMARK                         _______ _______ _______ _____ _____    ______ ____
ROOT
ATOM      1  N   UNL     1      31.581 -24.472 -13.963  0.00  0.00    -0.228 NA
ATOM      2  C   UNL     1      31.599 -22.872 -15.775  0.00  0.00    +0.096 C 
ATOM      3  C   UNL     1      32.240 -23.656 -14.823  0.00  0.00    +0.147 C 
ATOM      4  C   UNL     1      30.212 -22.929 -15.848  0.00  0.00    +0.020 C 
ATOM      5  C   UNL     1      29.509 -23.755 -14.978  0.00  0.00    +0.022 C 
ATOM      6  C   UNL     1      30.234 -24.500 -14.063  0.00  0.00    +0.100 C 
ATOM      7  N   UNL     1      33.646 -23.606 -14.744  0.00  0.00    -0.297 N 
ATOM      8  H   UNL     1      34.084 -23.413 -15.604  0.00  0.00    +0.154 HD
ENDROOT
BRANCH   7   9
ATOM      9  C   UNL     1      34.549 -23.780 -13.675  0.00  0.00    +0.050 C 
ATOM     10  C   UNL     1      34.256 -23.249 -12.420  0.00  0.00    +0.018 C 
ATOM     11  C   UNL     1      35.737 -24.484 -13.874  0.00  0.00    +0.018 C 
ATOM     12  C   UNL     1      35.150 -23.420 -11.363  0.00  0.00    +0.038 C 
ATOM     13  C   UNL     1      36.632 -24.656 -12.818  0.00  0.00    +0.038 C 
ATOM     14  C   UNL     1      36.338 -24.125 -11.562  0.00  0.00    +0.134 C 
BRANCH  14  15
ATOM     15  O   UNL     1      37.210 -24.294 -10.531  0.00  0.00    -0.506 OA
ATOM     16  H   UNL     1      36.977 -24.010  -9.669  0.00  0.00    +0.292 HD
ENDBRANCH  14  15
ENDBRANCH   7   9
BRANCH   2  17
ATOM     17  N   UNL     1      32.322 -22.023 -16.668  0.00  0.00    -0.212 N 
ATOM     18  H   UNL     1      32.123 -21.059 -16.714  0.00  0.00    +0.174 HD
BRANCH  17  19
ATOM     19  S   UNL     1      33.543 -22.716 -17.664  0.00  0.00    +0.074 S 
ATOM     20  O   UNL     1      34.782 -22.788 -16.912  0.00  0.00    -0.150 OA
ATOM     21  O   UNL     1      33.032 -23.902 -18.324  0.00  0.00    -0.150 OA
BRANCH  19  22
ATOM     22  C   UNL     1      33.763 -21.465 -18.896  0.00  0.00    +0.125 C 
ATOM     23  C   UNL     1      35.046 -21.121 -19.284  0.00  0.00    +0.023 C 
ATOM     24  C   UNL     1      32.649 -20.856 -19.445  0.00  0.00    +0.023 C 
ATOM     25  C   UNL     1      35.220 -20.134 -20.255  0.00  0.00    +0.038 C 
ATOM     26  C   UNL     1      32.823 -19.869 -20.415  0.00  0.00    +0.038 C 
ATOM     27  C   UNL     1      34.109 -19.508 -20.820  0.00  0.00    +0.139 C 
BRANCH  27  28
ATOM     28  O   UNL     1      34.279 -18.546 -21.768  0.00  0.00    -0.471 OA
ATOM     29  C   UNL     1      34.902 -17.331 -21.355  0.00  0.00    +0.252 C 
ENDBRANCH  27  28
ENDBRANCH  19  22
ENDBRANCH  17  19
ENDBRANCH   2  17
TORSDOF 6
ENDMDL
MODEL 5
REMARK VINA RESULT:     -10.3      2.396      6.800
REMARK  Name = 3035714
REMARK  6 active torsions:
REMARK  status: ('A' for Active; 'I' for Inactive)
REMARK    1  A    between atoms: C_2  and  N_7
REMARK    2  A    between atoms: N_7  and  S_9
REMARK    3  A    between atoms: S_9  and  C_12
REMARK    4  A    between atoms: C_17  and  O_18
REMARK    5  A    between atoms: N_20  and  C_22
REMARK    6  A    between atoms: C_27  and  O_28
REMARK                            x       y       z     vdW  Elec       q    Type
REMARK                         _______ _______ _______ _____ _____    ______ ____
ROOT
ATOM      1  N   UNL     1      34.197 -24.148 -14.047  0.00  0.00    -0.228 NA
ATOM      2  C   UNL     1      34.657 -22.584 -15.831  0.00  0.00    +0.096 C 
ATOM      3  C   UNL     1      33.794 -23.209 -14.938  0.00  0.00    +0.147 C 
ATOM      4  C   UNL     1      36.000 -22.941 -15.807  0.00  0.00    +0.020 C 
ATOM      5  C   UNL     1      36.443 -23.902 -14.905  0.00  0.00    +0.022 C 
ATOM      6  C   UNL     1      35.509 -24.470 -14.053  0.00  0.00    +0.100 C 
ATOM      7  N   UNL     1      32.431 -22.851 -14.955  0.00  0.00    -0.297 N 
ATOM      8  H   UNL     1      32.271 -21.920 -15.232  0.00  0.00    +0.154 HD
ENDROOT
BRANCH   7   9
ATOM      9  C   UNL     1      31.253 -23.564 -14.652  0.00  0.00    +0.050 C 
ATOM     10  C   UNL     1      30.286 -23.764 -15.635  0.00  0.00    +0.018 C 
ATOM     11  C   UNL     1      31.056 -24.068 -13.366  0.00  0.00    +0.018 C 
ATOM     12  C   UNL     1      29.120 -24.469 -15.335  0.00  0.00    +0.038 C 
ATOM     13  C   UNL     1      29.890 -24.773 -13.064  0.00  0.00    +0.038 C 
ATOM     14  C   UNL     1      28.923 -24.973 -14.049  0.00  0.00    +0.134 C 
BRANCH  14  15
ATOM     15  O   UNL     1      27.786 -25.662 -13.755  0.00  0.00    -0.506 OA
ATOM     16  H   UNL     1      27.457 -25.669 -12.877  0.00  0.00    +0.292 HD
ENDBRANCH  14  15
ENDBRANCH   7   9
BRANCH   2  17
ATOM     17  N   UNL     1      34.203 -21.596 -16.759  0.00  0.00    -0.212 N 
ATOM     18  H   UNL     1      34.394 -20.641 -16.608  0.00  0.00    +0.174 HD
BRANCH  17  19
ATOM     19  S   UNL     1      33.313 -22.105 -18.142  0.00  0.00    +0.074 S 
ATOM     20  O   UNL     1      33.782 -23.418 -18.548  0.00  0.00    -0.150 OA
ATOM     21  O   UNL     1      31.896 -21.880 -17.932  0.00  0.00    -0.150 OA
BRANCH  19  22
ATOM     22  C   UNL     1      33.867 -20.961 -19.373  0.00  0.00    +0.125 C 
ATOM     23  C   UNL     1      35.224 -20.748 -19.534  0.00  0.00    +0.023 C 
ATOM     24  C   UNL     1      32.930 -20.302 -20.150  0.00  0.00    +0.023 C 
ATOM     25  C   UNL     1      35.660 -19.846 -20.504  0.00  0.00    +0.038 C 
ATOM     26  C   UNL     1      33.367 -19.399 -21.120  0.00  0.00    +0.038 C 
ATOM     27  C   UNL     1      34.732 -19.171 -21.297  0.00  0.00    +0.139 C 
BRANCH  27  28
ATOM     28  O   UNL     1      35.158 -18.291 -22.244  0.00  0.00    -0.471 OA
ATOM     29  C   UNL     1      34.952 -16.904 -21.981  0.00  0.00    +0.252 C 
ENDBRANCH  27  28
ENDBRANCH  19  22
ENDBRANCH  17  19
ENDBRANCH   2  17
TORSDOF 6
ENDMDL
MODEL 6
REMARK VINA RESULT:     -10.2      4.866      8.975
REMARK  Name = 3035714
REMARK  6 active torsions:
REMARK  status: ('A' for Active; 'I' for Inactive)
REMARK    1  A    between atoms: C_2  and  N_7
REMARK    2  A    between atoms: N_7  and  S_9
REMARK    3  A    between atoms: S_9  and  C_12
REMARK    4  A    between atoms: C_17  and  O_18
REMARK    5  A    between atoms: N_20  and  C_22
REMARK    6  A    between atoms: C_27  and  O_28
REMARK                            x       y       z     vdW  Elec       q    Type
REMARK                         _______ _______ _______ _____ _____    ______ ____
ROOT
ATOM      1  N   UNL     1      33.290 -21.661 -18.903  0.00  0.00    -0.228 NA
ATOM      2  C   UNL     1      34.260 -19.805 -20.110  0.00  0.00    +0.096 C 
ATOM      3  C   UNL     1      34.338 -20.853 -19.201  0.00  0.00    +0.147 C 
ATOM      4  C   UNL     1      33.045 -19.574 -20.746  0.00  0.00    +0.020 C 
ATOM      5  C   UNL     1      31.953 -20.385 -20.460  0.00  0.00    +0.022 C 
ATOM      6  C   UNL     1      32.126 -21.406 -19.541  0.00  0.00    +0.100 C 
ATOM      7  N   UNL     1      35.567 -21.095 -18.554  0.00  0.00    -0.297 N 
ATOM      8  H   UNL     1      36.352 -20.844 -19.092  0.00  0.00    +0.154 HD
ENDROOT
BRANCH   7   9
ATOM      9  C   UNL     1      35.891 -21.626 -17.289  0.00  0.00    +0.050 C 
ATOM     10  C   UNL     1      37.184 -21.488 -16.785  0.00  0.00    +0.018 C 
ATOM     11  C   UNL     1      34.918 -22.290 -16.542  0.00  0.00    +0.018 C 
ATOM     12  C   UNL     1      37.505 -22.015 -15.534  0.00  0.00    +0.038 C 
ATOM     13  C   UNL     1      35.238 -22.817 -15.291  0.00  0.00    +0.038 C 
ATOM     14  C   UNL     1      36.532 -22.679 -14.787  0.00  0.00    +0.134 C 
BRANCH  14  15
ATOM     15  O   UNL     1      36.843 -23.192 -13.565  0.00  0.00    -0.506 OA
ATOM     16  H   UNL     1      37.503 -23.853 -13.489  0.00  0.00    +0.292 HD
ENDBRANCH  14  15
ENDBRANCH   7   9
BRANCH   2  17
ATOM     17  N   UNL     1      35.383 -18.971 -20.404  0.00  0.00    -0.212 N 
ATOM     18  H   UNL     1      36.009 -18.704 -19.692  0.00  0.00    +0.174 HD
BRANCH  17  19
ATOM     19  S   UNL     1      35.620 -18.442 -22.025  0.00  0.00    +0.074 S 
ATOM     20  O   UNL     1      37.041 -18.265 -22.261  0.00  0.00    -0.150 OA
ATOM     21  O   UNL     1      34.836 -19.257 -22.934  0.00  0.00    -0.150 OA
BRANCH  19  22
ATOM     22  C   UNL     1      34.902 -16.826 -21.990  0.00  0.00    +0.125 C 
ATOM     23  C   UNL     1      34.530 -16.280 -20.775  0.00  0.00    +0.023 C 
ATOM     24  C   UNL     1      34.726 -16.140 -23.180  0.00  0.00    +0.023 C 
ATOM     25  C   UNL     1      33.964 -15.005 -20.747  0.00  0.00    +0.038 C 
ATOM     26  C   UNL     1      34.159 -14.866 -23.152  0.00  0.00    +0.038 C 
ATOM     27  C   UNL     1      33.778 -14.298 -21.935  0.00  0.00    +0.139 C 
BRANCH  27  28
ATOM     28  O   UNL     1      33.226 -13.054 -21.907  0.00  0.00    -0.471 OA
ATOM     29  C   UNL     1      33.382 -12.249 -23.075  0.00  0.00    +0.252 C 
ENDBRANCH  27  28
ENDBRANCH  19  22
ENDBRANCH  17  19
ENDBRANCH   2  17
TORSDOF 6
ENDMDL
MODEL 7
REMARK VINA RESULT:     -10.1      2.737      6.221
REMARK  Name = 3035714
REMARK  6 active torsions:
REMARK  status: ('A' for Active; 'I' for Inactive)
REMARK    1  A    between atoms: C_2  and  N_7
REMARK    2  A    between atoms: N_7  and  S_9
REMARK    3  A    between atoms: S_9  and  C_12
REMARK    4  A    between atoms: C_17  and  O_18
REMARK    5  A    between atoms: N_20  and  C_22
REMARK    6  A    between atoms: C_27  and  O_28
REMARK                            x       y       z     vdW  Elec       q    Type
REMARK                         _______ _______ _______ _____ _____    ______ ____
ROOT
ATOM      1  N   UNL     1      34.060 -23.844 -11.795  0.00  0.00    -0.228 NA
ATOM      2  C   UNL     1      35.796 -24.011 -13.469  0.00  0.00    +0.096 C 
ATOM      3  C   UNL     1      34.487 -23.754 -13.079  0.00  0.00    +0.147 C 
ATOM      4  C   UNL     1      36.714 -24.378 -12.491  0.00  0.00    +0.020 C 
ATOM      5  C   UNL     1      36.306 -24.479 -11.166  0.00  0.00    +0.022 C 
ATOM      6  C   UNL     1      34.980 -24.203 -10.873  0.00  0.00    +0.100 C 
ATOM      7  N   UNL     1      33.551 -23.380 -14.064  0.00  0.00    -0.297 N 
ATOM      8  H   UNL     1      33.948 -22.893 -14.822  0.00  0.00    +0.154 HD
ENDROOT
BRANCH   7   9
ATOM      9  C   UNL     1      32.158 -23.565 -14.177  0.00  0.00    +0.050 C 
ATOM     10  C   UNL     1      31.382 -22.626 -14.855  0.00  0.00    +0.018 C 
ATOM     11  C   UNL     1      31.556 -24.689 -13.611  0.00  0.00    +0.018 C 
ATOM     12  C   UNL     1      30.004 -22.808 -14.966  0.00  0.00    +0.038 C 
ATOM     13  C   UNL     1      30.178 -24.873 -13.721  0.00  0.00    +0.038 C 
ATOM     14  C   UNL     1      29.402 -23.932 -14.399  0.00  0.00    +0.134 C 
BRANCH  14  15
ATOM     15  O   UNL     1      28.057 -24.113 -14.508  0.00  0.00    -0.506 OA
ATOM     16  H   UNL     1      27.584 -24.537 -13.819  0.00  0.00    +0.292 HD
ENDBRANCH  14  15
ENDBRANCH   7   9
BRANCH   2  17
ATOM     17  N   UNL     1      36.216 -23.907 -14.831  0.00  0.00    -0.212 N 
ATOM     18  H   UNL     1      36.090 -24.660 -15.454  0.00  0.00    +0.174 HD
BRANCH  17  19
ATOM     19  S   UNL     1      36.947 -22.441 -15.363  0.00  0.00    +0.074 S 
ATOM     20  O   UNL     1      36.750 -21.421 -14.350  0.00  0.00    -0.150 OA
ATOM     21  O   UNL     1      38.280 -22.706 -15.869  0.00  0.00    -0.150 OA
BRANCH  19  22
ATOM     22  C   UNL     1      35.924 -22.002 -16.738  0.00  0.00    +0.125 C 
ATOM     23  C   UNL     1      34.609 -22.429 -16.763  0.00  0.00    +0.023 C 
ATOM     24  C   UNL     1      36.461 -21.239 -17.761  0.00  0.00    +0.023 C 
ATOM     25  C   UNL     1      33.802 -22.082 -17.847  0.00  0.00    +0.038 C 
ATOM     26  C   UNL     1      35.654 -20.892 -18.845  0.00  0.00    +0.038 C 
ATOM     27  C   UNL     1      34.324 -21.314 -18.888  0.00  0.00    +0.139 C 
BRANCH  27  28
ATOM     28  O   UNL     1      33.537 -20.976 -19.946  0.00  0.00    -0.471 OA
ATOM     29  C   UNL     1      33.820 -19.737 -20.595  0.00  0.00    +0.252 C 
ENDBRANCH  27  28
ENDBRANCH  19  22
ENDBRANCH  17  19
ENDBRANCH   2  17
TORSDOF 6
ENDMDL
MODEL 8
REMARK VINA RESULT:     -10.1     12.029     15.093
REMARK  Name = 3035714
REMARK  6 active torsions:
REMARK  status: ('A' for Active; 'I' for Inactive)
REMARK    1  A    between atoms: C_2  and  N_7
REMARK    2  A    between atoms: N_7  and  S_9
REMARK    3  A    between atoms: S_9  and  C_12
REMARK    4  A    between atoms: C_17  and  O_18
REMARK    5  A    between atoms: N_20  and  C_22
REMARK    6  A    between atoms: C_27  and  O_28
REMARK                            x       y       z     vdW  Elec       q    Type
REMARK                         _______ _______ _______ _____ _____    ______ ____
ROOT
ATOM      1  N   UNL     1      31.822  -8.109 -20.753  0.00  0.00    -0.228 NA
ATOM      2  C   UNL     1      31.500 -10.352 -21.596  0.00  0.00    +0.096 C 
ATOM      3  C   UNL     1      31.789  -9.004 -21.772  0.00  0.00    +0.147 C 
ATOM      4  C   UNL     1      31.231 -10.804 -20.309  0.00  0.00    +0.020 C 
ATOM      5  C   UNL     1      31.256  -9.910 -19.244  0.00  0.00    +0.022 C 
ATOM      6  C   UNL     1      31.555  -8.585 -19.517  0.00  0.00    +0.100 C 
ATOM      7  N   UNL     1      32.065  -8.538 -23.073  0.00  0.00    -0.297 N 
ATOM      8  H   UNL     1      32.479  -9.215 -23.656  0.00  0.00    +0.154 HD
ENDROOT
BRANCH   7   9
ATOM      9  C   UNL     1      31.867  -7.292 -23.703  0.00  0.00    +0.050 C 
ATOM     10  C   UNL     1      30.580  -6.773 -23.832  0.00  0.00    +0.018 C 
ATOM     11  C   UNL     1      32.960  -6.580 -24.198  0.00  0.00    +0.018 C 
ATOM     12  C   UNL     1      30.384  -5.541 -24.456  0.00  0.00    +0.038 C 
ATOM     13  C   UNL     1      32.765  -5.348 -24.823  0.00  0.00    +0.038 C 
ATOM     14  C   UNL     1      31.477  -4.829 -24.951  0.00  0.00    +0.134 C 
BRANCH  14  15
ATOM     15  O   UNL     1      31.287  -3.626 -25.559  0.00  0.00    -0.506 OA
ATOM     16  H   UNL     1      31.756  -2.871 -25.261  0.00  0.00    +0.292 HD
ENDBRANCH  14  15
ENDBRANCH   7   9
BRANCH   2  17
ATOM     17  N   UNL     1      31.474 -11.271 -22.689  0.00  0.00    -0.212 N 
ATOM     18  H   UNL     1      30.626 -11.677 -22.984  0.00  0.00    +0.174 HD
BRANCH  17  19
ATOM     19  S   UNL     1      32.953 -11.658 -23.481  0.00  0.00    +0.074 S 
ATOM     20  O   UNL     1      32.668 -12.054 -24.848  0.00  0.00    -0.150 OA
ATOM     21  O   UNL     1      33.940 -10.626 -23.222  0.00  0.00    -0.150 OA
BRANCH  19  22
ATOM     22  C   UNL     1      33.458 -13.118 -22.619  0.00  0.00    +0.125 C 
ATOM     23  C   UNL     1      33.466 -13.114 -21.235  0.00  0.00    +0.023 C 
ATOM     24  C   UNL     1      33.835 -14.234 -23.346  0.00  0.00    +0.023 C 
ATOM     25  C   UNL     1      33.864 -14.265 -20.555  0.00  0.00    +0.038 C 
ATOM     26  C   UNL     1      34.233 -15.385 -22.665  0.00  0.00    +0.038 C 
ATOM     27  C   UNL     1      34.248 -15.400 -21.269  0.00  0.00    +0.139 C 
BRANCH  27  28
ATOM     28  O   UNL     1      34.635 -16.524 -20.605  0.00  0.00    -0.471 OA
ATOM     29  C   UNL     1      35.331 -17.515 -21.359  0.00  0.00    +0.252 C 
ENDBRANCH  27  28
ENDBRANCH  19  22
ENDBRANCH  17  19
ENDBRANCH   2  17
TORSDOF 6
ENDMDL
MODEL 9
REMARK VINA RESULT:      -9.8      4.957      9.034
REMARK  Name = 3035714
REMARK  6 active torsions:
REMARK  status: ('A' for Active; 'I' for Inactive)
REMARK    1  A    between atoms: C_2  and  N_7
REMARK    2  A    between atoms: N_7  and  S_9
REMARK    3  A    between atoms: S_9  and  C_12
REMARK    4  A    between atoms: C_17  and  O_18
REMARK    5  A    between atoms: N_20  and  C_22
REMARK    6  A    between atoms: C_27  and  O_28
REMARK                            x       y       z     vdW  Elec       q    Type
REMARK                         _______ _______ _______ _____ _____    ______ ____
ROOT
ATOM      1  N   UNL     1      32.977 -21.078 -18.788  0.00  0.00    -0.228 NA
ATOM      2  C   UNL     1      34.121 -20.010 -20.630  0.00  0.00    +0.096 C 
ATOM      3  C   UNL     1      34.110 -20.763 -19.462  0.00  0.00    +0.147 C 
ATOM      4  C   UNL     1      32.905 -19.556 -21.131  0.00  0.00    +0.020 C 
ATOM      5  C   UNL     1      31.726 -19.862 -20.461  0.00  0.00    +0.022 C 
ATOM      6  C   UNL     1      31.815 -20.620 -19.305  0.00  0.00    +0.100 C 
ATOM      7  N   UNL     1      35.338 -21.228 -18.949  0.00  0.00    -0.297 N 
ATOM      8  H   UNL     1      36.018 -21.393 -19.641  0.00  0.00    +0.154 HD
ENDROOT
BRANCH   7   9
ATOM      9  C   UNL     1      35.782 -21.504 -17.639  0.00  0.00    +0.050 C 
ATOM     10  C   UNL     1      35.080 -22.405 -16.840  0.00  0.00    +0.018 C 
ATOM     11  C   UNL     1      36.926 -20.876 -17.145  0.00  0.00    +0.018 C 
ATOM     12  C   UNL     1      35.519 -22.677 -15.544  0.00  0.00    +0.038 C 
ATOM     13  C   UNL     1      37.366 -21.148 -15.849  0.00  0.00    +0.038 C 
ATOM     14  C   UNL     1      36.663 -22.048 -15.049  0.00  0.00    +0.134 C 
BRANCH  14  15
ATOM     15  O   UNL     1      37.094 -22.314 -13.786  0.00  0.00    -0.506 OA
ATOM     16  H   UNL     1      37.135 -21.627 -13.150  0.00  0.00    +0.292 HD
ENDBRANCH  14  15
ENDBRANCH   7   9
BRANCH   2  17
ATOM     17  N   UNL     1      35.333 -19.696 -21.319  0.00  0.00    -0.212 N 
ATOM     18  H   UNL     1      35.810 -20.387 -21.834  0.00  0.00    +0.174 HD
BRANCH  17  19
ATOM     19  S   UNL     1      35.944 -18.089 -21.230  0.00  0.00    +0.074 S 
ATOM     20  O   UNL     1      35.526 -17.494 -19.974  0.00  0.00    -0.150 OA
ATOM     21  O   UNL     1      37.345 -18.069 -21.605  0.00  0.00    -0.150 OA
BRANCH  19  22
ATOM     22  C   UNL     1      35.030 -17.279 -22.510  0.00  0.00    +0.125 C 
ATOM     23  C   UNL     1      34.559 -18.024 -23.576  0.00  0.00    +0.023 C 
ATOM     24  C   UNL     1      34.803 -15.917 -22.418  0.00  0.00    +0.023 C 
ATOM     25  C   UNL     1      33.838 -17.385 -24.585  0.00  0.00    +0.038 C 
ATOM     26  C   UNL     1      34.082 -15.279 -23.427  0.00  0.00    +0.038 C 
ATOM     27  C   UNL     1      33.600 -16.013 -24.511  0.00  0.00    +0.139 C 
BRANCH  27  28
ATOM     28  O   UNL     1      32.895 -15.390 -25.496  0.00  0.00    -0.471 OA
ATOM     29  C   UNL     1      32.958 -13.966 -25.537  0.00  0.00    +0.252 C 
ENDBRANCH  27  28
ENDBRANCH  19  22
ENDBRANCH  17  19
ENDBRANCH   2  17
TORSDOF 6
ENDMDL
