MODEL 1
REMARK VINA RESULT:     -12.8      0.000      0.000
REMARK  Name = 16040289
REMARK  6 active torsions:
REMARK  status: ('A' for Active; 'I' for Inactive)
REMARK    1  A    between atoms: N_2  and  C_20
REMARK    2  A    between atoms: C_3  and  C_6
REMARK    3  A    between atoms: N_11  and  C_13
REMARK    4  A    between atoms: C_13  and  C_15
REMARK    5  A    between atoms: C_23  and  O_26
REMARK    6  A    between atoms: O_26  and  C_27
REMARK                            x       y       z     vdW  Elec       q    Type
REMARK                         _______ _______ _______ _____ _____    ______ ____
ROOT
ATOM      1  O   UNL     1      33.783 -23.462 -17.090  0.00  0.00    -0.270 OA
ATOM      2  N   UNL     1      32.378 -21.676 -17.693  0.00  0.00    -0.280 N 
ATOM      3  C   UNL     1      32.771 -22.787 -16.936  0.00  0.00    +0.252 C 
ATOM      4  H   UNL     1      31.529 -21.252 -17.428  0.00  0.00    +0.155 HD
ENDROOT
BRANCH   3   6
ATOM      5  N   UNL     1      31.446 -23.895 -13.604  0.00  0.00    -0.229 NA
ATOM      6  C   UNL     1      31.832 -23.186 -15.855  0.00  0.00    +0.085 C 
ATOM      7  C   UNL     1      32.277 -23.528 -14.605  0.00  0.00    +0.133 C 
ATOM      8  C   UNL     1      30.486 -23.206 -16.136  0.00  0.00    +0.009 C 
ATOM      9  C   UNL     1      29.599 -23.579 -15.132  0.00  0.00    +0.021 C 
ATOM     10  C   UNL     1      30.126 -23.912 -13.893  0.00  0.00    +0.100 C 
ATOM     11  N   UNL     1      33.668 -23.500 -14.332  0.00  0.00    -0.314 N 
ATOM     12  H   UNL     1      34.285 -23.233 -15.051  0.00  0.00    +0.149 HD
BRANCH  11  13
ATOM     13  C   UNL     1      34.208 -23.842 -13.057  0.00  0.00    +0.115 C 
BRANCH  13  15
ATOM     14  N   UNL     1      37.858 -26.041 -13.516  0.00  0.00    -0.242 NA
ATOM     15  C   UNL     1      35.489 -24.614 -13.219  0.00  0.00    +0.000 C 
ATOM     16  C   UNL     1      35.821 -25.141 -14.455  0.00  0.00    +0.018 C 
ATOM     17  C   UNL     1      36.324 -24.790 -12.128  0.00  0.00    +0.018 C 
ATOM     18  C   UNL     1      37.011 -25.843 -14.551  0.00  0.00    +0.099 C 
ATOM     19  C   UNL     1      37.493 -25.508 -12.329  0.00  0.00    +0.099 C 
ENDBRANCH  13  15
ENDBRANCH  11  13
ENDBRANCH   3   6
BRANCH   2  20
ATOM     20  C   UNL     1      33.040 -21.096 -18.775  0.00  0.00    +0.051 C 
ATOM     21  C   UNL     1      32.319 -20.383 -19.734  0.00  0.00    +0.018 C 
ATOM     22  C   UNL     1      34.423 -21.230 -18.900  0.00  0.00    +0.018 C 
ATOM     23  C   UNL     1      34.364 -19.937 -20.941  0.00  0.00    +0.145 C 
ATOM     24  C   UNL     1      32.982 -19.803 -20.816  0.00  0.00    +0.039 C 
ATOM     25  C   UNL     1      35.085 -20.650 -19.983  0.00  0.00    +0.039 C 
BRANCH  23  26
ATOM     26  O   UNL     1      35.010 -19.374 -21.997  0.00  0.00    -0.453 OA
BRANCH  26  27
ATOM     27  C   UNL     1      34.713 -18.057 -22.306  0.00  0.00    +0.145 C 
ATOM     28  C   UNL     1      34.272 -17.748 -23.581  0.00  0.00    +0.037 C 
ATOM     29  C   UNL     1      34.865 -17.085 -21.334  0.00  0.00    +0.037 C 
ATOM     30  C   UNL     1      33.973 -16.421 -23.893  0.00  0.00    +0.003 C 
ATOM     31  C   UNL     1      34.567 -15.759 -21.646  0.00  0.00    +0.003 C 
ATOM     32  C   UNL     1      34.121 -15.427 -22.925  0.00  0.00    +0.000 C 
ENDBRANCH  26  27
ENDBRANCH  23  26
ENDBRANCH   2  20
TORSDOF 6
ENDMDL
MODEL 2
REMARK VINA RESULT:     -12.5      1.915      4.747
REMARK  Name = 16040289
REMARK  6 active torsions:
REMARK  status: ('A' for Active; 'I' for Inactive)
REMARK    1  A    between atoms: N_2  and  C_20
REMARK    2  A    between atoms: C_3  and  C_6
REMARK    3  A    between atoms: N_11  and  C_13
REMARK    4  A    between atoms: C_13  and  C_15
REMARK    5  A    between atoms: C_23  and  O_26
REMARK    6  A    between atoms: O_26  and  C_27
REMARK                            x       y       z     vdW  Elec       q    Type
REMARK                         _______ _______ _______ _____ _____    ______ ____
ROOT
ATOM      1  O   UNL     1      33.900 -21.969 -18.148  0.00  0.00    -0.270 OA
ATOM      2  N   UNL     1      35.796 -20.650 -18.583  0.00  0.00    -0.280 N 
ATOM      3  C   UNL     1      35.027 -21.576 -17.867  0.00  0.00    +0.252 C 
ATOM      4  H   UNL     1      36.686 -20.449 -18.210  0.00  0.00    +0.155 HD
ENDROOT
BRANCH   3   6
ATOM      5  N   UNL     1      35.451 -23.153 -14.488  0.00  0.00    -0.229 NA
ATOM      6  C   UNL     1      35.653 -22.103 -16.627  0.00  0.00    +0.085 C 
ATOM      7  C   UNL     1      34.907 -22.668 -15.627  0.00  0.00    +0.133 C 
ATOM      8  C   UNL     1      37.020 -22.011 -16.498  0.00  0.00    +0.009 C 
ATOM      9  C   UNL     1      37.617 -22.500 -15.341  0.00  0.00    +0.021 C 
ATOM     10  C   UNL     1      36.794 -23.057 -14.374  0.00  0.00    +0.100 C 
ATOM     11  N   UNL     1      33.500 -22.755 -15.777  0.00  0.00    -0.314 N 
ATOM     12  H   UNL     1      33.091 -22.406 -16.601  0.00  0.00    +0.149 HD
BRANCH  11  13
ATOM     13  C   UNL     1      32.655 -23.329 -14.781  0.00  0.00    +0.115 C 
BRANCH  13  15
ATOM     14  N   UNL     1      28.564 -23.232 -16.053  0.00  0.00    -0.242 NA
ATOM     15  C   UNL     1      31.219 -23.296 -15.227  0.00  0.00    +0.000 C 
ATOM     16  C   UNL     1      30.308 -24.176 -14.671  0.00  0.00    +0.018 C 
ATOM     17  C   UNL     1      30.823 -22.384 -16.191  0.00  0.00    +0.018 C 
ATOM     18  C   UNL     1      28.998 -24.105 -15.116  0.00  0.00    +0.099 C 
ATOM     19  C   UNL     1      29.489 -22.392 -16.567  0.00  0.00    +0.099 C 
ENDBRANCH  13  15
ENDBRANCH  11  13
ENDBRANCH   3   6
BRANCH   2  20
ATOM     20  C   UNL     1      35.459 -19.978 -19.758  0.00  0.00    +0.051 C 
ATOM     21  C   UNL     1      34.171 -20.089 -20.280  0.00  0.00    +0.018 C 
ATOM     22  C   UNL     1      36.412 -19.195 -20.411  0.00  0.00    +0.018 C 
ATOM     23  C   UNL     1      34.787 -18.634 -22.109  0.00  0.00    +0.145 C 
ATOM     24  C   UNL     1      33.835 -19.416 -21.456  0.00  0.00    +0.039 C 
ATOM     25  C   UNL     1      36.075 -18.523 -21.586  0.00  0.00    +0.039 C 
BRANCH  23  26
ATOM     26  O   UNL     1      34.459 -17.980 -23.256  0.00  0.00    -0.453 OA
BRANCH  26  27
ATOM     27  C   UNL     1      34.180 -16.626 -23.169  0.00  0.00    +0.145 C 
ATOM     28  C   UNL     1      34.386 -15.972 -21.966  0.00  0.00    +0.037 C 
ATOM     29  C   UNL     1      33.703 -15.963 -24.284  0.00  0.00    +0.037 C 
ATOM     30  C   UNL     1      34.103 -14.609 -21.878  0.00  0.00    +0.003 C 
ATOM     31  C   UNL     1      33.420 -14.599 -24.196  0.00  0.00    +0.003 C 
ATOM     32  C   UNL     1      33.621 -13.923 -22.992  0.00  0.00    +0.000 C 
ENDBRANCH  26  27
ENDBRANCH  23  26
ENDBRANCH   2  20
TORSDOF 6
ENDMDL
MODEL 3
REMARK VINA RESULT:     -12.3      1.583      4.761
REMARK  Name = 16040289
REMARK  6 active torsions:
REMARK  status: ('A' for Active; 'I' for Inactive)
REMARK    1  A    between atoms: N_2  and  C_20
REMARK    2  A    between atoms: C_3  and  C_6
REMARK    3  A    between atoms: N_11  and  C_13
REMARK    4  A    between atoms: C_13  and  C_15
REMARK    5  A    between atoms: C_23  and  O_26
REMARK    6  A    between atoms: O_26  and  C_27
REMARK                            x       y       z     vdW  Elec       q    Type
REMARK                         _______ _______ _______ _____ _____    ______ ____
ROOT
ATOM      1  O   UNL     1      33.154 -23.506 -17.766  0.00  0.00    -0.270 OA
ATOM      2  N   UNL     1      34.562 -21.648 -17.463  0.00  0.00    -0.280 N 
ATOM      3  C   UNL     1      33.893 -22.815 -17.073  0.00  0.00    +0.252 C 
ATOM      4  H   UNL     1      35.117 -21.219 -16.773  0.00  0.00    +0.155 HD
ENDROOT
BRANCH   3   6
ATOM      5  N   UNL     1      33.227 -23.556 -13.454  0.00  0.00    -0.229 NA
ATOM      6  C   UNL     1      34.094 -23.223 -15.658  0.00  0.00    +0.085 C 
ATOM      7  C   UNL     1      33.072 -23.192 -14.747  0.00  0.00    +0.133 C 
ATOM      8  C   UNL     1      35.348 -23.639 -15.272  0.00  0.00    +0.009 C 
ATOM      9  C   UNL     1      35.547 -24.022 -13.950  0.00  0.00    +0.021 C 
ATOM     10  C   UNL     1      34.464 -23.963 -13.088  0.00  0.00    +0.100 C 
ATOM     11  N   UNL     1      31.787 -22.761 -15.161  0.00  0.00    -0.314 N 
ATOM     12  H   UNL     1      31.658 -22.494 -16.100  0.00  0.00    +0.149 HD
BRANCH  11  13
ATOM     13  C   UNL     1      30.672 -22.701 -14.273  0.00  0.00    +0.115 C 
BRANCH  13  15
ATOM     14  N   UNL     1      26.999 -23.031 -16.456  0.00  0.00    -0.242 NA
ATOM     15  C   UNL     1      29.382 -22.816 -15.039  0.00  0.00    +0.000 C 
ATOM     16  C   UNL     1      28.465 -21.781 -14.997  0.00  0.00    +0.018 C 
ATOM     17  C   UNL     1      29.126 -23.958 -15.779  0.00  0.00    +0.018 C 
ATOM     18  C   UNL     1      27.293 -21.937 -15.719  0.00  0.00    +0.099 C 
ATOM     19  C   UNL     1      27.925 -24.015 -16.468  0.00  0.00    +0.099 C 
ENDBRANCH  13  15
ENDBRANCH  11  13
ENDBRANCH   3   6
BRANCH   2  20
ATOM     20  C   UNL     1      34.540 -21.021 -18.708  0.00  0.00    +0.051 C 
ATOM     21  C   UNL     1      35.735 -20.654 -19.327  0.00  0.00    +0.018 C 
ATOM     22  C   UNL     1      33.321 -20.758 -19.335  0.00  0.00    +0.018 C 
ATOM     23  C   UNL     1      34.494 -19.764 -21.199  0.00  0.00    +0.145 C 
ATOM     24  C   UNL     1      35.712 -20.027 -20.573  0.00  0.00    +0.039 C 
ATOM     25  C   UNL     1      33.299 -20.130 -20.581  0.00  0.00    +0.039 C 
BRANCH  23  26
ATOM     26  O   UNL     1      34.472 -19.150 -22.413  0.00  0.00    -0.453 OA
BRANCH  26  27
ATOM     27  C   UNL     1      34.397 -17.768 -22.434  0.00  0.00    +0.145 C 
ATOM     28  C   UNL     1      34.202 -17.122 -23.643  0.00  0.00    +0.037 C 
ATOM     29  C   UNL     1      34.518 -17.067 -21.248  0.00  0.00    +0.037 C 
ATOM     30  C   UNL     1      34.128 -15.729 -23.664  0.00  0.00    +0.003 C 
ATOM     31  C   UNL     1      34.444 -15.674 -21.269  0.00  0.00    +0.003 C 
ATOM     32  C   UNL     1      34.249 -15.006 -22.477  0.00  0.00    +0.000 C 
ENDBRANCH  26  27
ENDBRANCH  23  26
ENDBRANCH   2  20
TORSDOF 6
ENDMDL
MODEL 4
REMARK VINA RESULT:     -12.2      1.467      1.736
REMARK  Name = 16040289
REMARK  6 active torsions:
REMARK  status: ('A' for Active; 'I' for Inactive)
REMARK    1  A    between atoms: N_2  and  C_20
REMARK    2  A    between atoms: C_3  and  C_6
REMARK    3  A    between atoms: N_11  and  C_13
REMARK    4  A    between atoms: C_13  and  C_15
REMARK    5  A    between atoms: C_23  and  O_26
REMARK    6  A    between atoms: O_26  and  C_27
REMARK                            x       y       z     vdW  Elec       q    Type
REMARK                         _______ _______ _______ _____ _____    ______ ____
ROOT
ATOM      1  O   UNL     1      30.574 -21.506 -17.254  0.00  0.00    -0.270 OA
ATOM      2  N   UNL     1      32.647 -22.605 -17.107  0.00  0.00    -0.280 N 
ATOM      3  C   UNL     1      31.303 -22.375 -16.787  0.00  0.00    +0.252 C 
ATOM      4  H   UNL     1      33.081 -23.350 -16.632  0.00  0.00    +0.155 HD
ENDROOT
BRANCH   3   6
ATOM      5  N   UNL     1      30.981 -24.531 -13.732  0.00  0.00    -0.229 NA
ATOM      6  C   UNL     1      30.731 -23.273 -15.750  0.00  0.00    +0.085 C 
ATOM      7  C   UNL     1      31.475 -23.713 -14.688  0.00  0.00    +0.133 C 
ATOM      8  C   UNL     1      29.417 -23.662 -15.879  0.00  0.00    +0.009 C 
ATOM      9  C   UNL     1      28.872 -24.504 -14.916  0.00  0.00    +0.021 C 
ATOM     10  C   UNL     1      29.689 -24.907 -13.871  0.00  0.00    +0.100 C 
ATOM     11  N   UNL     1      32.826 -23.301 -14.570  0.00  0.00    -0.314 N 
ATOM     12  H   UNL     1      33.200 -22.704 -15.259  0.00  0.00    +0.149 HD
BRANCH  11  13
ATOM     13  C   UNL     1      33.666 -23.716 -13.494  0.00  0.00    +0.115 C 
BRANCH  13  15
ATOM     14  N   UNL     1      37.793 -23.401 -14.609  0.00  0.00    -0.242 NA
ATOM     15  C   UNL     1      35.115 -23.606 -13.885  0.00  0.00    +0.000 C 
ATOM     16  C   UNL     1      35.983 -24.645 -13.598  0.00  0.00    +0.018 C 
ATOM     17  C   UNL     1      35.565 -22.465 -14.528  0.00  0.00    +0.018 C 
ATOM     18  C   UNL     1      37.306 -24.494 -13.979  0.00  0.00    +0.099 C 
ATOM     19  C   UNL     1      36.908 -22.413 -14.868  0.00  0.00    +0.099 C 
ENDBRANCH  13  15
ENDBRANCH  11  13
ENDBRANCH   3   6
BRANCH   2  20
ATOM     20  C   UNL     1      33.445 -21.910 -18.015  0.00  0.00    +0.051 C 
ATOM     21  C   UNL     1      32.859 -21.227 -19.080  0.00  0.00    +0.018 C 
ATOM     22  C   UNL     1      34.832 -21.900 -17.858  0.00  0.00    +0.018 C 
ATOM     23  C   UNL     1      35.044 -20.521 -19.832  0.00  0.00    +0.145 C 
ATOM     24  C   UNL     1      33.659 -20.531 -19.988  0.00  0.00    +0.039 C 
ATOM     25  C   UNL     1      35.631 -21.204 -18.767  0.00  0.00    +0.039 C 
BRANCH  23  26
ATOM     26  O   UNL     1      35.824 -19.845 -20.718  0.00  0.00    -0.453 OA
BRANCH  26  27
ATOM     27  C   UNL     1      35.232 -18.836 -21.459  0.00  0.00    +0.145 C 
ATOM     28  C   UNL     1      34.598 -19.157 -22.647  0.00  0.00    +0.037 C 
ATOM     29  C   UNL     1      35.289 -17.535 -20.994  0.00  0.00    +0.037 C 
ATOM     30  C   UNL     1      34.001 -18.140 -23.394  0.00  0.00    +0.003 C 
ATOM     31  C   UNL     1      34.693 -16.519 -21.741  0.00  0.00    +0.003 C 
ATOM     32  C   UNL     1      34.049 -16.822 -22.941  0.00  0.00    +0.000 C 
ENDBRANCH  26  27
ENDBRANCH  23  26
ENDBRANCH   2  20
TORSDOF 6
ENDMDL
MODEL 5
REMARK VINA RESULT:     -12.0      1.607      2.539
REMARK  Name = 16040289
REMARK  6 active torsions:
REMARK  status: ('A' for Active; 'I' for Inactive)
REMARK    1  A    between atoms: N_2  and  C_20
REMARK    2  A    between atoms: C_3  and  C_6
REMARK    3  A    between atoms: N_11  and  C_13
REMARK    4  A    between atoms: C_13  and  C_15
REMARK    5  A    between atoms: C_23  and  O_26
REMARK    6  A    between atoms: O_26  and  C_27
REMARK                            x       y       z     vdW  Elec       q    Type
REMARK                         _______ _______ _______ _____ _____    ______ ____
ROOT
ATOM      1  O   UNL     1      35.843 -21.961 -18.099  0.00  0.00    -0.270 OA
ATOM      2  N   UNL     1      33.816 -20.936 -18.707  0.00  0.00    -0.280 N 
ATOM      3  C   UNL     1      34.648 -21.747 -17.924  0.00  0.00    +0.252 C 
ATOM      4  H   UNL     1      32.876 -20.879 -18.420  0.00  0.00    +0.155 HD
ENDROOT
BRANCH   3   6
ATOM      5  N   UNL     1      34.065 -23.307 -14.561  0.00  0.00    -0.229 NA
ATOM      6  C   UNL     1      33.983 -22.430 -16.784  0.00  0.00    +0.085 C 
ATOM      7  C   UNL     1      34.645 -22.686 -15.613  0.00  0.00    +0.133 C 
ATOM      8  C   UNL     1      32.667 -22.807 -16.929  0.00  0.00    +0.009 C 
ATOM      9  C   UNL     1      32.036 -23.448 -15.868  0.00  0.00    +0.021 C 
ATOM     10  C   UNL     1      32.773 -23.673 -14.716  0.00  0.00    +0.100 C 
ATOM     11  N   UNL     1      35.999 -22.290 -15.481  0.00  0.00    -0.314 N 
ATOM     12  H   UNL     1      36.434 -21.836 -16.238  0.00  0.00    +0.149 HD
BRANCH  11  13
ATOM     13  C   UNL     1      36.756 -22.521 -14.294  0.00  0.00    +0.115 C 
BRANCH  13  15
ATOM     14  N   UNL     1      38.993 -26.162 -14.626  0.00  0.00    -0.242 NA
ATOM     15  C   UNL     1      37.542 -23.799 -14.411  0.00  0.00    +0.000 C 
ATOM     16  C   UNL     1      38.809 -23.776 -14.967  0.00  0.00    +0.018 C 
ATOM     17  C   UNL     1      36.988 -24.986 -13.961  0.00  0.00    +0.018 C 
ATOM     18  C   UNL     1      39.490 -24.979 -15.052  0.00  0.00    +0.099 C 
ATOM     19  C   UNL     1      37.752 -26.135 -14.090  0.00  0.00    +0.099 C 
ENDBRANCH  13  15
ENDBRANCH  11  13
ENDBRANCH   3   6
BRANCH   2  20
ATOM     20  C   UNL     1      34.155 -20.201 -19.843  0.00  0.00    +0.051 C 
ATOM     21  C   UNL     1      35.467 -19.762 -20.024  0.00  0.00    +0.018 C 
ATOM     22  C   UNL     1      33.181 -19.903 -20.796  0.00  0.00    +0.018 C 
ATOM     23  C   UNL     1      34.832 -18.728 -22.114  0.00  0.00    +0.145 C 
ATOM     24  C   UNL     1      35.805 -19.026 -21.161  0.00  0.00    +0.039 C 
ATOM     25  C   UNL     1      33.520 -19.167 -21.933  0.00  0.00    +0.039 C 
BRANCH  23  26
ATOM     26  O   UNL     1      35.161 -18.009 -23.221  0.00  0.00    -0.453 OA
BRANCH  26  27
ATOM     27  C   UNL     1      34.571 -16.767 -23.381  0.00  0.00    +0.145 C 
ATOM     28  C   UNL     1      34.663 -15.840 -22.357  0.00  0.00    +0.037 C 
ATOM     29  C   UNL     1      33.904 -16.484 -24.560  0.00  0.00    +0.037 C 
ATOM     30  C   UNL     1      34.068 -14.589 -22.518  0.00  0.00    +0.003 C 
ATOM     31  C   UNL     1      33.308 -15.232 -24.720  0.00  0.00    +0.003 C 
ATOM     32  C   UNL     1      33.391 -14.286 -23.699  0.00  0.00    +0.000 C 
ENDBRANCH  26  27
ENDBRANCH  23  26
ENDBRANCH   2  20
TORSDOF 6
ENDMDL
MODEL 6
REMARK VINA RESULT:     -11.7      1.916      4.685
REMARK  Name = 16040289
REMARK  6 active torsions:
REMARK  status: ('A' for Active; 'I' for Inactive)
REMARK    1  A    between atoms: N_2  and  C_20
REMARK    2  A    between atoms: C_3  and  C_6
REMARK    3  A    between atoms: N_11  and  C_13
REMARK    4  A    between atoms: C_13  and  C_15
REMARK    5  A    between atoms: C_23  and  O_26
REMARK    6  A    between atoms: O_26  and  C_27
REMARK                            x       y       z     vdW  Elec       q    Type
REMARK                         _______ _______ _______ _____ _____    ______ ____
ROOT
ATOM      1  O   UNL     1      35.741 -24.252 -15.723  0.00  0.00    -0.270 OA
ATOM      2  N   UNL     1      35.023 -22.014 -15.747  0.00  0.00    -0.280 N 
ATOM      3  C   UNL     1      35.399 -23.224 -15.150  0.00  0.00    +0.252 C 
ATOM      4  H   UNL     1      34.776 -21.287 -15.130  0.00  0.00    +0.155 HD
ENDROOT
BRANCH   3   6
ATOM      5  N   UNL     1      34.156 -23.722 -11.643  0.00  0.00    -0.229 NA
ATOM      6  C   UNL     1      35.342 -23.247 -13.665  0.00  0.00    +0.085 C 
ATOM      7  C   UNL     1      34.235 -23.692 -12.993  0.00  0.00    +0.133 C 
ATOM      8  C   UNL     1      36.441 -22.804 -12.965  0.00  0.00    +0.009 C 
ATOM      9  C   UNL     1      36.399 -22.820 -11.575  0.00  0.00    +0.021 C 
ATOM     10  C   UNL     1      35.242 -23.285 -10.968  0.00  0.00    +0.100 C 
ATOM     11  N   UNL     1      33.112 -24.145 -13.730  0.00  0.00    -0.314 N 
ATOM     12  H   UNL     1      33.156 -24.130 -14.714  0.00  0.00    +0.149 HD
BRANCH  11  13
ATOM     13  C   UNL     1      31.923 -24.623 -13.104  0.00  0.00    +0.115 C 
BRANCH  13  15
ATOM     14  N   UNL     1      28.456 -23.190 -15.177  0.00  0.00    -0.242 NA
ATOM     15  C   UNL     1      30.706 -24.119 -13.831  0.00  0.00    +0.000 C 
ATOM     16  C   UNL     1      30.572 -22.766 -14.087  0.00  0.00    +0.018 C 
ATOM     17  C   UNL     1      29.733 -25.016 -14.238  0.00  0.00    +0.018 C 
ATOM     18  C   UNL     1      29.434 -22.354 -14.760  0.00  0.00    +0.099 C 
ATOM     19  C   UNL     1      28.632 -24.502 -14.906  0.00  0.00    +0.099 C 
ENDBRANCH  13  15
ENDBRANCH  11  13
ENDBRANCH   3   6
BRANCH   2  20
ATOM     20  C   UNL     1      34.956 -21.711 -17.107  0.00  0.00    +0.051 C 
ATOM     21  C   UNL     1      36.090 -21.249 -17.776  0.00  0.00    +0.018 C 
ATOM     22  C   UNL     1      33.755 -21.871 -17.798  0.00  0.00    +0.018 C 
ATOM     23  C   UNL     1      34.821 -21.106 -19.827  0.00  0.00    +0.145 C 
ATOM     24  C   UNL     1      36.022 -20.947 -19.136  0.00  0.00    +0.039 C 
ATOM     25  C   UNL     1      33.688 -21.568 -19.159  0.00  0.00    +0.039 C 
BRANCH  23  26
ATOM     26  O   UNL     1      34.755 -20.809 -21.154  0.00  0.00    -0.453 OA
BRANCH  26  27
ATOM     27  C   UNL     1      34.711 -19.472 -21.513  0.00  0.00    +0.145 C 
ATOM     28  C   UNL     1      35.087 -18.513 -20.588  0.00  0.00    +0.037 C 
ATOM     29  C   UNL     1      34.294 -19.130 -22.786  0.00  0.00    +0.037 C 
ATOM     30  C   UNL     1      35.042 -17.167 -20.950  0.00  0.00    +0.003 C 
ATOM     31  C   UNL     1      34.249 -17.783 -23.148  0.00  0.00    +0.003 C 
ATOM     32  C   UNL     1      34.623 -16.802 -22.230  0.00  0.00    +0.000 C 
ENDBRANCH  26  27
ENDBRANCH  23  26
ENDBRANCH   2  20
TORSDOF 6
ENDMDL
MODEL 7
REMARK VINA RESULT:     -11.4      7.407     13.789
REMARK  Name = 16040289
REMARK  6 active torsions:
REMARK  status: ('A' for Active; 'I' for Inactive)
REMARK    1  A    between atoms: N_2  and  C_20
REMARK    2  A    between atoms: C_3  and  C_6
REMARK    3  A    between atoms: N_11  and  C_13
REMARK    4  A    between atoms: C_13  and  C_15
REMARK    5  A    between atoms: C_23  and  O_26
REMARK    6  A    between atoms: O_26  and  C_27
REMARK                            x       y       z     vdW  Elec       q    Type
REMARK                         _______ _______ _______ _____ _____    ______ ____
ROOT
ATOM      1  O   UNL     1      30.973 -12.101 -22.093  0.00  0.00    -0.270 OA
ATOM      2  N   UNL     1      33.011 -12.311 -20.941  0.00  0.00    -0.280 N 
ATOM      3  C   UNL     1      31.811 -11.685 -21.301  0.00  0.00    +0.252 C 
ATOM      4  H   UNL     1      33.568 -11.831 -20.286  0.00  0.00    +0.155 HD
ENDROOT
BRANCH   3   6
ATOM      5  N   UNL     1      31.068  -8.034 -20.845  0.00  0.00    -0.229 NA
ATOM      6  C   UNL     1      31.562 -10.367 -20.661  0.00  0.00    +0.085 C 
ATOM      7  C   UNL     1      31.297  -9.245 -21.401  0.00  0.00    +0.133 C 
ATOM      8  C   UNL     1      31.605 -10.292 -19.287  0.00  0.00    +0.009 C 
ATOM      9  C   UNL     1      31.374  -9.063 -18.678  0.00  0.00    +0.021 C 
ATOM     10  C   UNL     1      31.113  -7.974 -19.495  0.00  0.00    +0.100 C 
ATOM     11  N   UNL     1      31.256  -9.341 -22.814  0.00  0.00    -0.314 N 
ATOM     12  H   UNL     1      31.419 -10.217 -23.233  0.00  0.00    +0.149 HD
BRANCH  11  13
ATOM     13  C   UNL     1      30.986  -8.220 -23.654  0.00  0.00    +0.115 C 
BRANCH  13  15
ATOM     14  N   UNL     1      34.209  -5.401 -23.466  0.00  0.00    -0.242 NA
ATOM     15  C   UNL     1      32.117  -7.230 -23.589  0.00  0.00    +0.000 C 
ATOM     16  C   UNL     1      31.847  -5.875 -23.668  0.00  0.00    +0.018 C 
ATOM     17  C   UNL     1      33.417  -7.685 -23.449  0.00  0.00    +0.018 C 
ATOM     18  C   UNL     1      32.923  -5.005 -23.602  0.00  0.00    +0.099 C 
ATOM     19  C   UNL     1      34.423  -6.733 -23.392  0.00  0.00    +0.099 C 
ENDBRANCH  13  15
ENDBRANCH  11  13
ENDBRANCH   3   6
BRANCH   2  20
ATOM     20  C   UNL     1      33.515 -13.529 -21.396  0.00  0.00    +0.051 C 
ATOM     21  C   UNL     1      33.806 -13.702 -22.749  0.00  0.00    +0.018 C 
ATOM     22  C   UNL     1      33.727 -14.575 -20.497  0.00  0.00    +0.018 C 
ATOM     23  C   UNL     1      34.522 -15.967 -22.306  0.00  0.00    +0.145 C 
ATOM     24  C   UNL     1      34.311 -14.922 -23.204  0.00  0.00    +0.039 C 
ATOM     25  C   UNL     1      34.231 -15.794 -20.953  0.00  0.00    +0.039 C 
BRANCH  23  26
ATOM     26  O   UNL     1      35.012 -17.157 -22.749  0.00  0.00    -0.453 OA
BRANCH  26  27
ATOM     27  C   UNL     1      35.098 -18.197 -21.840  0.00  0.00    +0.145 C 
ATOM     28  C   UNL     1      36.280 -18.389 -21.146  0.00  0.00    +0.037 C 
ATOM     29  C   UNL     1      34.002 -19.018 -21.648  0.00  0.00    +0.037 C 
ATOM     30  C   UNL     1      36.368 -19.438 -20.231  0.00  0.00    +0.003 C 
ATOM     31  C   UNL     1      34.089 -20.067 -20.732  0.00  0.00    +0.003 C 
ATOM     32  C   UNL     1      35.272 -20.276 -20.024  0.00  0.00    +0.000 C 
ENDBRANCH  26  27
ENDBRANCH  23  26
ENDBRANCH   2  20
TORSDOF 6
ENDMDL
MODEL 8
REMARK VINA RESULT:     -10.7      8.844     15.011
REMARK  Name = 16040289
REMARK  6 active torsions:
REMARK  status: ('A' for Active; 'I' for Inactive)
REMARK    1  A    between atoms: N_2  and  C_20
REMARK    2  A    between atoms: C_3  and  C_6
REMARK    3  A    between atoms: N_11  and  C_13
REMARK    4  A    between atoms: C_13  and  C_15
REMARK    5  A    between atoms: C_23  and  O_26
REMARK    6  A    between atoms: O_26  and  C_27
REMARK                            x       y       z     vdW  Elec       q    Type
REMARK                         _______ _______ _______ _____ _____    ______ ____
ROOT
ATOM      1  O   UNL     1      30.213 -10.701 -22.090  0.00  0.00    -0.270 OA
ATOM      2  N   UNL     1      32.563 -10.718 -22.167  0.00  0.00    -0.280 N 
ATOM      3  C   UNL     1      31.303 -10.178 -21.880  0.00  0.00    +0.252 C 
ATOM      4  H   UNL     1      33.336 -10.156 -21.930  0.00  0.00    +0.155 HD
ENDROOT
BRANCH   3   6
ATOM      5  N   UNL     1      31.131  -6.445 -21.530  0.00  0.00    -0.229 NA
ATOM      6  C   UNL     1      31.313  -8.817 -21.283  0.00  0.00    +0.085 C 
ATOM      7  C   UNL     1      31.126  -7.694 -22.046  0.00  0.00    +0.133 C 
ATOM      8  C   UNL     1      31.517  -8.702 -19.927  0.00  0.00    +0.009 C 
ATOM      9  C   UNL     1      31.529  -7.433 -19.359  0.00  0.00    +0.021 C 
ATOM     10  C   UNL     1      31.333  -6.346 -20.196  0.00  0.00    +0.100 C 
ATOM     11  N   UNL     1      30.916  -7.832 -23.441  0.00  0.00    -0.314 N 
ATOM     12  H   UNL     1      30.908  -8.736 -23.831  0.00  0.00    +0.149 HD
BRANCH  11  13
ATOM     13  C   UNL     1      30.715  -6.712 -24.302  0.00  0.00    +0.115 C 
BRANCH  13  15
ATOM     14  N   UNL     1      34.341  -5.741 -26.370  0.00  0.00    -0.242 NA
ATOM     15  C   UNL     1      31.987  -6.372 -25.029  0.00  0.00    +0.000 C 
ATOM     16  C   UNL     1      31.929  -5.895 -26.327  0.00  0.00    +0.018 C 
ATOM     17  C   UNL     1      33.204  -6.538 -24.391  0.00  0.00    +0.018 C 
ATOM     18  C   UNL     1      33.128  -5.595 -26.951  0.00  0.00    +0.099 C 
ATOM     19  C   UNL     1      34.347  -6.209 -25.102  0.00  0.00    +0.099 C 
ENDBRANCH  13  15
ENDBRANCH  11  13
ENDBRANCH   3   6
BRANCH   2  20
ATOM     20  C   UNL     1      32.857 -11.952 -22.746  0.00  0.00    +0.051 C 
ATOM     21  C   UNL     1      33.360 -12.989 -21.960  0.00  0.00    +0.018 C 
ATOM     22  C   UNL     1      32.650 -12.148 -24.111  0.00  0.00    +0.018 C 
ATOM     23  C   UNL     1      33.447 -14.420 -23.905  0.00  0.00    +0.145 C 
ATOM     24  C   UNL     1      33.654 -14.224 -22.541  0.00  0.00    +0.039 C 
ATOM     25  C   UNL     1      32.944 -13.383 -24.691  0.00  0.00    +0.039 C 
BRANCH  23  26
ATOM     26  O   UNL     1      33.736 -15.623 -24.472  0.00  0.00    -0.453 OA
BRANCH  26  27
ATOM     27  C   UNL     1      34.110 -16.658 -23.631  0.00  0.00    +0.145 C 
ATOM     28  C   UNL     1      33.693 -17.945 -23.920  0.00  0.00    +0.037 C 
ATOM     29  C   UNL     1      34.890 -16.378 -22.523  0.00  0.00    +0.037 C 
ATOM     30  C   UNL     1      34.069 -18.987 -23.072  0.00  0.00    +0.003 C 
ATOM     31  C   UNL     1      35.266 -17.420 -21.675  0.00  0.00    +0.003 C 
ATOM     32  C   UNL     1      34.856 -18.724 -21.950  0.00  0.00    +0.000 C 
ENDBRANCH  26  27
ENDBRANCH  23  26
ENDBRANCH   2  20
TORSDOF 6
ENDMDL
MODEL 9
REMARK VINA RESULT:     -10.3      3.431     10.575
REMARK  Name = 16040289
REMARK  6 active torsions:
REMARK  status: ('A' for Active; 'I' for Inactive)
REMARK    1  A    between atoms: N_2  and  C_20
REMARK    2  A    between atoms: C_3  and  C_6
REMARK    3  A    between atoms: N_11  and  C_13
REMARK    4  A    between atoms: C_13  and  C_15
REMARK    5  A    between atoms: C_23  and  O_26
REMARK    6  A    between atoms: O_26  and  C_27
REMARK                            x       y       z     vdW  Elec       q    Type
REMARK                         _______ _______ _______ _____ _____    ______ ____
ROOT
ATOM      1  O   UNL     1      35.032 -17.751 -20.640  0.00  0.00    -0.270 OA
ATOM      2  N   UNL     1      34.220 -19.921 -21.034  0.00  0.00    -0.280 N 
ATOM      3  C   UNL     1      34.488 -18.584 -21.356  0.00  0.00    +0.252 C 
ATOM      4  H   UNL     1      33.773 -20.451 -21.733  0.00  0.00    +0.155 HD
ENDROOT
BRANCH   3   6
ATOM      5  N   UNL     1      33.656 -16.409 -24.299  0.00  0.00    -0.229 NA
ATOM      6  C   UNL     1      34.030 -18.148 -22.701  0.00  0.00    +0.085 C 
ATOM      7  C   UNL     1      34.067 -16.833 -23.083  0.00  0.00    +0.133 C 
ATOM      8  C   UNL     1      33.562 -19.105 -23.571  0.00  0.00    +0.009 C 
ATOM      9  C   UNL     1      33.131 -18.708 -24.833  0.00  0.00    +0.021 C 
ATOM     10  C   UNL     1      33.198 -17.359 -25.144  0.00  0.00    +0.100 C 
ATOM     11  N   UNL     1      34.553 -15.861 -22.173  0.00  0.00    -0.314 N 
ATOM     12  H   UNL     1      34.857 -16.155 -21.284  0.00  0.00    +0.149 HD
BRANCH  11  13
ATOM     13  C   UNL     1      34.622 -14.473 -22.496  0.00  0.00    +0.115 C 
BRANCH  13  15
ATOM     14  N   UNL     1      31.330 -12.359 -20.745  0.00  0.00    -0.242 NA
ATOM     15  C   UNL     1      33.466 -13.732 -21.881  0.00  0.00    +0.000 C 
ATOM     16  C   UNL     1      33.004 -14.099 -20.629  0.00  0.00    +0.018 C 
ATOM     17  C   UNL     1      32.876 -12.688 -22.574  0.00  0.00    +0.018 C 
ATOM     18  C   UNL     1      31.939 -13.385 -20.107  0.00  0.00    +0.099 C 
ATOM     19  C   UNL     1      31.816 -12.036 -21.964  0.00  0.00    +0.099 C 
ENDBRANCH  13  15
ENDBRANCH  11  13
ENDBRANCH   3   6
BRANCH   2  20
ATOM     20  C   UNL     1      34.508 -20.594 -19.847  0.00  0.00    +0.051 C 
ATOM     21  C   UNL     1      35.792 -20.533 -19.305  0.00  0.00    +0.018 C 
ATOM     22  C   UNL     1      33.512 -21.328 -19.202  0.00  0.00    +0.018 C 
ATOM     23  C   UNL     1      35.084 -21.941 -17.472  0.00  0.00    +0.145 C 
ATOM     24  C   UNL     1      36.080 -21.207 -18.117  0.00  0.00    +0.039 C 
ATOM     25  C   UNL     1      33.801 -22.001 -18.014  0.00  0.00    +0.039 C 
BRANCH  23  26
ATOM     26  O   UNL     1      35.366 -22.599 -16.315  0.00  0.00    -0.453 OA
BRANCH  26  27
ATOM     27  C   UNL     1      34.313 -22.875 -15.459  0.00  0.00    +0.145 C 
ATOM     28  C   UNL     1      33.017 -22.787 -15.936  0.00  0.00    +0.037 C 
ATOM     29  C   UNL     1      34.584 -23.231 -14.150  0.00  0.00    +0.037 C 
ATOM     30  C   UNL     1      31.956 -23.065 -15.073  0.00  0.00    +0.003 C 
ATOM     31  C   UNL     1      33.523 -23.509 -13.288  0.00  0.00    +0.003 C 
ATOM     32  C   UNL     1      32.209 -23.426 -13.750  0.00  0.00    +0.000 C 
ENDBRANCH  26  27
ENDBRANCH  23  26
ENDBRANCH   2  20
TORSDOF 6
ENDMDL
