MODEL 1
REMARK VINA RESULT:     -10.7      0.000      0.000
REMARK  Name = 71354
REMARK  7 active torsions:
REMARK  status: ('A' for Active; 'I' for Inactive)
REMARK    1  A    between atoms: N_1  and  C_19
REMARK    2  A    between atoms: C_5  and  C_10
REMARK    3  A    between atoms: C_10  and  O_11
REMARK    4  A    between atoms: O_11  and  C_12
REMARK    5  A    between atoms: C_12  and  C_16
REMARK    6  A    between atoms: C_16  and  O_17
REMARK    7  A    between atoms: C_19  and  C_20
REMARK                            x       y       z     vdW  Elec       q    Type
REMARK                         _______ _______ _______ _____ _____    ______ ____
ROOT
ATOM      1  N   UNL     1      33.254 -23.024 -17.028  0.00  0.00    -0.247 N 
ATOM      2  N   UNL     1      34.456 -23.125 -16.438  0.00  0.00    -0.171 NA
ATOM      3  C   UNL     1      32.797 -22.799 -14.895  0.00  0.00    +0.035 A 
ATOM      4  C   UNL     1      32.216 -22.828 -16.157  0.00  0.00    +0.079 A 
ATOM      5  C   UNL     1      34.175 -22.988 -15.140  0.00  0.00    +0.110 A 
ATOM      6  C   UNL     1      31.983 -22.610 -13.767  0.00  0.00    +0.003 C 
ATOM      7  C   UNL     1      30.843 -22.675 -16.368  0.00  0.00    +0.019 C 
ATOM      8  C   UNL     1      30.604 -22.455 -13.955  0.00  0.00    +0.000 C 
ATOM      9  C   UNL     1      30.046 -22.487 -15.234  0.00  0.00    +0.002 C 
ENDROOT
BRANCH   5  10
ATOM     10  C   UNL     1      35.266 -23.045 -14.152  0.00  0.00    +0.190 C 
BRANCH  10  11
ATOM     11  O   UNL     1      35.461 -24.361 -13.624  0.00  0.00    -0.341 OA
BRANCH  11  12
ATOM     12  C   UNL     1      36.800 -24.791 -13.800  0.00  0.00    +0.182 C 
ATOM     13  C   UNL     1      37.386 -25.088 -12.422  0.00  0.00    +0.041 C 
ATOM     14  C   UNL     1      37.559 -23.685 -14.527  0.00  0.00    +0.041 C 
BRANCH  12  16
ATOM     15  O   UNL     1      35.826 -26.288 -15.455  0.00  0.00    -0.248 OA
ATOM     16  C   UNL     1      36.718 -26.053 -14.647  0.00  0.00    +0.338 C 
BRANCH  16  17
ATOM     17  O   UNL     1      37.742 -26.916 -14.428  0.00  0.00    -0.479 OA
ATOM     18  H   UNL     1      38.579 -26.592 -14.160  0.00  0.00    +0.295 HD
ENDBRANCH  16  17
ENDBRANCH  12  16
ENDBRANCH  11  12
ENDBRANCH  10  11
ENDBRANCH   5  10
BRANCH   1  19
ATOM     19  C   UNL     1      33.165 -23.131 -18.466  0.00  0.00    +0.154 C 
BRANCH  19  20
ATOM     20  C   UNL     1      33.637 -21.871 -19.141  0.00  0.00    +0.002 C 
ATOM     21  C   UNL     1      34.998 -21.598 -19.203  0.00  0.00    -0.002 C 
ATOM     22  C   UNL     1      32.708 -21.000 -19.691  0.00  0.00    -0.002 C 
ATOM     23  C   UNL     1      35.436 -20.430 -19.828  0.00  0.00    -0.000 C 
ATOM     24  C   UNL     1      33.147 -19.832 -20.315  0.00  0.00    -0.000 C 
ATOM     25  C   UNL     1      34.510 -19.547 -20.384  0.00  0.00    -0.000 C 
ENDBRANCH  19  20
ENDBRANCH   1  19
TORSDOF 7
ENDMDL
MODEL 2
REMARK VINA RESULT:     -10.4      1.226      4.781
REMARK  Name = 71354
REMARK  7 active torsions:
REMARK  status: ('A' for Active; 'I' for Inactive)
REMARK    1  A    between atoms: N_1  and  C_19
REMARK    2  A    between atoms: C_5  and  C_10
REMARK    3  A    between atoms: C_10  and  O_11
REMARK    4  A    between atoms: O_11  and  C_12
REMARK    5  A    between atoms: C_12  and  C_16
REMARK    6  A    between atoms: C_16  and  O_17
REMARK    7  A    between atoms: C_19  and  C_20
REMARK                            x       y       z     vdW  Elec       q    Type
REMARK                         _______ _______ _______ _____ _____    ______ ____
ROOT
ATOM      1  N   UNL     1      32.424 -22.402 -16.877  0.00  0.00    -0.247 N 
ATOM      2  N   UNL     1      33.236 -22.935 -15.950  0.00  0.00    -0.171 NA
ATOM      3  C   UNL     1      34.432 -21.937 -17.627  0.00  0.00    +0.035 A 
ATOM      4  C   UNL     1      33.080 -21.788 -17.911  0.00  0.00    +0.079 A 
ATOM      5  C   UNL     1      34.457 -22.650 -16.409  0.00  0.00    +0.110 A 
ATOM      6  C   UNL     1      35.385 -21.406 -18.512  0.00  0.00    +0.003 C 
ATOM      7  C   UNL     1      32.608 -21.129 -19.049  0.00  0.00    +0.019 C 
ATOM      8  C   UNL     1      34.934 -20.740 -19.659  0.00  0.00    +0.000 C 
ATOM      9  C   UNL     1      33.569 -20.606 -19.921  0.00  0.00    +0.002 C 
ENDROOT
BRANCH   5  10
ATOM     10  C   UNL     1      35.639 -23.082 -15.641  0.00  0.00    +0.190 C 
BRANCH  10  11
ATOM     11  O   UNL     1      35.575 -24.462 -15.266  0.00  0.00    -0.341 OA
BRANCH  11  12
ATOM     12  C   UNL     1      36.645 -24.808 -14.403  0.00  0.00    +0.182 C 
ATOM     13  C   UNL     1      36.129 -24.756 -12.967  0.00  0.00    +0.041 C 
ATOM     14  C   UNL     1      37.784 -23.823 -14.646  0.00  0.00    +0.041 C 
BRANCH  12  16
ATOM     15  O   UNL     1      37.927 -26.871 -14.242  0.00  0.00    -0.248 OA
ATOM     16  C   UNL     1      37.045 -26.223 -14.794  0.00  0.00    +0.338 C 
BRANCH  16  17
ATOM     17  O   UNL     1      36.325 -26.720 -15.832  0.00  0.00    -0.479 OA
ATOM     18  H   UNL     1      35.804 -26.145 -16.358  0.00  0.00    +0.295 HD
ENDBRANCH  16  17
ENDBRANCH  12  16
ENDBRANCH  11  12
ENDBRANCH  10  11
ENDBRANCH   5  10
BRANCH   1  19
ATOM     19  C   UNL     1      30.994 -22.514 -16.710  0.00  0.00    +0.154 C 
BRANCH  19  20
ATOM     20  C   UNL     1      30.643 -23.117 -15.376  0.00  0.00    +0.002 C 
ATOM     21  C   UNL     1      30.013 -24.354 -15.329  0.00  0.00    -0.002 C 
ATOM     22  C   UNL     1      30.952 -22.429 -14.212  0.00  0.00    -0.002 C 
ATOM     23  C   UNL     1      29.687 -24.913 -14.093  0.00  0.00    -0.000 C 
ATOM     24  C   UNL     1      30.626 -22.987 -12.976  0.00  0.00    -0.000 C 
ATOM     25  C   UNL     1      29.994 -24.229 -12.916  0.00  0.00    -0.000 C 
ENDBRANCH  19  20
ENDBRANCH   1  19
TORSDOF 7
ENDMDL
MODEL 3
REMARK VINA RESULT:     -10.3      0.897      1.797
REMARK  Name = 71354
REMARK  7 active torsions:
REMARK  status: ('A' for Active; 'I' for Inactive)
REMARK    1  A    between atoms: N_1  and  C_19
REMARK    2  A    between atoms: C_5  and  C_10
REMARK    3  A    between atoms: C_10  and  O_11
REMARK    4  A    between atoms: O_11  and  C_12
REMARK    5  A    between atoms: C_12  and  C_16
REMARK    6  A    between atoms: C_16  and  O_17
REMARK    7  A    between atoms: C_19  and  C_20
REMARK                            x       y       z     vdW  Elec       q    Type
REMARK                         _______ _______ _______ _____ _____    ______ ____
ROOT
ATOM      1  N   UNL     1      33.188 -23.060 -17.029  0.00  0.00    -0.247 N 
ATOM      2  N   UNL     1      34.350 -23.166 -16.365  0.00  0.00    -0.171 NA
ATOM      3  C   UNL     1      32.607 -22.783 -14.932  0.00  0.00    +0.035 A 
ATOM      4  C   UNL     1      32.102 -22.830 -16.226  0.00  0.00    +0.079 A 
ATOM      5  C   UNL     1      33.993 -22.997 -15.089  0.00  0.00    +0.110 A 
ATOM      6  C   UNL     1      31.729 -22.559 -13.859  0.00  0.00    +0.003 C 
ATOM      7  C   UNL     1      30.747 -22.662 -16.523  0.00  0.00    +0.019 C 
ATOM      8  C   UNL     1      30.366 -22.389 -14.133  0.00  0.00    +0.000 C 
ATOM      9  C   UNL     1      29.886 -22.439 -15.444  0.00  0.00    +0.002 C 
ENDROOT
BRANCH   5  10
ATOM     10  C   UNL     1      35.022 -23.050 -14.036  0.00  0.00    +0.190 C 
BRANCH  10  11
ATOM     11  O   UNL     1      35.194 -24.366 -13.501  0.00  0.00    -0.341 OA
BRANCH  11  12
ATOM     12  C   UNL     1      36.550 -24.774 -13.570  0.00  0.00    +0.182 C 
ATOM     13  C   UNL     1      37.344 -23.662 -14.250  0.00  0.00    +0.041 C 
ATOM     14  C   UNL     1      36.607 -26.086 -14.347  0.00  0.00    +0.041 C 
BRANCH  12  16
ATOM     15  O   UNL     1      37.693 -24.176 -11.506  0.00  0.00    -0.248 OA
ATOM     16  C   UNL     1      36.994 -24.967 -12.127  0.00  0.00    +0.338 C 
BRANCH  16  17
ATOM     17  O   UNL     1      36.538 -26.119 -11.573  0.00  0.00    -0.479 OA
ATOM     18  H   UNL     1      37.101 -26.867 -11.516  0.00  0.00    +0.295 HD
ENDBRANCH  16  17
ENDBRANCH  12  16
ENDBRANCH  11  12
ENDBRANCH  10  11
ENDBRANCH   5  10
BRANCH   1  19
ATOM     19  C   UNL     1      33.183 -23.196 -18.467  0.00  0.00    +0.154 C 
BRANCH  19  20
ATOM     20  C   UNL     1      33.624 -21.924 -19.140  0.00  0.00    +0.002 C 
ATOM     21  C   UNL     1      32.669 -21.051 -19.646  0.00  0.00    -0.002 C 
ATOM     22  C   UNL     1      34.978 -21.639 -19.247  0.00  0.00    -0.002 C 
ATOM     23  C   UNL     1      33.077 -19.872 -20.269  0.00  0.00    -0.000 C 
ATOM     24  C   UNL     1      35.386 -20.461 -19.871  0.00  0.00    -0.000 C 
ATOM     25  C   UNL     1      34.436 -19.576 -20.382  0.00  0.00    -0.000 C 
ENDBRANCH  19  20
ENDBRANCH   1  19
TORSDOF 7
ENDMDL
MODEL 4
REMARK VINA RESULT:     -10.0      6.822     10.578
REMARK  Name = 71354
REMARK  7 active torsions:
REMARK  status: ('A' for Active; 'I' for Inactive)
REMARK    1  A    between atoms: N_1  and  C_19
REMARK    2  A    between atoms: C_5  and  C_10
REMARK    3  A    between atoms: C_10  and  O_11
REMARK    4  A    between atoms: O_11  and  C_12
REMARK    5  A    between atoms: C_12  and  C_16
REMARK    6  A    between atoms: C_16  and  O_17
REMARK    7  A    between atoms: C_19  and  C_20
REMARK                            x       y       z     vdW  Elec       q    Type
REMARK                         _______ _______ _______ _____ _____    ______ ____
ROOT
ATOM      1  N   UNL     1      35.202 -18.267 -21.238  0.00  0.00    -0.247 N 
ATOM      2  N   UNL     1      35.124 -17.086 -20.604  0.00  0.00    -0.171 NA
ATOM      3  C   UNL     1      34.143 -16.986 -22.669  0.00  0.00    +0.035 A 
ATOM      4  C   UNL     1      34.631 -18.274 -22.483  0.00  0.00    +0.079 A 
ATOM      5  C   UNL     1      34.479 -16.308 -21.477  0.00  0.00    +0.110 A 
ATOM      6  C   UNL     1      33.489 -16.664 -23.869  0.00  0.00    +0.003 C 
ATOM      7  C   UNL     1      34.506 -19.282 -23.441  0.00  0.00    +0.019 C 
ATOM      8  C   UNL     1      33.352 -17.661 -24.844  0.00  0.00    +0.000 C 
ATOM      9  C   UNL     1      33.854 -18.946 -24.632  0.00  0.00    +0.002 C 
ENDROOT
BRANCH   5  10
ATOM     10  C   UNL     1      34.198 -14.905 -21.128  0.00  0.00    +0.190 C 
BRANCH  10  11
ATOM     11  O   UNL     1      33.019 -14.405 -21.766  0.00  0.00    -0.341 OA
BRANCH  11  12
ATOM     12  C   UNL     1      32.946 -12.992 -21.674  0.00  0.00    +0.182 C 
ATOM     13  C   UNL     1      34.183 -12.503 -20.926  0.00  0.00    +0.041 C 
ATOM     14  C   UNL     1      31.651 -12.634 -20.952  0.00  0.00    +0.041 C 
BRANCH  12  16
ATOM     15  O   UNL     1      33.426 -11.427 -23.476  0.00  0.00    -0.248 OA
ATOM     16  C   UNL     1      32.934 -12.488 -23.111  0.00  0.00    +0.338 C 
BRANCH  16  17
ATOM     17  O   UNL     1      32.319 -13.335 -23.974  0.00  0.00    -0.479 OA
ATOM     18  H   UNL     1      32.789 -13.681 -24.707  0.00  0.00    +0.295 HD
ENDBRANCH  16  17
ENDBRANCH  12  16
ENDBRANCH  11  12
ENDBRANCH  10  11
ENDBRANCH   5  10
BRANCH   1  19
ATOM     19  C   UNL     1      35.848 -19.379 -20.579  0.00  0.00    +0.154 C 
BRANCH  19  20
ATOM     20  C   UNL     1      34.852 -20.241 -19.852  0.00  0.00    +0.002 C 
ATOM     21  C   UNL     1      35.300 -21.160 -18.912  0.00  0.00    -0.002 C 
ATOM     22  C   UNL     1      33.499 -20.107 -20.131  0.00  0.00    -0.002 C 
ATOM     23  C   UNL     1      34.377 -21.959 -18.238  0.00  0.00    -0.000 C 
ATOM     24  C   UNL     1      32.576 -20.906 -19.457  0.00  0.00    -0.000 C 
ATOM     25  C   UNL     1      33.014 -21.832 -18.510  0.00  0.00    -0.000 C 
ENDBRANCH  19  20
ENDBRANCH   1  19
TORSDOF 7
ENDMDL
MODEL 5
REMARK VINA RESULT:      -9.8      1.764      5.014
REMARK  Name = 71354
REMARK  7 active torsions:
REMARK  status: ('A' for Active; 'I' for Inactive)
REMARK    1  A    between atoms: N_1  and  C_19
REMARK    2  A    between atoms: C_5  and  C_10
REMARK    3  A    between atoms: C_10  and  O_11
REMARK    4  A    between atoms: O_11  and  C_12
REMARK    5  A    between atoms: C_12  and  C_16
REMARK    6  A    between atoms: C_16  and  O_17
REMARK    7  A    between atoms: C_19  and  C_20
REMARK                            x       y       z     vdW  Elec       q    Type
REMARK                         _______ _______ _______ _____ _____    ______ ____
ROOT
ATOM      1  N   UNL     1      32.935 -22.606 -16.634  0.00  0.00    -0.247 N 
ATOM      2  N   UNL     1      33.627 -22.988 -15.549  0.00  0.00    -0.171 NA
ATOM      3  C   UNL     1      34.993 -22.012 -17.105  0.00  0.00    +0.035 A 
ATOM      4  C   UNL     1      33.697 -22.013 -17.606  0.00  0.00    +0.079 A 
ATOM      5  C   UNL     1      34.879 -22.625 -15.839  0.00  0.00    +0.110 A 
ATOM      6  C   UNL     1      36.029 -21.462 -17.877  0.00  0.00    +0.003 C 
ATOM      7  C   UNL     1      33.362 -21.489 -18.857  0.00  0.00    +0.019 C 
ATOM      8  C   UNL     1      35.716 -20.930 -19.135  0.00  0.00    +0.000 C 
ATOM      9  C   UNL     1      34.405 -20.945 -19.614  0.00  0.00    +0.002 C 
ENDROOT
BRANCH   5  10
ATOM     10  C   UNL     1      35.953 -22.885 -14.863  0.00  0.00    +0.190 C 
BRANCH  10  11
ATOM     11  O   UNL     1      35.528 -22.682 -13.512  0.00  0.00    -0.341 OA
BRANCH  11  12
ATOM     12  C   UNL     1      36.043 -23.687 -12.655  0.00  0.00    +0.182 C 
ATOM     13  C   UNL     1      37.090 -23.044 -11.750  0.00  0.00    +0.041 C 
ATOM     14  C   UNL     1      36.631 -24.793 -13.527  0.00  0.00    +0.041 C 
BRANCH  12  16
ATOM     15  O   UNL     1      34.904 -24.521 -10.672  0.00  0.00    -0.248 OA
ATOM     16  C   UNL     1      34.853 -24.191 -11.851  0.00  0.00    +0.338 C 
BRANCH  16  17
ATOM     17  O   UNL     1      33.702 -24.244 -12.569  0.00  0.00    -0.479 OA
ATOM     18  H   UNL     1      33.454 -23.521 -13.111  0.00  0.00    +0.295 HD
ENDBRANCH  16  17
ENDBRANCH  12  16
ENDBRANCH  11  12
ENDBRANCH  10  11
ENDBRANCH   5  10
BRANCH   1  19
ATOM     19  C   UNL     1      31.510 -22.839 -16.679  0.00  0.00    +0.154 C 
BRANCH  19  20
ATOM     20  C   UNL     1      30.981 -23.263 -15.336  0.00  0.00    +0.002 C 
ATOM     21  C   UNL     1      31.080 -22.396 -14.256  0.00  0.00    -0.002 C 
ATOM     22  C   UNL     1      30.401 -24.516 -15.194  0.00  0.00    -0.002 C 
ATOM     23  C   UNL     1      30.590 -22.789 -13.010  0.00  0.00    -0.000 C 
ATOM     24  C   UNL     1      29.911 -24.910 -13.948  0.00  0.00    -0.000 C 
ATOM     25  C   UNL     1      30.005 -24.047 -12.856  0.00  0.00    -0.000 C 
ENDBRANCH  19  20
ENDBRANCH   1  19
TORSDOF 7
ENDMDL
MODEL 6
REMARK VINA RESULT:      -9.7      3.131      5.485
REMARK  Name = 71354
REMARK  7 active torsions:
REMARK  status: ('A' for Active; 'I' for Inactive)
REMARK    1  A    between atoms: N_1  and  C_19
REMARK    2  A    between atoms: C_5  and  C_10
REMARK    3  A    between atoms: C_10  and  O_11
REMARK    4  A    between atoms: O_11  and  C_12
REMARK    5  A    between atoms: C_12  and  C_16
REMARK    6  A    between atoms: C_16  and  O_17
REMARK    7  A    between atoms: C_19  and  C_20
REMARK                            x       y       z     vdW  Elec       q    Type
REMARK                         _______ _______ _______ _____ _____    ______ ____
ROOT
ATOM      1  N   UNL     1      34.022 -22.236 -18.353  0.00  0.00    -0.247 N 
ATOM      2  N   UNL     1      32.781 -22.529 -17.933  0.00  0.00    -0.171 NA
ATOM      3  C   UNL     1      34.219 -22.282 -16.169  0.00  0.00    +0.035 A 
ATOM      4  C   UNL     1      34.933 -22.075 -17.343  0.00  0.00    +0.079 A 
ATOM      5  C   UNL     1      32.904 -22.556 -16.603  0.00  0.00    +0.110 A 
ATOM      6  C   UNL     1      34.881 -22.185 -14.935  0.00  0.00    +0.003 C 
ATOM      7  C   UNL     1      36.297 -21.772 -17.363  0.00  0.00    +0.019 C 
ATOM      8  C   UNL     1      36.249 -21.881 -14.931  0.00  0.00    +0.000 C 
ATOM      9  C   UNL     1      36.942 -21.680 -16.126  0.00  0.00    +0.002 C 
ENDROOT
BRANCH   5  10
ATOM     10  C   UNL     1      31.724 -22.851 -15.772  0.00  0.00    +0.190 C 
BRANCH  10  11
ATOM     11  O   UNL     1      30.515 -22.907 -16.536  0.00  0.00    -0.341 OA
BRANCH  11  12
ATOM     12  C   UNL     1      29.394 -23.158 -15.705  0.00  0.00    +0.182 C 
ATOM     13  C   UNL     1      29.541 -22.310 -14.444  0.00  0.00    +0.041 C 
ATOM     14  C   UNL     1      29.361 -24.652 -15.398  0.00  0.00    +0.041 C 
BRANCH  12  16
ATOM     15  O   UNL     1      27.870 -21.569 -16.744  0.00  0.00    -0.248 OA
ATOM     16  C   UNL     1      28.178 -22.733 -16.516  0.00  0.00    +0.338 C 
BRANCH  16  17
ATOM     17  O   UNL     1      27.447 -23.779 -16.977  0.00  0.00    -0.479 OA
ATOM     18  H   UNL     1      26.584 -23.931 -16.644  0.00  0.00    +0.295 HD
ENDBRANCH  16  17
ENDBRANCH  12  16
ENDBRANCH  11  12
ENDBRANCH  10  11
ENDBRANCH   5  10
BRANCH   1  19
ATOM     19  C   UNL     1      34.276 -22.118 -19.771  0.00  0.00    +0.154 C 
BRANCH  19  20
ATOM     20  C   UNL     1      34.606 -20.700 -20.153  0.00  0.00    +0.002 C 
ATOM     21  C   UNL     1      35.922 -20.262 -20.086  0.00  0.00    -0.002 C 
ATOM     22  C   UNL     1      33.590 -19.849 -20.566  0.00  0.00    -0.002 C 
ATOM     23  C   UNL     1      36.228 -18.948 -20.440  0.00  0.00    -0.000 C 
ATOM     24  C   UNL     1      33.896 -18.535 -20.920  0.00  0.00    -0.000 C 
ATOM     25  C   UNL     1      35.215 -18.084 -20.857  0.00  0.00    -0.000 C 
ENDBRANCH  19  20
ENDBRANCH   1  19
TORSDOF 7
ENDMDL
MODEL 7
REMARK VINA RESULT:      -9.5      2.548      4.631
REMARK  Name = 71354
REMARK  7 active torsions:
REMARK  status: ('A' for Active; 'I' for Inactive)
REMARK    1  A    between atoms: N_1  and  C_19
REMARK    2  A    between atoms: C_5  and  C_10
REMARK    3  A    between atoms: C_10  and  O_11
REMARK    4  A    between atoms: O_11  and  C_12
REMARK    5  A    between atoms: C_12  and  C_16
REMARK    6  A    between atoms: C_16  and  O_17
REMARK    7  A    between atoms: C_19  and  C_20
REMARK                            x       y       z     vdW  Elec       q    Type
REMARK                         _______ _______ _______ _____ _____    ______ ____
ROOT
ATOM      1  N   UNL     1      34.157 -22.148 -18.527  0.00  0.00    -0.247 N 
ATOM      2  N   UNL     1      32.854 -22.386 -18.307  0.00  0.00    -0.171 NA
ATOM      3  C   UNL     1      34.019 -22.256 -16.341  0.00  0.00    +0.035 A 
ATOM      4  C   UNL     1      34.912 -22.059 -17.388  0.00  0.00    +0.079 A 
ATOM      5  C   UNL     1      32.773 -22.451 -16.976  0.00  0.00    +0.110 A 
ATOM      6  C   UNL     1      34.490 -22.224 -15.019  0.00  0.00    +0.003 C 
ATOM      7  C   UNL     1      36.276 -21.827 -17.193  0.00  0.00    +0.019 C 
ATOM      8  C   UNL     1      35.854 -21.992 -14.800  0.00  0.00    +0.000 C 
ATOM      9  C   UNL     1      36.730 -21.798 -15.870  0.00  0.00    +0.002 C 
ENDROOT
BRANCH   5  10
ATOM     10  C   UNL     1      31.467 -22.703 -16.341  0.00  0.00    +0.190 C 
BRANCH  10  11
ATOM     11  O   UNL     1      31.484 -23.852 -15.489  0.00  0.00    -0.341 OA
BRANCH  11  12
ATOM     12  C   UNL     1      30.405 -23.825 -14.570  0.00  0.00    +0.182 C 
ATOM     13  C   UNL     1      29.359 -24.833 -15.040  0.00  0.00    +0.041 C 
ATOM     14  C   UNL     1      29.860 -22.401 -14.526  0.00  0.00    +0.041 C 
BRANCH  12  16
ATOM     15  O   UNL     1      32.193 -24.191 -12.959  0.00  0.00    -0.248 OA
ATOM     16  C   UNL     1      30.998 -24.231 -13.228  0.00  0.00    +0.338 C 
BRANCH  16  17
ATOM     17  O   UNL     1      30.068 -24.651 -12.334  0.00  0.00    -0.479 OA
ATOM     18  H   UNL     1      29.263 -24.181 -12.238  0.00  0.00    +0.295 HD
ENDBRANCH  16  17
ENDBRANCH  12  16
ENDBRANCH  11  12
ENDBRANCH  10  11
ENDBRANCH   5  10
BRANCH   1  19
ATOM     19  C   UNL     1      34.628 -22.009 -19.886  0.00  0.00    +0.154 C 
BRANCH  19  20
ATOM     20  C   UNL     1      34.823 -20.563 -20.255  0.00  0.00    +0.002 C 
ATOM     21  C   UNL     1      36.095 -20.009 -20.203  0.00  0.00    -0.002 C 
ATOM     22  C   UNL     1      33.728 -19.802 -20.641  0.00  0.00    -0.002 C 
ATOM     23  C   UNL     1      36.276 -18.668 -20.544  0.00  0.00    -0.000 C 
ATOM     24  C   UNL     1      33.909 -18.462 -20.982  0.00  0.00    -0.000 C 
ATOM     25  C   UNL     1      35.182 -17.895 -20.934  0.00  0.00    -0.000 C 
ENDBRANCH  19  20
ENDBRANCH   1  19
TORSDOF 7
ENDMDL
MODEL 8
REMARK VINA RESULT:      -9.2      2.227      5.164
REMARK  Name = 71354
REMARK  7 active torsions:
REMARK  status: ('A' for Active; 'I' for Inactive)
REMARK    1  A    between atoms: N_1  and  C_19
REMARK    2  A    between atoms: C_5  and  C_10
REMARK    3  A    between atoms: C_10  and  O_11
REMARK    4  A    between atoms: O_11  and  C_12
REMARK    5  A    between atoms: C_12  and  C_16
REMARK    6  A    between atoms: C_16  and  O_17
REMARK    7  A    between atoms: C_19  and  C_20
REMARK                            x       y       z     vdW  Elec       q    Type
REMARK                         _______ _______ _______ _____ _____    ______ ____
ROOT
ATOM      1  N   UNL     1      36.190 -22.669 -15.368  0.00  0.00    -0.247 N 
ATOM      2  N   UNL     1      34.899 -22.573 -15.015  0.00  0.00    -0.171 NA
ATOM      3  C   UNL     1      35.999 -24.114 -13.730  0.00  0.00    +0.035 A 
ATOM      4  C   UNL     1      36.907 -23.577 -14.634  0.00  0.00    +0.079 A 
ATOM      5  C   UNL     1      34.785 -23.454 -14.018  0.00  0.00    +0.110 A 
ATOM      6  C   UNL     1      36.432 -25.092 -12.819  0.00  0.00    +0.003 C 
ATOM      7  C   UNL     1      38.248 -23.963 -14.689  0.00  0.00    +0.019 C 
ATOM      8  C   UNL     1      37.773 -25.494 -12.856  0.00  0.00    +0.000 C 
ATOM      9  C   UNL     1      38.664 -24.938 -13.777  0.00  0.00    +0.002 C 
ENDROOT
BRANCH   5  10
ATOM     10  C   UNL     1      33.481 -23.636 -13.356  0.00  0.00    +0.190 C 
BRANCH  10  11
ATOM     11  O   UNL     1      32.495 -24.192 -14.231  0.00  0.00    -0.341 OA
BRANCH  11  12
ATOM     12  C   UNL     1      31.237 -23.563 -14.051  0.00  0.00    +0.182 C 
ATOM     13  C   UNL     1      30.816 -22.956 -15.386  0.00  0.00    +0.041 C 
ATOM     14  C   UNL     1      31.389 -22.511 -12.957  0.00  0.00    +0.041 C 
BRANCH  12  16
ATOM     15  O   UNL     1      29.837 -25.529 -14.375  0.00  0.00    -0.248 OA
ATOM     16  C   UNL     1      30.283 -24.670 -13.623  0.00  0.00    +0.338 C 
BRANCH  16  17
ATOM     17  O   UNL     1      29.961 -24.624 -12.306  0.00  0.00    -0.479 OA
ATOM     18  H   UNL     1      29.109 -24.337 -12.041  0.00  0.00    +0.295 HD
ENDBRANCH  16  17
ENDBRANCH  12  16
ENDBRANCH  11  12
ENDBRANCH  10  11
ENDBRANCH   5  10
BRANCH   1  19
ATOM     19  C   UNL     1      36.691 -21.840 -16.440  0.00  0.00    +0.154 C 
BRANCH  19  20
ATOM     20  C   UNL     1      35.656 -21.650 -17.516  0.00  0.00    +0.002 C 
ATOM     21  C   UNL     1      34.397 -22.215 -17.362  0.00  0.00    -0.002 C 
ATOM     22  C   UNL     1      35.974 -20.915 -18.649  0.00  0.00    -0.002 C 
ATOM     23  C   UNL     1      33.438 -22.040 -18.359  0.00  0.00    -0.000 C 
ATOM     24  C   UNL     1      35.015 -20.740 -19.647  0.00  0.00    -0.000 C 
ATOM     25  C   UNL     1      33.747 -21.302 -19.502  0.00  0.00    -0.000 C 
ENDBRANCH  19  20
ENDBRANCH   1  19
TORSDOF 7
ENDMDL
MODEL 9
REMARK VINA RESULT:      -9.0      4.031      7.490
REMARK  Name = 71354
REMARK  7 active torsions:
REMARK  status: ('A' for Active; 'I' for Inactive)
REMARK    1  A    between atoms: N_1  and  C_19
REMARK    2  A    between atoms: C_5  and  C_10
REMARK    3  A    between atoms: C_10  and  O_11
REMARK    4  A    between atoms: O_11  and  C_12
REMARK    5  A    between atoms: C_12  and  C_16
REMARK    6  A    between atoms: C_16  and  O_17
REMARK    7  A    between atoms: C_19  and  C_20
REMARK                            x       y       z     vdW  Elec       q    Type
REMARK                         _______ _______ _______ _____ _____    ______ ____
ROOT
ATOM      1  N   UNL     1      36.184 -21.279 -16.903  0.00  0.00    -0.247 N 
ATOM      2  N   UNL     1      36.455 -20.707 -18.086  0.00  0.00    -0.171 NA
ATOM      3  C   UNL     1      34.401 -21.717 -18.104  0.00  0.00    +0.035 A 
ATOM      4  C   UNL     1      34.965 -21.903 -16.847  0.00  0.00    +0.079 A 
ATOM      5  C   UNL     1      35.368 -20.974 -18.815  0.00  0.00    +0.110 A 
ATOM      6  C   UNL     1      33.129 -22.247 -18.372  0.00  0.00    +0.003 C 
ATOM      7  C   UNL     1      34.326 -22.601 -15.820  0.00  0.00    +0.019 C 
ATOM      8  C   UNL     1      32.469 -22.950 -17.356  0.00  0.00    +0.000 C 
ATOM      9  C   UNL     1      33.059 -23.123 -16.103  0.00  0.00    +0.002 C 
ENDROOT
BRANCH   5  10
ATOM     10  C   UNL     1      35.293 -20.494 -20.206  0.00  0.00    +0.190 C 
BRANCH  10  11
ATOM     11  O   UNL     1      34.754 -19.172 -20.302  0.00  0.00    -0.341 OA
BRANCH  11  12
ATOM     12  C   UNL     1      35.228 -18.508 -21.461  0.00  0.00    +0.182 C 
ATOM     13  C   UNL     1      34.588 -19.167 -22.679  0.00  0.00    +0.041 C 
ATOM     14  C   UNL     1      36.750 -18.616 -21.476  0.00  0.00    +0.041 C 
BRANCH  12  16
ATOM     15  O   UNL     1      34.730 -16.453 -20.254  0.00  0.00    -0.248 OA
ATOM     16  C   UNL     1      34.779 -17.061 -21.317  0.00  0.00    +0.338 C 
BRANCH  16  17
ATOM     17  O   UNL     1      34.429 -16.486 -22.496  0.00  0.00    -0.479 OA
ATOM     18  H   UNL     1      33.854 -15.746 -22.504  0.00  0.00    +0.295 HD
ENDBRANCH  16  17
ENDBRANCH  12  16
ENDBRANCH  11  12
ENDBRANCH  10  11
ENDBRANCH   5  10
BRANCH   1  19
ATOM     19  C   UNL     1      37.155 -21.189 -15.837  0.00  0.00    +0.154 C 
BRANCH  19  20
ATOM     20  C   UNL     1      37.136 -22.420 -14.971  0.00  0.00    +0.002 C 
ATOM     21  C   UNL     1      37.783 -23.570 -15.401  0.00  0.00    -0.002 C 
ATOM     22  C   UNL     1      36.470 -22.389 -13.753  0.00  0.00    -0.002 C 
ATOM     23  C   UNL     1      37.765 -24.711 -14.599  0.00  0.00    -0.000 C 
ATOM     24  C   UNL     1      36.452 -23.529 -12.951  0.00  0.00    -0.000 C 
ATOM     25  C   UNL     1      37.099 -24.691 -13.373  0.00  0.00    -0.000 C 
ENDBRANCH  19  20
ENDBRANCH   1  19
TORSDOF 7
ENDMDL
