MODEL 1
REMARK VINA RESULT:     -12.7      0.000      0.000
REMARK  Name = 447622
REMARK  7 active torsions:
REMARK  status: ('A' for Active; 'I' for Inactive)
REMARK    1  A    between atoms: N_2  and  C_13
REMARK    2  A    between atoms: C_5  and  C_28
REMARK    3  A    between atoms: C_10  and  C_16
REMARK    4  A    between atoms: C_16  and  C_17
REMARK    5  A    between atoms: C_17  and  N_19
REMARK    6  A    between atoms: C_25  and  C_31
REMARK    7  A    between atoms: C_31  and  N_34
REMARK                            x       y       z     vdW  Elec       q    Type
REMARK                         _______ _______ _______ _____ _____    ______ ____
ROOT
ATOM      1 CL   UNL     1      31.915 -24.775 -13.137  0.00  0.00    -0.078 Cl
ATOM      2  N   UNL     1      31.544 -21.649 -18.023  0.00  0.00    -0.247 N 
ATOM      3  N   UNL     1      32.892 -22.677 -16.401  0.00  0.00    -0.337 NA
ATOM      4  N   UNL     1      30.489 -22.785 -16.262  0.00  0.00    -0.169 NA
ATOM      5  C   UNL     1      32.954 -23.404 -15.267  0.00  0.00    +0.156 C 
ATOM      6  C   UNL     1      31.646 -22.407 -16.840  0.00  0.00    +0.149 C 
ATOM      7  C   UNL     1      31.843 -23.851 -14.581  0.00  0.00    +0.108 C 
ATOM      8  C   UNL     1      30.624 -23.508 -15.130  0.00  0.00    +0.126 C 
ATOM      9  H   UNL     1      30.616 -21.475 -18.303  0.00  0.00    +0.165 HD
ENDROOT
BRANCH   2  13
ATOM     10  C   UNL     1      34.409 -19.990 -20.581  0.00  0.00    -0.024 C 
ATOM     11  C   UNL     1      33.084 -19.600 -20.698  0.00  0.00    -0.003 C 
ATOM     12  C   UNL     1      34.802 -20.921 -19.632  0.00  0.00    -0.003 C 
ATOM     13  C   UNL     1      32.510 -21.091 -18.886  0.00  0.00    +0.058 C 
ATOM     14  C   UNL     1      32.129 -20.153 -19.846  0.00  0.00    +0.015 C 
ATOM     15  C   UNL     1      33.847 -21.474 -18.779  0.00  0.00    +0.015 C 
BRANCH  10  16
ATOM     16  C   UNL     1      35.442 -19.393 -21.503  0.00  0.00    +0.004 C 
BRANCH  16  17
ATOM     17  C   UNL     1      35.739 -17.937 -21.145  0.00  0.00    -0.072 C 
BRANCH  17  19
ATOM     18  O   UNL     1      33.378 -15.688 -23.788  0.00  0.00    -0.358 OA
ATOM     19  N   UNL     1      35.338 -17.039 -22.226  0.00  0.00    +0.391 N 
ATOM     20  C   UNL     1      34.522 -17.750 -23.220  0.00  0.00    -0.045 C 
ATOM     21  C   UNL     1      34.593 -15.887 -21.698  0.00  0.00    -0.045 C 
ATOM     22  C   UNL     1      34.106 -16.791 -24.331  0.00  0.00    +0.119 C 
ATOM     23  C   UNL     1      34.174 -14.970 -22.844  0.00  0.00    +0.119 C 
ATOM     24  H   UNL     1      36.184 -16.699 -22.681  0.00  0.00    -0.079 HD
ENDBRANCH  17  19
ENDBRANCH  16  17
ENDBRANCH  10  16
ENDBRANCH   2  13
BRANCH   5  28
ATOM     25  C   UNL     1      36.911 -24.201 -13.980  0.00  0.00    -0.041 C 
ATOM     26  C   UNL     1      36.333 -22.957 -13.727  0.00  0.00    -0.006 C 
ATOM     27  C   UNL     1      36.187 -25.182 -14.658  0.00  0.00    -0.006 C 
ATOM     28  C   UNL     1      34.305 -23.676 -14.827  0.00  0.00    +0.031 C 
ATOM     29  C   UNL     1      35.030 -22.695 -14.151  0.00  0.00    +0.002 C 
ATOM     30  C   UNL     1      34.884 -24.920 -15.080  0.00  0.00    +0.002 C 
BRANCH  25  31
ATOM     31  C   UNL     1      38.304 -24.481 -13.527  0.00  0.00    -0.029 C 
ATOM     32  C   UNL     1      38.724 -23.507 -12.389  0.00  0.00    -0.018 C 
ATOM     33  C   UNL     1      39.410 -24.377 -14.624  0.00  0.00    -0.018 C 
BRANCH  31  34
ATOM     34  N   UNL     1      38.435 -25.859 -12.976  0.00  0.00    +0.385 N 
ATOM     35  H   UNL     1      39.423 -26.087 -12.862  0.00  0.00    -0.089 HD
ATOM     36  H   UNL     1      38.005 -26.525 -13.618  0.00  0.00    -0.089 HD
ATOM     37  H   UNL     1      37.968 -25.909 -12.071  0.00  0.00    -0.089 HD
ENDBRANCH  31  34
ENDBRANCH  25  31
ENDBRANCH   5  28
TORSDOF 7
ENDMDL
MODEL 2
REMARK VINA RESULT:     -12.1      2.018      5.145
REMARK  Name = 447622
REMARK  7 active torsions:
REMARK  status: ('A' for Active; 'I' for Inactive)
REMARK    1  A    between atoms: N_2  and  C_13
REMARK    2  A    between atoms: C_5  and  C_28
REMARK    3  A    between atoms: C_10  and  C_16
REMARK    4  A    between atoms: C_16  and  C_17
REMARK    5  A    between atoms: C_17  and  N_19
REMARK    6  A    between atoms: C_25  and  C_31
REMARK    7  A    between atoms: C_31  and  N_34
REMARK                            x       y       z     vdW  Elec       q    Type
REMARK                         _______ _______ _______ _____ _____    ______ ____
ROOT
ATOM      1 CL   UNL     1      34.882 -23.889 -13.280  0.00  0.00    -0.078 Cl
ATOM      2  N   UNL     1      36.561 -21.051 -18.067  0.00  0.00    -0.247 N 
ATOM      3  N   UNL     1      34.815 -21.933 -16.770  0.00  0.00    -0.337 NA
ATOM      4  N   UNL     1      37.108 -22.133 -16.057  0.00  0.00    -0.169 NA
ATOM      5  C   UNL     1      34.449 -22.593 -15.653  0.00  0.00    +0.156 C 
ATOM      6  C   UNL     1      36.143 -21.737 -16.910  0.00  0.00    +0.149 C 
ATOM      7  C   UNL     1      35.342 -23.049 -14.704  0.00  0.00    +0.108 C 
ATOM      8  C   UNL     1      36.672 -22.788 -14.961  0.00  0.00    +0.126 C 
ATOM      9  H   UNL     1      37.536 -20.934 -18.126  0.00  0.00    +0.165 HD
ENDROOT
BRANCH   2  13
ATOM     10  C   UNL     1      34.470 -19.409 -21.297  0.00  0.00    -0.024 C 
ATOM     11  C   UNL     1      33.862 -20.379 -20.514  0.00  0.00    -0.003 C 
ATOM     12  C   UNL     1      35.759 -18.974 -21.029  0.00  0.00    -0.003 C 
ATOM     13  C   UNL     1      35.857 -20.498 -19.157  0.00  0.00    +0.058 C 
ATOM     14  C   UNL     1      34.560 -20.926 -19.438  0.00  0.00    +0.015 C 
ATOM     15  C   UNL     1      36.456 -19.522 -19.952  0.00  0.00    +0.015 C 
BRANCH  10  16
ATOM     16  C   UNL     1      33.716 -18.817 -22.461  0.00  0.00    +0.004 C 
BRANCH  16  17
ATOM     17  C   UNL     1      34.556 -17.778 -23.203  0.00  0.00    -0.072 C 
BRANCH  17  19
ATOM     18  O   UNL     1      33.962 -13.627 -23.391  0.00  0.00    -0.358 OA
ATOM     19  N   UNL     1      33.915 -16.465 -23.170  0.00  0.00    +0.391 N 
ATOM     20  C   UNL     1      34.506 -15.621 -22.121  0.00  0.00    -0.045 C 
ATOM     21  C   UNL     1      34.026 -15.797 -24.474  0.00  0.00    -0.045 C 
ATOM     22  C   UNL     1      33.829 -14.254 -22.114  0.00  0.00    +0.119 C 
ATOM     23  C   UNL     1      33.361 -14.424 -24.412  0.00  0.00    +0.119 C 
ATOM     24  H   UNL     1      32.928 -16.604 -22.958  0.00  0.00    -0.079 HD
ENDBRANCH  17  19
ENDBRANCH  16  17
ENDBRANCH  10  16
ENDBRANCH   2  13
BRANCH   5  28
ATOM     25  C   UNL     1      30.263 -23.149 -15.309  0.00  0.00    -0.041 C 
ATOM     26  C   UNL     1      30.834 -22.910 -16.558  0.00  0.00    -0.006 C 
ATOM     27  C   UNL     1      31.069 -23.205 -14.172  0.00  0.00    -0.006 C 
ATOM     28  C   UNL     1      33.020 -22.784 -15.536  0.00  0.00    +0.031 C 
ATOM     29  C   UNL     1      32.212 -22.727 -16.672  0.00  0.00    +0.002 C 
ATOM     30  C   UNL     1      32.448 -23.023 -14.285  0.00  0.00    +0.002 C 
BRANCH  25  31
ATOM     31  C   UNL     1      28.789 -23.345 -15.188  0.00  0.00    -0.029 C 
ATOM     32  C   UNL     1      28.462 -24.491 -14.189  0.00  0.00    -0.018 C 
ATOM     33  C   UNL     1      28.039 -23.688 -16.513  0.00  0.00    -0.018 C 
BRANCH  31  34
ATOM     34  N   UNL     1      28.114 -22.122 -14.668  0.00  0.00    +0.385 N 
ATOM     35  H   UNL     1      28.049 -22.177 -13.652  0.00  0.00    -0.089 HD
ATOM     36  H   UNL     1      27.177 -22.056 -15.066  0.00  0.00    -0.089 HD
ATOM     37  H   UNL     1      28.655 -21.298 -14.930  0.00  0.00    -0.089 HD
ENDBRANCH  31  34
ENDBRANCH  25  31
ENDBRANCH   5  28
TORSDOF 7
ENDMDL
MODEL 3
REMARK VINA RESULT:     -10.9      8.456     15.511
REMARK  Name = 447622
REMARK  7 active torsions:
REMARK  status: ('A' for Active; 'I' for Inactive)
REMARK    1  A    between atoms: N_2  and  C_13
REMARK    2  A    between atoms: C_5  and  C_28
REMARK    3  A    between atoms: C_10  and  C_16
REMARK    4  A    between atoms: C_16  and  C_17
REMARK    5  A    between atoms: C_17  and  N_19
REMARK    6  A    between atoms: C_25  and  C_31
REMARK    7  A    between atoms: C_31  and  N_34
REMARK                            x       y       z     vdW  Elec       q    Type
REMARK                         _______ _______ _______ _____ _____    ______ ____
ROOT
ATOM      1 CL   UNL     1      31.437  -4.567 -20.738  0.00  0.00    -0.078 Cl
ATOM      2  N   UNL     1      31.571 -10.362 -20.300  0.00  0.00    -0.247 N 
ATOM      3  N   UNL     1      31.969  -8.441 -21.588  0.00  0.00    -0.337 NA
ATOM      4  N   UNL     1      31.094  -8.269 -19.349  0.00  0.00    -0.169 NA
ATOM      5  C   UNL     1      31.930  -7.095 -21.667  0.00  0.00    +0.156 C 
ATOM      6  C   UNL     1      31.544  -8.958 -20.417  0.00  0.00    +0.149 C 
ATOM      7  C   UNL     1      31.490  -6.279 -20.644  0.00  0.00    +0.108 C 
ATOM      8  C   UNL     1      31.080  -6.928 -19.497  0.00  0.00    +0.126 C 
ATOM      9  H   UNL     1      31.250 -10.692 -19.430  0.00  0.00    +0.165 HD
ENDROOT
BRANCH   2  13
ATOM     10  C   UNL     1      32.754 -13.399 -22.922  0.00  0.00    -0.024 C 
ATOM     11  C   UNL     1      32.428 -12.150 -23.429  0.00  0.00    -0.003 C 
ATOM     12  C   UNL     1      32.695 -13.659 -21.562  0.00  0.00    -0.003 C 
ATOM     13  C   UNL     1      31.969 -11.386 -21.184  0.00  0.00    +0.058 C 
ATOM     14  C   UNL     1      32.033 -11.138 -22.555  0.00  0.00    +0.015 C 
ATOM     15  C   UNL     1      32.301 -12.647 -20.688  0.00  0.00    +0.015 C 
BRANCH  10  16
ATOM     16  C   UNL     1      33.180 -14.494 -23.867  0.00  0.00    +0.004 C 
BRANCH  16  17
ATOM     17  C   UNL     1      34.619 -14.937 -23.600  0.00  0.00    -0.072 C 
BRANCH  17  19
ATOM     18  O   UNL     1      33.705 -18.927 -22.673  0.00  0.00    -0.358 OA
ATOM     19  N   UNL     1      34.707 -16.392 -23.493  0.00  0.00    +0.391 N 
ATOM     20  C   UNL     1      34.735 -16.811 -22.085  0.00  0.00    -0.045 C 
ATOM     21  C   UNL     1      33.582 -17.035 -24.187  0.00  0.00    -0.045 C 
ATOM     22  C   UNL     1      34.815 -18.333 -21.999  0.00  0.00    +0.119 C 
ATOM     23  C   UNL     1      33.688 -18.552 -24.051  0.00  0.00    +0.119 C 
ATOM     24  H   UNL     1      35.576 -16.687 -23.938  0.00  0.00    -0.079 HD
ENDBRANCH  17  19
ENDBRANCH  16  17
ENDBRANCH  10  16
ENDBRANCH   2  13
BRANCH   5  28
ATOM     25  C   UNL     1      33.288  -5.572 -25.380  0.00  0.00    -0.041 C 
ATOM     26  C   UNL     1      34.112  -5.508 -24.257  0.00  0.00    -0.006 C 
ATOM     27  C   UNL     1      32.016  -6.138 -25.282  0.00  0.00    -0.006 C 
ATOM     28  C   UNL     1      32.394  -6.576 -22.935  0.00  0.00    +0.031 C 
ATOM     29  C   UNL     1      33.664  -6.009 -23.034  0.00  0.00    +0.002 C 
ATOM     30  C   UNL     1      31.569  -6.640 -24.059  0.00  0.00    +0.002 C 
BRANCH  25  31
ATOM     31  C   UNL     1      33.767  -5.036 -26.687  0.00  0.00    -0.029 C 
ATOM     32  C   UNL     1      33.095  -5.785 -27.873  0.00  0.00    -0.018 C 
ATOM     33  C   UNL     1      35.306  -5.116 -26.931  0.00  0.00    -0.018 C 
BRANCH  31  34
ATOM     34  N   UNL     1      33.425  -3.594 -26.847  0.00  0.00    +0.385 N 
ATOM     35  H   UNL     1      32.940  -3.457 -27.733  0.00  0.00    -0.089 HD
ATOM     36  H   UNL     1      34.280  -3.039 -26.837  0.00  0.00    -0.089 HD
ATOM     37  H   UNL     1      32.820  -3.301 -26.079  0.00  0.00    -0.089 HD
ENDBRANCH  31  34
ENDBRANCH  25  31
ENDBRANCH   5  28
TORSDOF 7
ENDMDL
MODEL 4
REMARK VINA RESULT:     -10.7      9.341     16.909
REMARK  Name = 447622
REMARK  7 active torsions:
REMARK  status: ('A' for Active; 'I' for Inactive)
REMARK    1  A    between atoms: N_2  and  C_13
REMARK    2  A    between atoms: C_5  and  C_28
REMARK    3  A    between atoms: C_10  and  C_16
REMARK    4  A    between atoms: C_16  and  C_17
REMARK    5  A    between atoms: C_17  and  N_19
REMARK    6  A    between atoms: C_25  and  C_31
REMARK    7  A    between atoms: C_31  and  N_34
REMARK                            x       y       z     vdW  Elec       q    Type
REMARK                         _______ _______ _______ _____ _____    ______ ____
ROOT
ATOM      1 CL   UNL     1      31.573  -2.710 -23.119  0.00  0.00    -0.078 Cl
ATOM      2  N   UNL     1      31.084  -8.185 -21.227  0.00  0.00    -0.247 N 
ATOM      3  N   UNL     1      31.860  -6.693 -22.864  0.00  0.00    -0.337 NA
ATOM      4  N   UNL     1      30.665  -5.895 -20.930  0.00  0.00    -0.169 NA
ATOM      5  C   UNL     1      31.962  -5.415 -23.284  0.00  0.00    +0.156 C 
ATOM      6  C   UNL     1      31.209  -6.862 -21.695  0.00  0.00    +0.149 C 
ATOM      7  C   UNL     1      31.448  -4.338 -22.591  0.00  0.00    +0.108 C 
ATOM      8  C   UNL     1      30.803  -4.641 -21.409  0.00  0.00    +0.126 C 
ATOM      9  H   UNL     1      30.601  -8.258 -20.373  0.00  0.00    +0.165 HD
ENDROOT
BRANCH   2  13
ATOM     10  C   UNL     1      32.369 -11.862 -22.754  0.00  0.00    -0.024 C 
ATOM     11  C   UNL     1      32.734 -10.691 -23.400  0.00  0.00    -0.003 C 
ATOM     12  C   UNL     1      31.585 -11.836 -21.610  0.00  0.00    -0.003 C 
ATOM     13  C   UNL     1      31.516  -9.425 -21.742  0.00  0.00    +0.058 C 
ATOM     14  C   UNL     1      32.305  -9.466 -22.892  0.00  0.00    +0.015 C 
ATOM     15  C   UNL     1      31.157 -10.610 -21.102  0.00  0.00    +0.015 C 
BRANCH  10  16
ATOM     16  C   UNL     1      32.832 -13.187 -23.304  0.00  0.00    +0.004 C 
BRANCH  16  17
ATOM     17  C   UNL     1      33.899 -13.823 -22.413  0.00  0.00    -0.072 C 
BRANCH  17  19
ATOM     18  O   UNL     1      34.044 -17.885 -23.458  0.00  0.00    -0.358 OA
ATOM     19  N   UNL     1      34.351 -15.098 -22.965  0.00  0.00    +0.391 N 
ATOM     20  C   UNL     1      34.536 -16.093 -21.899  0.00  0.00    -0.045 C 
ATOM     21  C   UNL     1      33.397 -15.602 -23.963  0.00  0.00    -0.045 C 
ATOM     22  C   UNL     1      34.995 -17.418 -22.500  0.00  0.00    +0.119 C 
ATOM     23  C   UNL     1      33.882 -16.939 -24.516  0.00  0.00    +0.119 C 
ATOM     24  H   UNL     1      35.248 -14.941 -23.422  0.00  0.00    -0.079 HD
ENDBRANCH  17  19
ENDBRANCH  16  17
ENDBRANCH  10  16
ENDBRANCH   2  13
BRANCH   5  28
ATOM     25  C   UNL     1      34.027  -4.998 -26.959  0.00  0.00    -0.041 C 
ATOM     26  C   UNL     1      32.726  -5.500 -26.944  0.00  0.00    -0.006 C 
ATOM     27  C   UNL     1      34.649  -4.634 -25.765  0.00  0.00    -0.006 C 
ATOM     28  C   UNL     1      32.667  -5.272 -24.539  0.00  0.00    +0.031 C 
ATOM     29  C   UNL     1      32.046  -5.637 -25.733  0.00  0.00    +0.002 C 
ATOM     30  C   UNL     1      33.969  -4.771 -24.555  0.00  0.00    +0.002 C 
BRANCH  25  31
ATOM     31  C   UNL     1      34.753  -4.852 -28.254  0.00  0.00    -0.029 C 
ATOM     32  C   UNL     1      34.965  -3.351 -28.604  0.00  0.00    -0.018 C 
ATOM     33  C   UNL     1      34.066  -5.500 -29.496  0.00  0.00    -0.018 C 
BRANCH  31  34
ATOM     34  N   UNL     1      36.108  -5.469 -28.196  0.00  0.00    +0.385 N 
ATOM     35  H   UNL     1      36.781  -4.780 -27.860  0.00  0.00    -0.089 HD
ATOM     36  H   UNL     1      36.379  -5.784 -29.127  0.00  0.00    -0.089 HD
ATOM     37  H   UNL     1      36.091  -6.266 -27.559  0.00  0.00    -0.089 HD
ENDBRANCH  31  34
ENDBRANCH  25  31
ENDBRANCH   5  28
TORSDOF 7
ENDMDL
MODEL 5
REMARK VINA RESULT:     -10.5      1.991      5.100
REMARK  Name = 447622
REMARK  7 active torsions:
REMARK  status: ('A' for Active; 'I' for Inactive)
REMARK    1  A    between atoms: N_2  and  C_13
REMARK    2  A    between atoms: C_5  and  C_28
REMARK    3  A    between atoms: C_10  and  C_16
REMARK    4  A    between atoms: C_16  and  C_17
REMARK    5  A    between atoms: C_17  and  N_19
REMARK    6  A    between atoms: C_25  and  C_31
REMARK    7  A    between atoms: C_31  and  N_34
REMARK                            x       y       z     vdW  Elec       q    Type
REMARK                         _______ _______ _______ _____ _____    ______ ____
ROOT
ATOM      1 CL   UNL     1      34.393 -24.153 -12.328  0.00  0.00    -0.078 Cl
ATOM      2  N   UNL     1      36.745 -21.410 -16.881  0.00  0.00    -0.247 N 
ATOM      3  N   UNL     1      34.829 -22.263 -15.827  0.00  0.00    -0.337 NA
ATOM      4  N   UNL     1      36.998 -22.455 -14.795  0.00  0.00    -0.169 NA
ATOM      5  C   UNL     1      34.305 -22.901 -14.761  0.00  0.00    +0.156 C 
ATOM      6  C   UNL     1      36.164 -22.073 -15.782  0.00  0.00    +0.149 C 
ATOM      7  C   UNL     1      35.053 -23.341 -13.687  0.00  0.00    +0.108 C 
ATOM      8  C   UNL     1      36.408 -23.088 -13.759  0.00  0.00    +0.126 C 
ATOM      9  H   UNL     1      37.720 -21.297 -16.804  0.00  0.00    +0.165 HD
ENDROOT
BRANCH   2  13
ATOM     10  C   UNL     1      35.144 -19.827 -20.406  0.00  0.00    -0.024 C 
ATOM     11  C   UNL     1      36.264 -19.235 -19.841  0.00  0.00    -0.003 C 
ATOM     12  C   UNL     1      34.546 -20.933 -19.824  0.00  0.00    -0.003 C 
ATOM     13  C   UNL     1      36.205 -20.876 -18.069  0.00  0.00    +0.058 C 
ATOM     14  C   UNL     1      36.796 -19.763 -18.665  0.00  0.00    +0.015 C 
ATOM     15  C   UNL     1      35.080 -21.461 -18.649  0.00  0.00    +0.015 C 
BRANCH  10  16
ATOM     16  C   UNL     1      34.567 -19.256 -21.677  0.00  0.00    +0.004 C 
BRANCH  16  17
ATOM     17  C   UNL     1      34.870 -17.763 -21.809  0.00  0.00    -0.072 C 
BRANCH  17  19
ATOM     18  O   UNL     1      32.840 -16.123 -25.097  0.00  0.00    -0.358 OA
ATOM     19  N   UNL     1      34.570 -17.285 -23.158  0.00  0.00    +0.391 N 
ATOM     20  C   UNL     1      33.453 -18.040 -23.743  0.00  0.00    -0.045 C 
ATOM     21  C   UNL     1      34.253 -15.850 -23.144  0.00  0.00    -0.045 C 
ATOM     22  C   UNL     1      33.152 -17.516 -25.144  0.00  0.00    +0.119 C 
ATOM     23  C   UNL     1      33.932 -15.376 -24.559  0.00  0.00    +0.119 C 
ATOM     24  H   UNL     1      35.399 -17.431 -23.733  0.00  0.00    -0.079 HD
ENDBRANCH  17  19
ENDBRANCH  16  17
ENDBRANCH  10  16
ENDBRANCH   2  13
BRANCH   5  28
ATOM     25  C   UNL     1      30.111 -23.442 -15.001  0.00  0.00    -0.041 C 
ATOM     26  C   UNL     1      30.780 -23.708 -13.807  0.00  0.00    -0.006 C 
ATOM     27  C   UNL     1      30.821 -22.999 -16.116  0.00  0.00    -0.006 C 
ATOM     28  C   UNL     1      32.873 -23.085 -14.842  0.00  0.00    +0.031 C 
ATOM     29  C   UNL     1      32.162 -23.529 -13.728  0.00  0.00    +0.002 C 
ATOM     30  C   UNL     1      32.202 -22.819 -16.037  0.00  0.00    +0.002 C 
BRANCH  25  31
ATOM     31  C   UNL     1      28.634 -23.633 -15.085  0.00  0.00    -0.029 C 
ATOM     32  C   UNL     1      28.210 -24.060 -16.519  0.00  0.00    -0.018 C 
ATOM     33  C   UNL     1      27.766 -22.387 -14.723  0.00  0.00    -0.018 C 
BRANCH  31  34
ATOM     34  N   UNL     1      28.166 -24.709 -14.167  0.00  0.00    +0.385 N 
ATOM     35  H   UNL     1      28.133 -25.595 -14.671  0.00  0.00    -0.089 HD
ATOM     36  H   UNL     1      27.235 -24.480 -13.820  0.00  0.00    -0.089 HD
ATOM     37  H   UNL     1      28.811 -24.789 -13.380  0.00  0.00    -0.089 HD
ENDBRANCH  31  34
ENDBRANCH  25  31
ENDBRANCH   5  28
TORSDOF 7
ENDMDL
