MODEL 1
REMARK VINA RESULT:     -11.8      0.000      0.000
REMARK  Name = 46181428
REMARK  7 active torsions:
REMARK  status: ('A' for Active; 'I' for Inactive)
REMARK    1  A    between atoms: C_1  and  C_5
REMARK    2  A    between atoms: C_1  and  N_16
REMARK    3  A    between atoms: C_1  and  C_25
REMARK    4  A    between atoms: C_10  and  C_13
REMARK    5  A    between atoms: C_13  and  O_14
REMARK    6  A    between atoms: C_20  and  C_24
REMARK    7  A    between atoms: C_25  and  C_26
REMARK                            x       y       z     vdW  Elec       q    Type
REMARK                         _______ _______ _______ _____ _____    ______ ____
ROOT
ATOM      1  C   UNL     1      33.043 -23.243 -16.267  0.00  0.00    +0.137 C 
ENDROOT
BRANCH   1   5
ATOM      2  O   UNL     1      31.809 -22.027 -17.953  0.00  0.00    -0.273 OA
ATOM      3  N   UNL     1      34.149 -21.849 -17.909  0.00  0.00    -0.268 N 
ATOM      4  N   UNL     1      35.708 -20.664 -19.259  0.00  0.00    -0.229 NA
ATOM      5  C   UNL     1      32.905 -22.300 -17.472  0.00  0.00    +0.242 C 
ATOM      6  C   UNL     1      34.420 -20.985 -18.996  0.00  0.00    +0.134 C 
ATOM      7  C   UNL     1      33.341 -20.519 -19.728  0.00  0.00    +0.035 C 
ATOM      8  C   UNL     1      33.597 -19.670 -20.798  0.00  0.00    +0.011 C 
ATOM      9  C   UNL     1      35.918 -19.836 -20.307  0.00  0.00    +0.107 C 
ATOM     10  C   UNL     1      34.908 -19.317 -21.100  0.00  0.00    +0.095 C 
ATOM     11  H   UNL     1      34.929 -22.169 -17.402  0.00  0.00    +0.156 HD
BRANCH  10  13
ATOM     12  O   UNL     1      34.415 -18.104 -23.102  0.00  0.00    -0.245 OA
ATOM     13  C   UNL     1      35.210 -18.435 -22.214  0.00  0.00    +0.340 C 
BRANCH  13  14
ATOM     14  O   UNL     1      36.495 -17.986 -22.193  0.00  0.00    -0.477 OA
ATOM     15  H   UNL     1      37.082 -18.211 -22.887  0.00  0.00    +0.295 HD
ENDBRANCH  13  14
ENDBRANCH  10  13
ENDBRANCH   1   5
BRANCH   1  16
ATOM     16  N   UNL     1      34.451 -23.169 -15.700  0.00  0.00    -0.240 NA
ATOM     17  N   UNL     1      36.339 -22.294 -14.924  0.00  0.00    -0.251 NA
ATOM     18  C   UNL     1      35.259 -24.229 -15.400  0.00  0.00    +0.124 C 
ATOM     19  C   UNL     1      35.143 -22.028 -15.399  0.00  0.00    +0.201 C 
ATOM     20  C   UNL     1      36.419 -23.664 -14.923  0.00  0.00    +0.143 C 
BRANCH  20  24
ATOM     21  F   UNL     1      38.786 -23.864 -15.028  0.00  0.00    -0.165 F 
ATOM     22  F   UNL     1      37.855 -24.241 -13.099  0.00  0.00    -0.165 F 
ATOM     23  F   UNL     1      37.661 -25.696 -14.696  0.00  0.00    -0.165 F 
ATOM     24  C   UNL     1      37.635 -24.343 -14.452  0.00  0.00    +0.432 C 
ENDBRANCH  20  24
ENDBRANCH   1  16
BRANCH   1  25
ATOM     25  C   UNL     1      31.963 -22.945 -15.205  0.00  0.00    +0.025 C 
BRANCH  25  26
ATOM     26  C   UNL     1      30.731 -23.824 -15.341  0.00  0.00    +0.002 C 
ATOM     27  C   UNL     1      29.447 -23.029 -15.559  0.00  0.00    +0.000 C 
ATOM     28  C   UNL     1      30.413 -24.614 -14.076  0.00  0.00    +0.000 C 
ATOM     29  C   UNL     1      28.958 -25.035 -14.257  0.00  0.00    +0.000 C 
ATOM     30  C   UNL     1      28.339 -24.021 -15.222  0.00  0.00    +0.000 C 
ENDBRANCH  25  26
ENDBRANCH   1  25
TORSDOF 7
ENDMDL
MODEL 2
REMARK VINA RESULT:     -11.7      1.548      1.888
REMARK  Name = 46181428
REMARK  7 active torsions:
REMARK  status: ('A' for Active; 'I' for Inactive)
REMARK    1  A    between atoms: C_1  and  C_5
REMARK    2  A    between atoms: C_1  and  N_16
REMARK    3  A    between atoms: C_1  and  C_25
REMARK    4  A    between atoms: C_10  and  C_13
REMARK    5  A    between atoms: C_13  and  O_14
REMARK    6  A    between atoms: C_20  and  C_24
REMARK    7  A    between atoms: C_25  and  C_26
REMARK                            x       y       z     vdW  Elec       q    Type
REMARK                         _______ _______ _______ _____ _____    ______ ____
ROOT
ATOM      1  C   UNL     1      33.528 -23.487 -15.764  0.00  0.00    +0.137 C 
ENDROOT
BRANCH   1   5
ATOM      2  O   UNL     1      35.413 -22.475 -16.890  0.00  0.00    -0.273 OA
ATOM      3  N   UNL     1      33.253 -22.091 -17.723  0.00  0.00    -0.268 N 
ATOM      4  N   UNL     1      32.427 -20.821 -19.557  0.00  0.00    -0.229 NA
ATOM      5  C   UNL     1      34.196 -22.633 -16.853  0.00  0.00    +0.242 C 
ATOM      6  C   UNL     1      33.488 -21.244 -18.832  0.00  0.00    +0.134 C 
ATOM      7  C   UNL     1      34.801 -20.899 -19.106  0.00  0.00    +0.035 C 
ATOM      8  C   UNL     1      35.042 -20.067 -20.193  0.00  0.00    +0.011 C 
ATOM      9  C   UNL     1      32.701 -20.014 -20.606  0.00  0.00    +0.107 C 
ATOM     10  C   UNL     1      33.977 -19.611 -20.963  0.00  0.00    +0.095 C 
ATOM     11  H   UNL     1      32.313 -22.324 -17.544  0.00  0.00    +0.156 HD
BRANCH  10  13
ATOM     12  O   UNL     1      33.928 -19.014 -23.279  0.00  0.00    -0.245 OA
ATOM     13  C   UNL     1      34.195 -18.738 -22.103  0.00  0.00    +0.340 C 
BRANCH  13  14
ATOM     14  O   UNL     1      34.741 -17.542 -21.749  0.00  0.00    -0.477 OA
ATOM     15  H   UNL     1      34.296 -16.744 -21.954  0.00  0.00    +0.295 HD
ENDBRANCH  13  14
ENDBRANCH  10  13
ENDBRANCH   1   5
BRANCH   1  16
ATOM     16  N   UNL     1      34.542 -23.864 -14.697  0.00  0.00    -0.240 NA
ATOM     17  N   UNL     1      35.753 -23.741 -12.839  0.00  0.00    -0.251 NA
ATOM     18  C   UNL     1      35.338 -24.975 -14.694  0.00  0.00    +0.124 C 
ATOM     19  C   UNL     1      34.827 -23.153 -13.564  0.00  0.00    +0.201 C 
ATOM     20  C   UNL     1      36.076 -24.876 -13.538  0.00  0.00    +0.143 C 
BRANCH  20  24
ATOM     21  F   UNL     1      37.216 -26.949 -13.776  0.00  0.00    -0.165 F 
ATOM     22  F   UNL     1      38.367 -25.283 -12.982  0.00  0.00    -0.165 F 
ATOM     23  F   UNL     1      36.869 -26.250 -11.746  0.00  0.00    -0.165 F 
ATOM     24  C   UNL     1      37.096 -25.804 -13.027  0.00  0.00    +0.432 C 
ENDBRANCH  20  24
ENDBRANCH   1  16
BRANCH   1  25
ATOM     25  C   UNL     1      32.294 -22.769 -15.177  0.00  0.00    +0.025 C 
BRANCH  25  26
ATOM     26  C   UNL     1      31.012 -23.574 -15.313  0.00  0.00    +0.002 C 
ATOM     27  C   UNL     1      29.772 -22.705 -15.492  0.00  0.00    +0.000 C 
ATOM     28  C   UNL     1      30.670 -24.376 -14.061  0.00  0.00    +0.000 C 
ATOM     29  C   UNL     1      29.191 -24.710 -14.228  0.00  0.00    +0.000 C 
ATOM     30  C   UNL     1      28.615 -23.641 -15.159  0.00  0.00    +0.000 C 
ENDBRANCH  25  26
ENDBRANCH   1  25
TORSDOF 7
ENDMDL
MODEL 3
REMARK VINA RESULT:     -10.4      3.349      5.414
REMARK  Name = 46181428
REMARK  7 active torsions:
REMARK  status: ('A' for Active; 'I' for Inactive)
REMARK    1  A    between atoms: C_1  and  C_5
REMARK    2  A    between atoms: C_1  and  N_16
REMARK    3  A    between atoms: C_1  and  C_25
REMARK    4  A    between atoms: C_10  and  C_13
REMARK    5  A    between atoms: C_13  and  O_14
REMARK    6  A    between atoms: C_20  and  C_24
REMARK    7  A    between atoms: C_25  and  C_26
REMARK                            x       y       z     vdW  Elec       q    Type
REMARK                         _______ _______ _______ _____ _____    ______ ____
ROOT
ATOM      1  C   UNL     1      34.985 -23.569 -14.784  0.00  0.00    +0.137 C 
ENDROOT
BRANCH   1   5
ATOM      2  O   UNL     1      36.644 -22.377 -16.075  0.00  0.00    -0.273 OA
ATOM      3  N   UNL     1      34.420 -22.394 -16.824  0.00  0.00    -0.268 N 
ATOM      4  N   UNL     1      33.337 -21.417 -18.703  0.00  0.00    -0.229 NA
ATOM      5  C   UNL     1      35.469 -22.714 -15.965  0.00  0.00    +0.242 C 
ATOM      6  C   UNL     1      34.478 -21.614 -18.003  0.00  0.00    +0.134 C 
ATOM      7  C   UNL     1      35.710 -21.096 -18.368  0.00  0.00    +0.035 C 
ATOM      8  C   UNL     1      35.776 -20.327 -19.524  0.00  0.00    +0.011 C 
ATOM      9  C   UNL     1      33.442 -20.664 -19.821  0.00  0.00    +0.107 C 
ATOM     10  C   UNL     1      34.625 -20.103 -20.270  0.00  0.00    +0.095 C 
ATOM     11  H   UNL     1      33.536 -22.752 -16.581  0.00  0.00    +0.156 HD
BRANCH  10  13
ATOM     12  O   UNL     1      33.763 -19.245 -22.331  0.00  0.00    -0.245 OA
ATOM     13  C   UNL     1      34.661 -19.302 -21.482  0.00  0.00    +0.340 C 
BRANCH  13  14
ATOM     14  O   UNL     1      35.815 -18.590 -21.604  0.00  0.00    -0.477 OA
ATOM     15  H   UNL     1      35.793 -17.714 -21.934  0.00  0.00    +0.295 HD
ENDBRANCH  13  14
ENDBRANCH  10  13
ENDBRANCH   1   5
BRANCH   1  16
ATOM     16  N   UNL     1      33.501 -23.341 -14.544  0.00  0.00    -0.240 NA
ATOM     17  N   UNL     1      31.593 -23.028 -13.453  0.00  0.00    -0.251 NA
ATOM     18  C   UNL     1      32.536 -23.225 -15.504  0.00  0.00    +0.124 C 
ATOM     19  C   UNL     1      32.888 -23.217 -13.329  0.00  0.00    +0.201 C 
ATOM     20  C   UNL     1      31.366 -23.032 -14.806  0.00  0.00    +0.143 C 
BRANCH  20  24
ATOM     21  F   UNL     1      29.202 -22.089 -14.525  0.00  0.00    -0.165 F 
ATOM     22  F   UNL     1      29.958 -22.219 -16.560  0.00  0.00    -0.165 F 
ATOM     23  F   UNL     1      29.309 -24.014 -15.530  0.00  0.00    -0.165 F 
ATOM     24  C   UNL     1      30.008 -22.846 -15.338  0.00  0.00    +0.432 C 
ENDBRANCH  20  24
ENDBRANCH   1  16
BRANCH   1  25
ATOM     25  C   UNL     1      35.326 -25.058 -15.001  0.00  0.00    +0.025 C 
BRANCH  25  26
ATOM     26  C   UNL     1      36.395 -25.572 -14.052  0.00  0.00    +0.002 C 
ATOM     27  C   UNL     1      36.293 -24.978 -12.651  0.00  0.00    +0.000 C 
ATOM     28  C   UNL     1      37.809 -25.179 -14.469  0.00  0.00    +0.000 C 
ATOM     29  C   UNL     1      38.637 -25.373 -13.202  0.00  0.00    +0.000 C 
ATOM     30  C   UNL     1      37.658 -25.256 -12.032  0.00  0.00    +0.000 C 
ENDBRANCH  25  26
ENDBRANCH   1  25
TORSDOF 7
ENDMDL
MODEL 4
REMARK VINA RESULT:     -10.4      4.202      6.992
REMARK  Name = 46181428
REMARK  7 active torsions:
REMARK  status: ('A' for Active; 'I' for Inactive)
REMARK    1  A    between atoms: C_1  and  C_5
REMARK    2  A    between atoms: C_1  and  N_16
REMARK    3  A    between atoms: C_1  and  C_25
REMARK    4  A    between atoms: C_10  and  C_13
REMARK    5  A    between atoms: C_13  and  O_14
REMARK    6  A    between atoms: C_20  and  C_24
REMARK    7  A    between atoms: C_25  and  C_26
REMARK                            x       y       z     vdW  Elec       q    Type
REMARK                         _______ _______ _______ _____ _____    ______ ____
ROOT
ATOM      1  C   UNL     1      34.423 -23.495 -14.731  0.00  0.00    +0.137 C 
ENDROOT
BRANCH   1   5
ATOM      2  O   UNL     1      32.587 -22.983 -13.245  0.00  0.00    -0.273 OA
ATOM      3  N   UNL     1      32.201 -23.010 -15.560  0.00  0.00    -0.268 N 
ATOM      4  N   UNL     1      30.260 -22.633 -16.882  0.00  0.00    -0.229 NA
ATOM      5  C   UNL     1      32.968 -23.128 -14.403  0.00  0.00    +0.242 C 
ATOM      6  C   UNL     1      30.824 -22.701 -15.654  0.00  0.00    +0.134 C 
ATOM      7  C   UNL     1      30.134 -22.487 -14.472  0.00  0.00    +0.035 C 
ATOM      8  C   UNL     1      28.779 -22.184 -14.554  0.00  0.00    +0.011 C 
ATOM      9  C   UNL     1      28.942 -22.336 -16.922  0.00  0.00    +0.107 C 
ATOM     10  C   UNL     1      28.165 -22.105 -15.799  0.00  0.00    +0.095 C 
ATOM     11  H   UNL     1      32.673 -23.159 -16.411  0.00  0.00    +0.156 HD
BRANCH  10  13
ATOM     12  O   UNL     1      25.887 -22.043 -15.069  0.00  0.00    -0.245 OA
ATOM     13  C   UNL     1      26.751 -21.794 -15.919  0.00  0.00    +0.340 C 
BRANCH  13  14
ATOM     14  O   UNL     1      26.448 -21.179 -17.095  0.00  0.00    -0.477 OA
ATOM     15  H   UNL     1      26.921 -21.399 -17.874  0.00  0.00    +0.295 HD
ENDBRANCH  13  14
ENDBRANCH  10  13
ENDBRANCH   1   5
BRANCH   1  16
ATOM     16  N   UNL     1      34.925 -22.661 -15.898  0.00  0.00    -0.240 NA
ATOM     17  N   UNL     1      36.265 -21.367 -17.108  0.00  0.00    -0.251 NA
ATOM     18  C   UNL     1      34.265 -22.433 -17.072  0.00  0.00    +0.124 C 
ATOM     19  C   UNL     1      36.121 -22.001 -15.965  0.00  0.00    +0.201 C 
ATOM     20  C   UNL     1      35.111 -21.631 -17.802  0.00  0.00    +0.143 C 
BRANCH  20  24
ATOM     21  F   UNL     1      35.825 -20.119 -19.492  0.00  0.00    -0.165 F 
ATOM     22  F   UNL     1      34.977 -22.007 -20.161  0.00  0.00    -0.165 F 
ATOM     23  F   UNL     1      33.685 -20.472 -19.334  0.00  0.00    -0.165 F 
ATOM     24  C   UNL     1      34.905 -21.079 -19.149  0.00  0.00    +0.432 C 
ENDBRANCH  20  24
ENDBRANCH   1  16
BRANCH   1  25
ATOM     25  C   UNL     1      35.322 -23.364 -13.483  0.00  0.00    +0.025 C 
BRANCH  25  26
ATOM     26  C   UNL     1      36.233 -24.562 -13.272  0.00  0.00    +0.002 C 
ATOM     27  C   UNL     1      37.696 -24.178 -13.073  0.00  0.00    +0.000 C 
ATOM     28  C   UNL     1      36.302 -25.485 -14.484  0.00  0.00    +0.000 C 
ATOM     29  C   UNL     1      37.564 -26.311 -14.250  0.00  0.00    +0.000 C 
ATOM     30  C   UNL     1      38.456 -25.474 -13.331  0.00  0.00    +0.000 C 
ENDBRANCH  25  26
ENDBRANCH   1  25
TORSDOF 7
ENDMDL
MODEL 5
REMARK VINA RESULT:      -9.9      3.436      6.429
REMARK  Name = 46181428
REMARK  7 active torsions:
REMARK  status: ('A' for Active; 'I' for Inactive)
REMARK    1  A    between atoms: C_1  and  C_5
REMARK    2  A    between atoms: C_1  and  N_16
REMARK    3  A    between atoms: C_1  and  C_25
REMARK    4  A    between atoms: C_10  and  C_13
REMARK    5  A    between atoms: C_13  and  O_14
REMARK    6  A    between atoms: C_20  and  C_24
REMARK    7  A    between atoms: C_25  and  C_26
REMARK                            x       y       z     vdW  Elec       q    Type
REMARK                         _______ _______ _______ _____ _____    ______ ____
ROOT
ATOM      1  C   UNL     1      34.626 -22.630 -15.596  0.00  0.00    +0.137 C 
ENDROOT
BRANCH   1   5
ATOM      2  O   UNL     1      32.979 -22.747 -13.830  0.00  0.00    -0.273 OA
ATOM      3  N   UNL     1      32.258 -22.381 -16.033  0.00  0.00    -0.268 N 
ATOM      4  N   UNL     1      30.106 -22.090 -17.005  0.00  0.00    -0.229 NA
ATOM      5  C   UNL     1      33.199 -22.592 -15.028  0.00  0.00    +0.242 C 
ATOM      6  C   UNL     1      30.852 -22.302 -15.896  0.00  0.00    +0.134 C 
ATOM      7  C   UNL     1      30.324 -22.448 -14.624  0.00  0.00    +0.035 C 
ATOM      8  C   UNL     1      28.943 -22.373 -14.479  0.00  0.00    +0.011 C 
ATOM      9  C   UNL     1      28.768 -22.023 -16.825  0.00  0.00    +0.107 C 
ATOM     10  C   UNL     1      28.143 -22.156 -15.596  0.00  0.00    +0.095 C 
ATOM     11  H   UNL     1      32.613 -22.275 -16.945  0.00  0.00    +0.156 HD
BRANCH  10  13
ATOM     12  O   UNL     1      26.068 -21.989 -14.418  0.00  0.00    -0.245 OA
ATOM     13  C   UNL     1      26.698 -22.076 -15.479  0.00  0.00    +0.340 C 
BRANCH  13  14
ATOM     14  O   UNL     1      26.073 -22.105 -16.688  0.00  0.00    -0.477 OA
ATOM     15  H   UNL     1      26.080 -22.889 -17.201  0.00  0.00    +0.295 HD
ENDBRANCH  13  14
ENDBRANCH  10  13
ENDBRANCH   1   5
BRANCH   1  16
ATOM     16  N   UNL     1      35.458 -23.665 -14.855  0.00  0.00    -0.240 NA
ATOM     17  N   UNL     1      36.174 -25.647 -14.156  0.00  0.00    -0.251 NA
ATOM     18  C   UNL     1      36.502 -23.409 -14.012  0.00  0.00    +0.124 C 
ATOM     19  C   UNL     1      35.297 -25.021 -14.910  0.00  0.00    +0.201 C 
ATOM     20  C   UNL     1      36.927 -24.648 -13.593  0.00  0.00    +0.143 C 
BRANCH  20  24
ATOM     21  F   UNL     1      39.104 -25.556 -13.289  0.00  0.00    -0.165 F 
ATOM     22  F   UNL     1      38.552 -23.883 -12.013  0.00  0.00    -0.165 F 
ATOM     23  F   UNL     1      37.687 -25.842 -11.664  0.00  0.00    -0.165 F 
ATOM     24  C   UNL     1      38.027 -24.970 -12.671  0.00  0.00    +0.432 C 
ENDBRANCH  20  24
ENDBRANCH   1  16
BRANCH   1  25
ATOM     25  C   UNL     1      34.609 -22.869 -17.121  0.00  0.00    +0.025 C 
BRANCH  25  26
ATOM     26  C   UNL     1      34.656 -21.583 -17.929  0.00  0.00    +0.002 C 
ATOM     27  C   UNL     1      33.724 -21.596 -19.135  0.00  0.00    +0.000 C 
ATOM     28  C   UNL     1      36.015 -21.326 -18.571  0.00  0.00    +0.000 C 
ATOM     29  C   UNL     1      35.722 -20.298 -19.660  0.00  0.00    +0.000 C 
ATOM     30  C   UNL     1      34.244 -20.464 -20.015  0.00  0.00    +0.000 C 
ENDBRANCH  25  26
ENDBRANCH   1  25
TORSDOF 7
ENDMDL
MODEL 6
REMARK VINA RESULT:      -9.9      3.469      5.348
REMARK  Name = 46181428
REMARK  7 active torsions:
REMARK  status: ('A' for Active; 'I' for Inactive)
REMARK    1  A    between atoms: C_1  and  C_5
REMARK    2  A    between atoms: C_1  and  N_16
REMARK    3  A    between atoms: C_1  and  C_25
REMARK    4  A    between atoms: C_10  and  C_13
REMARK    5  A    between atoms: C_13  and  O_14
REMARK    6  A    between atoms: C_20  and  C_24
REMARK    7  A    between atoms: C_25  and  C_26
REMARK                            x       y       z     vdW  Elec       q    Type
REMARK                         _______ _______ _______ _____ _____    ______ ____
ROOT
ATOM      1  C   UNL     1      33.428 -23.076 -15.746  0.00  0.00    +0.137 C 
ENDROOT
BRANCH   1   5
ATOM      2  O   UNL     1      32.052 -22.261 -17.558  0.00  0.00    -0.273 OA
ATOM      3  N   UNL     1      34.345 -21.763 -17.561  0.00  0.00    -0.268 N 
ATOM      4  N   UNL     1      35.738 -20.557 -19.065  0.00  0.00    -0.229 NA
ATOM      5  C   UNL     1      33.172 -22.320 -17.058  0.00  0.00    +0.242 C 
ATOM      6  C   UNL     1      34.505 -21.013 -18.750  0.00  0.00    +0.134 C 
ATOM      7  C   UNL     1      33.377 -20.794 -19.523  0.00  0.00    +0.035 C 
ATOM      8  C   UNL     1      33.523 -20.059 -20.695  0.00  0.00    +0.011 C 
ATOM      9  C   UNL     1      35.841 -19.847 -20.211  0.00  0.00    +0.107 C 
ATOM     10  C   UNL     1      34.776 -19.573 -21.052  0.00  0.00    +0.095 C 
ATOM     11  H   UNL     1      35.159 -21.909 -17.026  0.00  0.00    +0.156 HD
BRANCH  10  13
ATOM     12  O   UNL     1      34.246 -18.871 -23.277  0.00  0.00    -0.245 OA
ATOM     13  C   UNL     1      34.962 -18.805 -22.271  0.00  0.00    +0.340 C 
BRANCH  13  14
ATOM     14  O   UNL     1      36.038 -17.973 -22.205  0.00  0.00    -0.477 OA
ATOM     15  H   UNL     1      36.669 -17.967 -22.897  0.00  0.00    +0.295 HD
ENDBRANCH  13  14
ENDBRANCH  10  13
ENDBRANCH   1   5
BRANCH   1  16
ATOM     16  N   UNL     1      32.115 -23.564 -15.155  0.00  0.00    -0.240 NA
ATOM     17  N   UNL     1      30.691 -24.475 -13.715  0.00  0.00    -0.251 NA
ATOM     18  C   UNL     1      30.883 -23.477 -15.740  0.00  0.00    +0.124 C 
ATOM     19  C   UNL     1      31.950 -24.170 -13.941  0.00  0.00    +0.201 C 
ATOM     20  C   UNL     1      30.021 -24.046 -14.833  0.00  0.00    +0.143 C 
BRANCH  20  24
ATOM     21  F   UNL     1      28.050 -25.110 -14.035  0.00  0.00    -0.165 F 
ATOM     22  F   UNL     1      27.839 -23.069 -14.758  0.00  0.00    -0.165 F 
ATOM     23  F   UNL     1      28.143 -24.690 -16.167  0.00  0.00    -0.165 F 
ATOM     24  C   UNL     1      28.566 -24.221 -14.946  0.00  0.00    +0.432 C 
ENDBRANCH  20  24
ENDBRANCH   1  16
BRANCH   1  25
ATOM     25  C   UNL     1      34.441 -24.222 -15.955  0.00  0.00    +0.025 C 
BRANCH  25  26
ATOM     26  C   UNL     1      35.453 -24.341 -14.828  0.00  0.00    +0.002 C 
ATOM     27  C   UNL     1      36.647 -23.406 -14.990  0.00  0.00    +0.000 C 
ATOM     28  C   UNL     1      36.119 -25.711 -14.760  0.00  0.00    +0.000 C 
ATOM     29  C   UNL     1      37.367 -25.475 -13.914  0.00  0.00    +0.000 C 
ATOM     30  C   UNL     1      37.700 -23.988 -14.053  0.00  0.00    +0.000 C 
ENDBRANCH  25  26
ENDBRANCH   1  25
TORSDOF 7
ENDMDL
MODEL 7
REMARK VINA RESULT:      -9.8      3.122      5.157
REMARK  Name = 46181428
REMARK  7 active torsions:
REMARK  status: ('A' for Active; 'I' for Inactive)
REMARK    1  A    between atoms: C_1  and  C_5
REMARK    2  A    between atoms: C_1  and  N_16
REMARK    3  A    between atoms: C_1  and  C_25
REMARK    4  A    between atoms: C_10  and  C_13
REMARK    5  A    between atoms: C_13  and  O_14
REMARK    6  A    between atoms: C_20  and  C_24
REMARK    7  A    between atoms: C_25  and  C_26
REMARK                            x       y       z     vdW  Elec       q    Type
REMARK                         _______ _______ _______ _____ _____    ______ ____
ROOT
ATOM      1  C   UNL     1      34.685 -23.376 -15.205  0.00  0.00    +0.137 C 
ENDROOT
BRANCH   1   5
ATOM      2  O   UNL     1      33.095 -22.999 -16.986  0.00  0.00    -0.273 OA
ATOM      3  N   UNL     1      35.178 -21.921 -17.076  0.00  0.00    -0.268 N 
ATOM      4  N   UNL     1      36.167 -20.438 -18.651  0.00  0.00    -0.229 NA
ATOM      5  C   UNL     1      34.205 -22.750 -16.523  0.00  0.00    +0.242 C 
ATOM      6  C   UNL     1      35.104 -21.190 -18.285  0.00  0.00    +0.134 C 
ATOM      7  C   UNL     1      33.937 -21.294 -19.024  0.00  0.00    +0.035 C 
ATOM      8  C   UNL     1      33.855 -20.581 -20.215  0.00  0.00    +0.011 C 
ATOM      9  C   UNL     1      36.049 -19.758 -19.814  0.00  0.00    +0.107 C 
ATOM     10  C   UNL     1      34.927 -19.796 -20.624  0.00  0.00    +0.095 C 
ATOM     11  H   UNL     1      36.016 -21.835 -16.566  0.00  0.00    +0.156 HD
BRANCH  10  13
ATOM     12  O   UNL     1      35.821 -18.431 -22.374  0.00  0.00    -0.245 OA
ATOM     13  C   UNL     1      34.873 -19.041 -21.864  0.00  0.00    +0.340 C 
BRANCH  13  14
ATOM     14  O   UNL     1      33.638 -19.064 -22.438  0.00  0.00    -0.477 OA
ATOM     15  H   UNL     1      33.553 -19.014 -23.369  0.00  0.00    +0.295 HD
ENDBRANCH  13  14
ENDBRANCH  10  13
ENDBRANCH   1   5
BRANCH   1  16
ATOM     16  N   UNL     1      33.501 -23.658 -14.295  0.00  0.00    -0.240 NA
ATOM     17  N   UNL     1      32.353 -24.064 -12.438  0.00  0.00    -0.251 NA
ATOM     18  C   UNL     1      32.196 -23.783 -14.681  0.00  0.00    +0.124 C 
ATOM     19  C   UNL     1      33.547 -23.836 -12.940  0.00  0.00    +0.201 C 
ATOM     20  C   UNL     1      31.508 -24.034 -13.517  0.00  0.00    +0.143 C 
BRANCH  20  24
ATOM     21  F   UNL     1      29.291 -23.263 -13.897  0.00  0.00    -0.165 F 
ATOM     22  F   UNL     1      29.594 -25.416 -13.905  0.00  0.00    -0.165 F 
ATOM     23  F   UNL     1      29.653 -24.323 -12.033  0.00  0.00    -0.165 F 
ATOM     24  C   UNL     1      30.064 -24.253 -13.344  0.00  0.00    +0.432 C 
ENDBRANCH  20  24
ENDBRANCH   1  16
BRANCH   1  25
ATOM     25  C   UNL     1      35.540 -24.634 -15.468  0.00  0.00    +0.025 C 
BRANCH  25  26
ATOM     26  C   UNL     1      36.769 -24.720 -14.579  0.00  0.00    +0.002 C 
ATOM     27  C   UNL     1      36.676 -25.821 -13.528  0.00  0.00    +0.000 C 
ATOM     28  C   UNL     1      36.983 -23.474 -13.727  0.00  0.00    +0.000 C 
ATOM     29  C   UNL     1      37.936 -23.935 -12.628  0.00  0.00    +0.000 C 
ATOM     30  C   UNL     1      37.747 -25.449 -12.509  0.00  0.00    +0.000 C 
ENDBRANCH  25  26
ENDBRANCH   1  25
TORSDOF 7
ENDMDL
MODEL 8
REMARK VINA RESULT:      -9.8     10.753     14.359
REMARK  Name = 46181428
REMARK  7 active torsions:
REMARK  status: ('A' for Active; 'I' for Inactive)
REMARK    1  A    between atoms: C_1  and  C_5
REMARK    2  A    between atoms: C_1  and  N_16
REMARK    3  A    between atoms: C_1  and  C_25
REMARK    4  A    between atoms: C_10  and  C_13
REMARK    5  A    between atoms: C_13  and  O_14
REMARK    6  A    between atoms: C_20  and  C_24
REMARK    7  A    between atoms: C_25  and  C_26
REMARK                            x       y       z     vdW  Elec       q    Type
REMARK                         _______ _______ _______ _____ _____    ______ ____
ROOT
ATOM      1  C   UNL     1      32.823 -10.204 -22.519  0.00  0.00    +0.137 C 
ENDROOT
BRANCH   1   5
ATOM      2  O   UNL     1      33.112 -11.780 -24.329  0.00  0.00    -0.273 OA
ATOM      3  N   UNL     1      33.486 -12.499 -22.127  0.00  0.00    -0.268 N 
ATOM      4  N   UNL     1      34.119 -14.593 -21.193  0.00  0.00    -0.229 NA
ATOM      5  C   UNL     1      33.158 -11.578 -23.119  0.00  0.00    +0.242 C 
ATOM      6  C   UNL     1      33.833 -13.860 -22.293  0.00  0.00    +0.134 C 
ATOM      7  C   UNL     1      33.857 -14.360 -23.585  0.00  0.00    +0.035 C 
ATOM      8  C   UNL     1      34.196 -15.698 -23.759  0.00  0.00    +0.011 C 
ATOM      9  C   UNL     1      34.444 -15.889 -21.402  0.00  0.00    +0.107 C 
ATOM     10  C   UNL     1      34.497 -16.483 -22.652  0.00  0.00    +0.095 C 
ATOM     11  H   UNL     1      33.473 -12.163 -21.201  0.00  0.00    +0.156 HD
BRANCH  10  13
ATOM     12  O   UNL     1      34.101 -18.773 -23.218  0.00  0.00    -0.245 OA
ATOM     13  C   UNL     1      34.852 -17.884 -22.800  0.00  0.00    +0.340 C 
BRANCH  13  14
ATOM     14  O   UNL     1      36.135 -18.141 -22.424  0.00  0.00    -0.477 OA
ATOM     15  H   UNL     1      36.785 -17.470 -22.487  0.00  0.00    +0.295 HD
ENDBRANCH  13  14
ENDBRANCH  10  13
ENDBRANCH   1   5
BRANCH   1  16
ATOM     16  N   UNL     1      33.510  -9.103 -23.311  0.00  0.00    -0.240 NA
ATOM     17  N   UNL     1      35.073  -8.048 -24.484  0.00  0.00    -0.251 NA
ATOM     18  C   UNL     1      32.992  -7.874 -23.606  0.00  0.00    +0.124 C 
ATOM     19  C   UNL     1      34.762  -9.162 -23.858  0.00  0.00    +0.201 C 
ATOM     20  C   UNL     1      33.975  -7.241 -24.330  0.00  0.00    +0.143 C 
BRANCH  20  24
ATOM     21  F   UNL     1      34.819  -5.730 -25.959  0.00  0.00    -0.165 F 
ATOM     22  F   UNL     1      32.730  -5.499 -25.397  0.00  0.00    -0.165 F 
ATOM     23  F   UNL     1      34.294  -4.890 -24.022  0.00  0.00    -0.165 F 
ATOM     24  C   UNL     1      33.953  -5.888 -24.905  0.00  0.00    +0.432 C 
ENDBRANCH  20  24
ENDBRANCH   1  16
BRANCH   1  25
ATOM     25  C   UNL     1      31.296  -9.998 -22.425  0.00  0.00    +0.025 C 
BRANCH  25  26
ATOM     26  C   UNL     1      30.829  -9.609 -21.033  0.00  0.00    +0.002 C 
ATOM     27  C   UNL     1      31.312  -8.229 -20.600  0.00  0.00    +0.000 C 
ATOM     28  C   UNL     1      31.390 -10.508 -19.937  0.00  0.00    +0.000 C 
ATOM     29  C   UNL     1      31.194  -9.701 -18.657  0.00  0.00    +0.000 C 
ATOM     30  C   UNL     1      31.131  -8.234 -19.086  0.00  0.00    +0.000 C 
ENDBRANCH  25  26
ENDBRANCH   1  25
TORSDOF 7
ENDMDL
MODEL 9
REMARK VINA RESULT:      -9.7     11.399     15.105
REMARK  Name = 46181428
REMARK  7 active torsions:
REMARK  status: ('A' for Active; 'I' for Inactive)
REMARK    1  A    between atoms: C_1  and  C_5
REMARK    2  A    between atoms: C_1  and  N_16
REMARK    3  A    between atoms: C_1  and  C_25
REMARK    4  A    between atoms: C_10  and  C_13
REMARK    5  A    between atoms: C_13  and  O_14
REMARK    6  A    between atoms: C_20  and  C_24
REMARK    7  A    between atoms: C_25  and  C_26
REMARK                            x       y       z     vdW  Elec       q    Type
REMARK                         _______ _______ _______ _____ _____    ______ ____
ROOT
ATOM      1  C   UNL     1      31.052  -9.676 -21.971  0.00  0.00    +0.137 C 
ENDROOT
BRANCH   1   5
ATOM      2  O   UNL     1      31.502 -11.229 -20.175  0.00  0.00    -0.273 OA
ATOM      3  N   UNL     1      32.298 -11.722 -22.327  0.00  0.00    -0.268 N 
ATOM      4  N   UNL     1      33.558 -13.535 -23.212  0.00  0.00    -0.229 NA
ATOM      5  C   UNL     1      31.632 -10.964 -21.366  0.00  0.00    +0.242 C 
ATOM      6  C   UNL     1      32.968 -12.954 -22.142  0.00  0.00    +0.134 C 
ATOM      7  C   UNL     1      32.977 -13.491 -20.865  0.00  0.00    +0.035 C 
ATOM      8  C   UNL     1      33.634 -14.702 -20.673  0.00  0.00    +0.011 C 
ATOM      9  C   UNL     1      34.186 -14.711 -22.986  0.00  0.00    +0.107 C 
ATOM     10  C   UNL     1      34.252 -15.329 -21.749  0.00  0.00    +0.095 C 
ATOM     11  H   UNL     1      32.303 -11.356 -23.241  0.00  0.00    +0.156 HD
BRANCH  10  13
ATOM     12  O   UNL     1      35.180 -17.146 -20.498  0.00  0.00    -0.245 OA
ATOM     13  C   UNL     1      34.949 -16.593 -21.580  0.00  0.00    +0.340 C 
BRANCH  13  14
ATOM     14  O   UNL     1      35.341 -17.136 -22.766  0.00  0.00    -0.477 OA
ATOM     15  H   UNL     1      35.965 -17.835 -22.778  0.00  0.00    +0.295 HD
ENDBRANCH  13  14
ENDBRANCH  10  13
ENDBRANCH   1   5
BRANCH   1  16
ATOM     16  N   UNL     1      31.272  -8.507 -21.026  0.00  0.00    -0.240 NA
ATOM     17  N   UNL     1      31.682  -7.399 -19.145  0.00  0.00    -0.251 NA
ATOM     18  C   UNL     1      31.234  -7.182 -21.356  0.00  0.00    +0.124 C 
ATOM     19  C   UNL     1      31.544  -8.588 -19.689  0.00  0.00    +0.201 C 
ATOM     20  C   UNL     1      31.490  -6.518 -20.179  0.00  0.00    +0.143 C 
BRANCH  20  24
ATOM     21  F   UNL     1      32.311  -4.728 -18.847  0.00  0.00    -0.165 F 
ATOM     22  F   UNL     1      32.135  -4.359 -20.984  0.00  0.00    -0.165 F 
ATOM     23  F   UNL     1      30.352  -4.457 -19.752  0.00  0.00    -0.165 F 
ATOM     24  C   UNL     1      31.568  -5.067 -19.951  0.00  0.00    +0.432 C 
ENDBRANCH  20  24
ENDBRANCH   1  16
BRANCH   1  25
ATOM     25  C   UNL     1      31.632  -9.415 -23.378  0.00  0.00    +0.025 C 
BRANCH  25  26
ATOM     26  C   UNL     1      32.181  -8.009 -23.548  0.00  0.00    +0.002 C 
ATOM     27  C   UNL     1      31.679  -7.316 -24.811  0.00  0.00    +0.000 C 
ATOM     28  C   UNL     1      33.694  -7.972 -23.737  0.00  0.00    +0.000 C 
ATOM     29  C   UNL     1      33.959  -6.593 -24.333  0.00  0.00    +0.000 C 
ATOM     30  C   UNL     1      32.658  -6.165 -25.014  0.00  0.00    +0.000 C 
ENDBRANCH  25  26
ENDBRANCH   1  25
TORSDOF 7
ENDMDL
