MODEL 1
REMARK VINA RESULT:     -11.7      0.000      0.000
REMARK  Name = 57112
REMARK  10 active torsions:
REMARK  status: ('A' for Active; 'I' for Inactive)
REMARK    1  A    between atoms: C_1  and  O_2
REMARK    2  A    between atoms: C_1  and  C_4
REMARK    3  A    between atoms: C_1  and  C_16
REMARK    4  A    between atoms: C_4  and  C_5
REMARK    5  A    between atoms: C_5  and  C_7
REMARK    6  A    between atoms: C_6  and  C_12
REMARK    7  A    between atoms: C_16  and  O_17
REMARK    8  A    between atoms: O_17  and  C_18
REMARK    9  A    between atoms: C_23  and  C_25
REMARK   10  A    between atoms: C_25  and  O_26
REMARK                            x       y       z     vdW  Elec       q    Type
REMARK                         _______ _______ _______ _____ _____    ______ ____
ROOT
ATOM      1  C   UNL     1      32.178 -22.578 -15.773  0.00  0.00    +0.154 C 
ENDROOT
BRANCH   1   2
ATOM      2  O   UNL     1      30.979 -23.246 -15.383  0.00  0.00    -0.381 OA
ATOM      3  H   UNL     1      30.466 -23.478 -16.174  0.00  0.00    +0.210 HD
ENDBRANCH   1   2
BRANCH   1   4
ATOM      4  C   UNL     1      32.132 -22.319 -17.284  0.00  0.00    +0.038 C 
BRANCH   4   5
ATOM      5  C   UNL     1      33.453 -22.613 -18.009  0.00  0.00    +0.029 C 
BRANCH   5   7
ATOM      6  C   UNL     1      34.696 -19.491 -20.662  0.00  0.00    -0.023 C 
ATOM      7  C   UNL     1      33.891 -21.513 -18.944  0.00  0.00    -0.022 C 
ATOM      8  C   UNL     1      33.338 -19.759 -20.488  0.00  0.00    -0.005 C 
ATOM      9  C   UNL     1      35.649 -20.241 -19.972  0.00  0.00    -0.005 C 
ATOM     10  C   UNL     1      32.933 -20.776 -19.624  0.00  0.00    -0.005 C 
ATOM     11  C   UNL     1      35.244 -21.258 -19.108  0.00  0.00    -0.005 C 
BRANCH   6  12
ATOM     12  C   UNL     1      35.129 -18.404 -21.586  0.00  0.00    +0.019 C 
ATOM     13  C   UNL     1      34.493 -18.575 -23.000  0.00  0.00    +0.004 C 
ATOM     14  C   UNL     1      36.672 -18.307 -21.833  0.00  0.00    +0.004 C 
ATOM     15  C   UNL     1      34.706 -17.002 -21.048  0.00  0.00    +0.004 C 
ENDBRANCH   6  12
ENDBRANCH   5   7
ENDBRANCH   4   5
ENDBRANCH   1   4
BRANCH   1  16
ATOM     16  C   UNL     1      33.370 -23.455 -15.403  0.00  0.00    +0.234 C 
BRANCH  16  17
ATOM     17  O   UNL     1      34.348 -22.652 -14.750  0.00  0.00    -0.473 OA
BRANCH  17  18
ATOM     18  C   UNL     1      35.636 -23.117 -14.765  0.00  0.00    +0.139 C 
ATOM     19  C   UNL     1      35.972 -24.242 -14.021  0.00  0.00    +0.037 C 
ATOM     20  C   UNL     1      36.597 -22.456 -15.523  0.00  0.00    +0.037 C 
ATOM     21  C   UNL     1      37.284 -24.714 -14.035  0.00  0.00    +0.010 C 
ATOM     22  C   UNL     1      37.910 -22.928 -15.537  0.00  0.00    +0.010 C 
ATOM     23  C   UNL     1      38.253 -24.056 -14.794  0.00  0.00    +0.076 C 
BRANCH  23  25
ATOM     24  O   UNL     1      40.521 -24.183 -14.043  0.00  0.00    -0.245 OA
ATOM     25  C   UNL     1      39.623 -24.548 -14.807  0.00  0.00    +0.338 C 
BRANCH  25  26
ATOM     26  O   UNL     1      39.830 -25.483 -15.775  0.00  0.00    -0.477 OA
ATOM     27  H   UNL     1      39.123 -25.746 -16.331  0.00  0.00    +0.295 HD
ENDBRANCH  25  26
ENDBRANCH  23  25
ENDBRANCH  17  18
ENDBRANCH  16  17
ENDBRANCH   1  16
TORSDOF 10
ENDMDL
MODEL 2
REMARK VINA RESULT:     -11.4      2.584      6.219
REMARK  Name = 57112
REMARK  10 active torsions:
REMARK  status: ('A' for Active; 'I' for Inactive)
REMARK    1  A    between atoms: C_1  and  O_2
REMARK    2  A    between atoms: C_1  and  C_4
REMARK    3  A    between atoms: C_1  and  C_16
REMARK    4  A    between atoms: C_4  and  C_5
REMARK    5  A    between atoms: C_5  and  C_7
REMARK    6  A    between atoms: C_6  and  C_12
REMARK    7  A    between atoms: C_16  and  O_17
REMARK    8  A    between atoms: O_17  and  C_18
REMARK    9  A    between atoms: C_23  and  C_25
REMARK   10  A    between atoms: C_25  and  O_26
REMARK                            x       y       z     vdW  Elec       q    Type
REMARK                         _______ _______ _______ _____ _____    ______ ____
ROOT
ATOM      1  C   UNL     1      33.932 -23.673 -15.575  0.00  0.00    +0.154 C 
ENDROOT
BRANCH   1   2
ATOM      2  O   UNL     1      35.171 -24.332 -15.318  0.00  0.00    -0.381 OA
ATOM      3  H   UNL     1      35.199 -24.617 -14.390  0.00  0.00    +0.210 HD
ENDBRANCH   1   2
BRANCH   1   4
ATOM      4  C   UNL     1      34.189 -22.476 -16.498  0.00  0.00    +0.038 C 
BRANCH   4   5
ATOM      5  C   UNL     1      33.486 -22.573 -17.860  0.00  0.00    +0.029 C 
BRANCH   5   7
ATOM      6  C   UNL     1      34.658 -19.525 -20.629  0.00  0.00    -0.023 C 
ATOM      7  C   UNL     1      33.899 -21.499 -18.835  0.00  0.00    -0.022 C 
ATOM      8  C   UNL     1      35.628 -20.247 -19.934  0.00  0.00    -0.005 C 
ATOM      9  C   UNL     1      33.305 -19.797 -20.421  0.00  0.00    -0.005 C 
ATOM     10  C   UNL     1      35.247 -21.240 -19.032  0.00  0.00    -0.005 C 
ATOM     11  C   UNL     1      32.923 -20.790 -19.518  0.00  0.00    -0.005 C 
BRANCH   6  12
ATOM     12  C   UNL     1      35.065 -18.463 -21.593  0.00  0.00    +0.019 C 
ATOM     13  C   UNL     1      36.612 -18.443 -21.793  0.00  0.00    +0.004 C 
ATOM     14  C   UNL     1      34.678 -17.002 -21.187  0.00  0.00    +0.004 C 
ATOM     15  C   UNL     1      34.414 -18.691 -22.993  0.00  0.00    +0.004 C 
ENDBRANCH   6  12
ENDBRANCH   5   7
ENDBRANCH   4   5
ENDBRANCH   1   4
BRANCH   1  16
ATOM     16  C   UNL     1      33.332 -23.223 -14.247  0.00  0.00    +0.234 C 
BRANCH  16  17
ATOM     17  O   UNL     1      32.225 -24.062 -13.932  0.00  0.00    -0.473 OA
BRANCH  17  18
ATOM     18  C   UNL     1      31.036 -23.767 -14.543  0.00  0.00    +0.139 C 
ATOM     19  C   UNL     1      30.845 -22.512 -15.111  0.00  0.00    +0.037 C 
ATOM     20  C   UNL     1      30.028 -24.724 -14.587  0.00  0.00    +0.037 C 
ATOM     21  C   UNL     1      29.633 -22.210 -15.731  0.00  0.00    +0.010 C 
ATOM     22  C   UNL     1      28.815 -24.422 -15.207  0.00  0.00    +0.010 C 
ATOM     23  C   UNL     1      28.618 -23.166 -15.779  0.00  0.00    +0.076 C 
BRANCH  23  25
ATOM     24  O   UNL     1      27.085 -23.057 -17.612  0.00  0.00    -0.245 OA
ATOM     25  C   UNL     1      27.353 -22.851 -16.425  0.00  0.00    +0.338 C 
BRANCH  25  26
ATOM     26  O   UNL     1      26.458 -22.286 -15.568  0.00  0.00    -0.477 OA
ATOM     27  H   UNL     1      25.824 -21.676 -15.888  0.00  0.00    +0.295 HD
ENDBRANCH  25  26
ENDBRANCH  23  25
ENDBRANCH  17  18
ENDBRANCH  16  17
ENDBRANCH   1  16
TORSDOF 10
ENDMDL
MODEL 3
REMARK VINA RESULT:     -11.1      5.134     10.080
REMARK  Name = 57112
REMARK  10 active torsions:
REMARK  status: ('A' for Active; 'I' for Inactive)
REMARK    1  A    between atoms: C_1  and  O_2
REMARK    2  A    between atoms: C_1  and  C_4
REMARK    3  A    between atoms: C_1  and  C_16
REMARK    4  A    between atoms: C_4  and  C_5
REMARK    5  A    between atoms: C_5  and  C_7
REMARK    6  A    between atoms: C_6  and  C_12
REMARK    7  A    between atoms: C_16  and  O_17
REMARK    8  A    between atoms: O_17  and  C_18
REMARK    9  A    between atoms: C_23  and  C_25
REMARK   10  A    between atoms: C_25  and  O_26
REMARK                            x       y       z     vdW  Elec       q    Type
REMARK                         _______ _______ _______ _____ _____    ______ ____
ROOT
ATOM      1  C   UNL     1      36.207 -18.625 -20.634  0.00  0.00    +0.154 C 
ENDROOT
BRANCH   1   2
ATOM      2  O   UNL     1      37.247 -18.382 -21.581  0.00  0.00    -0.381 OA
ATOM      3  H   UNL     1      37.221 -19.064 -22.271  0.00  0.00    +0.210 HD
ENDBRANCH   1   2
BRANCH   1   4
ATOM      4  C   UNL     1      36.048 -20.139 -20.450  0.00  0.00    +0.038 C 
BRANCH   4   5
ATOM      5  C   UNL     1      34.653 -20.568 -19.971  0.00  0.00    +0.029 C 
BRANCH   5   7
ATOM      6  C   UNL     1      34.675 -22.622 -16.215  0.00  0.00    -0.023 C 
ATOM      7  C   UNL     1      34.661 -21.292 -18.648  0.00  0.00    -0.022 C 
ATOM      8  C   UNL     1      35.808 -21.925 -16.635  0.00  0.00    -0.005 C 
ATOM      9  C   UNL     1      33.535 -22.650 -17.019  0.00  0.00    -0.005 C 
ATOM     10  C   UNL     1      35.801 -21.256 -17.859  0.00  0.00    -0.005 C 
ATOM     11  C   UNL     1      33.529 -21.981 -18.243  0.00  0.00    -0.005 C 
BRANCH   6  12
ATOM     12  C   UNL     1      34.683 -23.338 -14.907  0.00  0.00    +0.019 C 
ATOM     13  C   UNL     1      35.650 -22.654 -13.892  0.00  0.00    +0.004 C 
ATOM     14  C   UNL     1      35.129 -24.837 -14.964  0.00  0.00    +0.004 C 
ATOM     15  C   UNL     1      33.261 -23.353 -14.263  0.00  0.00    +0.004 C 
ENDBRANCH   6  12
ENDBRANCH   5   7
ENDBRANCH   4   5
ENDBRANCH   1   4
BRANCH   1  16
ATOM     16  C   UNL     1      34.917 -17.997 -21.152  0.00  0.00    +0.234 C 
BRANCH  16  17
ATOM     17  O   UNL     1      34.740 -16.728 -20.531  0.00  0.00    -0.473 OA
BRANCH  17  18
ATOM     18  C   UNL     1      34.385 -15.687 -21.347  0.00  0.00    +0.139 C 
ATOM     19  C   UNL     1      33.862 -14.524 -20.793  0.00  0.00    +0.037 C 
ATOM     20  C   UNL     1      34.550 -15.804 -22.723  0.00  0.00    +0.037 C 
ATOM     21  C   UNL     1      33.498 -13.465 -21.624  0.00  0.00    +0.010 C 
ATOM     22  C   UNL     1      34.186 -14.745 -23.555  0.00  0.00    +0.010 C 
ATOM     23  C   UNL     1      33.661 -13.576 -23.006  0.00  0.00    +0.076 C 
BRANCH  23  25
ATOM     24  O   UNL     1      32.666 -12.576 -24.939  0.00  0.00    -0.245 OA
ATOM     25  C   UNL     1      33.280 -12.471 -23.873  0.00  0.00    +0.338 C 
BRANCH  25  26
ATOM     26  O   UNL     1      33.679 -11.265 -23.383  0.00  0.00    -0.477 OA
ATOM     27  H   UNL     1      34.584 -11.024 -23.408  0.00  0.00    +0.295 HD
ENDBRANCH  25  26
ENDBRANCH  23  25
ENDBRANCH  17  18
ENDBRANCH  16  17
ENDBRANCH   1  16
TORSDOF 10
ENDMDL
MODEL 4
REMARK VINA RESULT:     -11.1      5.130     10.096
REMARK  Name = 57112
REMARK  10 active torsions:
REMARK  status: ('A' for Active; 'I' for Inactive)
REMARK    1  A    between atoms: C_1  and  O_2
REMARK    2  A    between atoms: C_1  and  C_4
REMARK    3  A    between atoms: C_1  and  C_16
REMARK    4  A    between atoms: C_4  and  C_5
REMARK    5  A    between atoms: C_5  and  C_7
REMARK    6  A    between atoms: C_6  and  C_12
REMARK    7  A    between atoms: C_16  and  O_17
REMARK    8  A    between atoms: O_17  and  C_18
REMARK    9  A    between atoms: C_23  and  C_25
REMARK   10  A    between atoms: C_25  and  O_26
REMARK                            x       y       z     vdW  Elec       q    Type
REMARK                         _______ _______ _______ _____ _____    ______ ____
ROOT
ATOM      1  C   UNL     1      36.193 -18.583 -20.559  0.00  0.00    +0.154 C 
ENDROOT
BRANCH   1   2
ATOM      2  O   UNL     1      37.264 -18.277 -21.451  0.00  0.00    -0.381 OA
ATOM      3  H   UNL     1      37.665 -17.430 -21.197  0.00  0.00    +0.210 HD
ENDBRANCH   1   2
BRANCH   1   4
ATOM      4  C   UNL     1      36.054 -20.107 -20.456  0.00  0.00    +0.038 C 
BRANCH   4   5
ATOM      5  C   UNL     1      34.671 -20.578 -19.983  0.00  0.00    +0.029 C 
BRANCH   5   7
ATOM      6  C   UNL     1      34.736 -22.607 -16.213  0.00  0.00    -0.023 C 
ATOM      7  C   UNL     1      34.694 -21.293 -18.655  0.00  0.00    -0.022 C 
ATOM      8  C   UNL     1      35.871 -21.933 -16.662  0.00  0.00    -0.005 C 
ATOM      9  C   UNL     1      33.579 -22.621 -16.994  0.00  0.00    -0.005 C 
ATOM     10  C   UNL     1      35.851 -21.272 -17.890  0.00  0.00    -0.005 C 
ATOM     11  C   UNL     1      33.558 -21.960 -18.222  0.00  0.00    -0.005 C 
BRANCH   6  12
ATOM     12  C   UNL     1      34.758 -23.315 -14.901  0.00  0.00    +0.019 C 
ATOM     13  C   UNL     1      35.730 -22.620 -13.899  0.00  0.00    +0.004 C 
ATOM     14  C   UNL     1      35.212 -24.812 -14.952  0.00  0.00    +0.004 C 
ATOM     15  C   UNL     1      33.343 -23.333 -14.245  0.00  0.00    +0.004 C 
ENDBRANCH   6  12
ENDBRANCH   5   7
ENDBRANCH   4   5
ENDBRANCH   1   4
BRANCH   1  16
ATOM     16  C   UNL     1      34.913 -17.950 -21.096  0.00  0.00    +0.234 C 
BRANCH  16  17
ATOM     17  O   UNL     1      34.768 -16.652 -20.531  0.00  0.00    -0.473 OA
BRANCH  17  18
ATOM     18  C   UNL     1      34.332 -15.661 -21.369  0.00  0.00    +0.139 C 
ATOM     19  C   UNL     1      34.388 -15.847 -22.746  0.00  0.00    +0.037 C 
ATOM     20  C   UNL     1      33.838 -14.475 -20.835  0.00  0.00    +0.037 C 
ATOM     21  C   UNL     1      33.945 -14.837 -23.599  0.00  0.00    +0.010 C 
ATOM     22  C   UNL     1      33.396 -13.464 -21.689  0.00  0.00    +0.010 C 
ATOM     23  C   UNL     1      33.449 -13.645 -23.070  0.00  0.00    +0.076 C 
BRANCH  23  25
ATOM     24  O   UNL     1      33.019 -11.381 -23.714  0.00  0.00    -0.245 OA
ATOM     25  C   UNL     1      32.989 -12.591 -23.961  0.00  0.00    +0.338 C 
BRANCH  25  26
ATOM     26  O   UNL     1      32.503 -13.079 -25.136  0.00  0.00    -0.477 OA
ATOM     27  H   UNL     1      31.875 -12.584 -25.624  0.00  0.00    +0.295 HD
ENDBRANCH  25  26
ENDBRANCH  23  25
ENDBRANCH  17  18
ENDBRANCH  16  17
ENDBRANCH   1  16
TORSDOF 10
ENDMDL
MODEL 5
REMARK VINA RESULT:     -10.7      4.857      9.908
REMARK  Name = 57112
REMARK  10 active torsions:
REMARK  status: ('A' for Active; 'I' for Inactive)
REMARK    1  A    between atoms: C_1  and  O_2
REMARK    2  A    between atoms: C_1  and  C_4
REMARK    3  A    between atoms: C_1  and  C_16
REMARK    4  A    between atoms: C_4  and  C_5
REMARK    5  A    between atoms: C_5  and  C_7
REMARK    6  A    between atoms: C_6  and  C_12
REMARK    7  A    between atoms: C_16  and  O_17
REMARK    8  A    between atoms: O_17  and  C_18
REMARK    9  A    between atoms: C_23  and  C_25
REMARK   10  A    between atoms: C_25  and  O_26
REMARK                            x       y       z     vdW  Elec       q    Type
REMARK                         _______ _______ _______ _____ _____    ______ ____
ROOT
ATOM      1  C   UNL     1      35.015 -19.413 -20.983  0.00  0.00    +0.154 C 
ENDROOT
BRANCH   1   2
ATOM      2  O   UNL     1      33.670 -19.073 -20.647  0.00  0.00    -0.381 OA
ATOM      3  H   UNL     1      33.672 -18.373 -19.974  0.00  0.00    +0.210 HD
ENDBRANCH   1   2
BRANCH   1   4
ATOM      4  C   UNL     1      35.586 -20.322 -19.888  0.00  0.00    +0.038 C 
BRANCH   4   5
ATOM      5  C   UNL     1      34.518 -21.063 -19.070  0.00  0.00    +0.029 C 
BRANCH   5   7
ATOM      6  C   UNL     1      36.010 -22.787 -15.447  0.00  0.00    -0.023 C 
ATOM      7  C   UNL     1      35.043 -21.670 -17.793  0.00  0.00    -0.022 C 
ATOM      8  C   UNL     1      34.681 -22.988 -15.819  0.00  0.00    -0.005 C 
ATOM      9  C   UNL     1      36.853 -22.024 -16.255  0.00  0.00    -0.005 C 
ATOM     10  C   UNL     1      34.195 -22.426 -16.999  0.00  0.00    -0.005 C 
ATOM     11  C   UNL     1      36.366 -21.462 -17.436  0.00  0.00    -0.005 C 
BRANCH   6  12
ATOM     12  C   UNL     1      36.531 -23.387 -14.185  0.00  0.00    +0.019 C 
ATOM     13  C   UNL     1      35.639 -24.577 -13.714  0.00  0.00    +0.004 C 
ATOM     14  C   UNL     1      36.608 -22.414 -12.961  0.00  0.00    +0.004 C 
ATOM     15  C   UNL     1      37.980 -23.932 -14.374  0.00  0.00    +0.004 C 
ENDBRANCH   6  12
ENDBRANCH   5   7
ENDBRANCH   4   5
ENDBRANCH   1   4
BRANCH   1  16
ATOM     16  C   UNL     1      35.828 -18.127 -21.108  0.00  0.00    +0.234 C 
BRANCH  16  17
ATOM     17  O   UNL     1      35.074 -17.050 -20.561  0.00  0.00    -0.473 OA
BRANCH  17  18
ATOM     18  C   UNL     1      34.568 -16.139 -21.449  0.00  0.00    +0.139 C 
ATOM     19  C   UNL     1      34.031 -14.945 -20.981  0.00  0.00    +0.037 C 
ATOM     20  C   UNL     1      34.593 -16.418 -22.811  0.00  0.00    +0.037 C 
ATOM     21  C   UNL     1      33.514 -14.018 -21.885  0.00  0.00    +0.010 C 
ATOM     22  C   UNL     1      34.076 -15.491 -23.716  0.00  0.00    +0.010 C 
ATOM     23  C   UNL     1      33.536 -14.291 -23.253  0.00  0.00    +0.076 C 
BRANCH  23  25
ATOM     24  O   UNL     1      32.981 -12.100 -24.036  0.00  0.00    -0.245 OA
ATOM     25  C   UNL     1      32.995 -13.324 -24.196  0.00  0.00    +0.338 C 
BRANCH  25  26
ATOM     26  O   UNL     1      32.487 -13.915 -25.313  0.00  0.00    -0.477 OA
ATOM     27  H   UNL     1      31.566 -14.072 -25.382  0.00  0.00    +0.295 HD
ENDBRANCH  25  26
ENDBRANCH  23  25
ENDBRANCH  17  18
ENDBRANCH  16  17
ENDBRANCH   1  16
TORSDOF 10
ENDMDL
MODEL 6
REMARK VINA RESULT:     -10.7      4.915      8.339
REMARK  Name = 57112
REMARK  10 active torsions:
REMARK  status: ('A' for Active; 'I' for Inactive)
REMARK    1  A    between atoms: C_1  and  O_2
REMARK    2  A    between atoms: C_1  and  C_4
REMARK    3  A    between atoms: C_1  and  C_16
REMARK    4  A    between atoms: C_4  and  C_5
REMARK    5  A    between atoms: C_5  and  C_7
REMARK    6  A    between atoms: C_6  and  C_12
REMARK    7  A    between atoms: C_16  and  O_17
REMARK    8  A    between atoms: O_17  and  C_18
REMARK    9  A    between atoms: C_23  and  C_25
REMARK   10  A    between atoms: C_25  and  O_26
REMARK                            x       y       z     vdW  Elec       q    Type
REMARK                         _______ _______ _______ _____ _____    ______ ____
ROOT
ATOM      1  C   UNL     1      33.891 -17.196 -23.345  0.00  0.00    +0.154 C 
ENDROOT
BRANCH   1   2
ATOM      2  O   UNL     1      33.664 -17.018 -24.743  0.00  0.00    -0.381 OA
ATOM      3  H   UNL     1      33.370 -16.108 -24.909  0.00  0.00    +0.210 HD
ENDBRANCH   1   2
BRANCH   1   4
ATOM      4  C   UNL     1      34.739 -16.029 -22.827  0.00  0.00    +0.038 C 
BRANCH   4   5
ATOM      5  C   UNL     1      34.305 -15.503 -21.450  0.00  0.00    +0.029 C 
BRANCH   5   7
ATOM      6  C   UNL     1      32.173 -11.794 -21.615  0.00  0.00    -0.023 C 
ATOM      7  C   UNL     1      33.555 -14.196 -21.508  0.00  0.00    -0.022 C 
ATOM      8  C   UNL     1      33.053 -12.139 -22.641  0.00  0.00    -0.005 C 
ATOM      9  C   UNL     1      31.988 -12.659 -20.536  0.00  0.00    -0.005 C 
ATOM     10  C   UNL     1      33.749 -13.347 -22.587  0.00  0.00    -0.005 C 
ATOM     11  C   UNL     1      32.683 -13.867 -20.482  0.00  0.00    -0.005 C 
BRANCH   6  12
ATOM     12  C   UNL     1      31.430 -10.503 -21.672  0.00  0.00    +0.019 C 
ATOM     13  C   UNL     1      31.854  -9.660 -22.914  0.00  0.00    +0.004 C 
ATOM     14  C   UNL     1      31.629  -9.559 -20.440  0.00  0.00    +0.004 C 
ATOM     15  C   UNL     1      29.891 -10.740 -21.768  0.00  0.00    +0.004 C 
ENDBRANCH   6  12
ENDBRANCH   5   7
ENDBRANCH   4   5
ENDBRANCH   1   4
BRANCH   1  16
ATOM     16  C   UNL     1      34.602 -18.529 -23.131  0.00  0.00    +0.234 C 
BRANCH  16  17
ATOM     17  O   UNL     1      35.183 -18.538 -21.831  0.00  0.00    -0.473 OA
BRANCH  17  18
ATOM     18  C   UNL     1      34.654 -19.419 -20.926  0.00  0.00    +0.139 C 
ATOM     19  C   UNL     1      35.501 -20.191 -20.139  0.00  0.00    +0.037 C 
ATOM     20  C   UNL     1      33.274 -19.535 -20.804  0.00  0.00    +0.037 C 
ATOM     21  C   UNL     1      34.963 -21.090 -19.219  0.00  0.00    +0.010 C 
ATOM     22  C   UNL     1      32.734 -20.435 -19.884  0.00  0.00    +0.010 C 
ATOM     23  C   UNL     1      33.579 -21.211 -19.092  0.00  0.00    +0.076 C 
BRANCH  23  25
ATOM     24  O   UNL     1      33.653 -23.014 -17.520  0.00  0.00    -0.245 OA
ATOM     25  C   UNL     1      33.017 -22.151 -18.132  0.00  0.00    +0.338 C 
BRANCH  25  26
ATOM     26  O   UNL     1      31.677 -21.983 -17.965  0.00  0.00    -0.477 OA
ATOM     27  H   UNL     1      31.355 -21.289 -17.425  0.00  0.00    +0.295 HD
ENDBRANCH  25  26
ENDBRANCH  23  25
ENDBRANCH  17  18
ENDBRANCH  16  17
ENDBRANCH   1  16
TORSDOF 10
ENDMDL
MODEL 7
REMARK VINA RESULT:     -10.7      3.989      9.406
REMARK  Name = 57112
REMARK  10 active torsions:
REMARK  status: ('A' for Active; 'I' for Inactive)
REMARK    1  A    between atoms: C_1  and  O_2
REMARK    2  A    between atoms: C_1  and  C_4
REMARK    3  A    between atoms: C_1  and  C_16
REMARK    4  A    between atoms: C_4  and  C_5
REMARK    5  A    between atoms: C_5  and  C_7
REMARK    6  A    between atoms: C_6  and  C_12
REMARK    7  A    between atoms: C_16  and  O_17
REMARK    8  A    between atoms: O_17  and  C_18
REMARK    9  A    between atoms: C_23  and  C_25
REMARK   10  A    between atoms: C_25  and  O_26
REMARK                            x       y       z     vdW  Elec       q    Type
REMARK                         _______ _______ _______ _____ _____    ______ ____
ROOT
ATOM      1  C   UNL     1      34.806 -21.633 -19.382  0.00  0.00    +0.154 C 
ENDROOT
BRANCH   1   2
ATOM      2  O   UNL     1      33.913 -22.398 -18.573  0.00  0.00    -0.381 OA
ATOM      3  H   UNL     1      33.119 -21.873 -18.384  0.00  0.00    +0.210 HD
ENDBRANCH   1   2
BRANCH   1   4
ATOM      4  C   UNL     1      36.056 -21.296 -18.560  0.00  0.00    +0.038 C 
BRANCH   4   5
ATOM      5  C   UNL     1      35.771 -21.005 -17.079  0.00  0.00    +0.029 C 
BRANCH   5   7
ATOM      6  C   UNL     1      37.175 -24.054 -14.421  0.00  0.00    -0.023 C 
ATOM      7  C   UNL     1      36.266 -22.080 -16.143  0.00  0.00    -0.022 C 
ATOM      8  C   UNL     1      38.087 -23.273 -15.131  0.00  0.00    -0.005 C 
ATOM      9  C   UNL     1      35.805 -23.840 -14.577  0.00  0.00    -0.005 C 
ATOM     10  C   UNL     1      37.630 -22.281 -15.998  0.00  0.00    -0.005 C 
ATOM     11  C   UNL     1      35.348 -22.848 -15.444  0.00  0.00    -0.005 C 
BRANCH   6  12
ATOM     12  C   UNL     1      37.663 -25.116 -13.495  0.00  0.00    +0.019 C 
ATOM     13  C   UNL     1      39.216 -25.245 -13.550  0.00  0.00    +0.004 C 
ATOM     14  C   UNL     1      37.115 -26.555 -13.775  0.00  0.00    +0.004 C 
ATOM     15  C   UNL     1      37.270 -24.803 -12.018  0.00  0.00    +0.004 C 
ENDBRANCH   6  12
ENDBRANCH   5   7
ENDBRANCH   4   5
ENDBRANCH   1   4
BRANCH   1  16
ATOM     16  C   UNL     1      34.090 -20.365 -19.836  0.00  0.00    +0.234 C 
BRANCH  16  17
ATOM     17  O   UNL     1      35.062 -19.405 -20.239  0.00  0.00    -0.473 OA
BRANCH  17  18
ATOM     18  C   UNL     1      34.746 -18.625 -21.319  0.00  0.00    +0.139 C 
ATOM     19  C   UNL     1      34.992 -17.257 -21.277  0.00  0.00    +0.037 C 
ATOM     20  C   UNL     1      34.181 -19.208 -22.448  0.00  0.00    +0.037 C 
ATOM     21  C   UNL     1      34.668 -16.462 -22.376  0.00  0.00    +0.010 C 
ATOM     22  C   UNL     1      33.857 -18.413 -23.548  0.00  0.00    +0.010 C 
ATOM     23  C   UNL     1      34.101 -17.041 -23.512  0.00  0.00    +0.076 C 
BRANCH  23  25
ATOM     24  O   UNL     1      34.509 -15.379 -25.184  0.00  0.00    -0.245 OA
ATOM     25  C   UNL     1      33.763 -16.210 -24.658  0.00  0.00    +0.338 C 
BRANCH  25  26
ATOM     26  O   UNL     1      32.501 -16.443 -25.114  0.00  0.00    -0.477 OA
ATOM     27  H   UNL     1      32.300 -17.251 -25.543  0.00  0.00    +0.295 HD
ENDBRANCH  25  26
ENDBRANCH  23  25
ENDBRANCH  17  18
ENDBRANCH  16  17
ENDBRANCH   1  16
TORSDOF 10
ENDMDL
MODEL 8
REMARK VINA RESULT:     -10.7      4.789      8.272
REMARK  Name = 57112
REMARK  10 active torsions:
REMARK  status: ('A' for Active; 'I' for Inactive)
REMARK    1  A    between atoms: C_1  and  O_2
REMARK    2  A    between atoms: C_1  and  C_4
REMARK    3  A    between atoms: C_1  and  C_16
REMARK    4  A    between atoms: C_4  and  C_5
REMARK    5  A    between atoms: C_5  and  C_7
REMARK    6  A    between atoms: C_6  and  C_12
REMARK    7  A    between atoms: C_16  and  O_17
REMARK    8  A    between atoms: O_17  and  C_18
REMARK    9  A    between atoms: C_23  and  C_25
REMARK   10  A    between atoms: C_25  and  O_26
REMARK                            x       y       z     vdW  Elec       q    Type
REMARK                         _______ _______ _______ _____ _____    ______ ____
ROOT
ATOM      1  C   UNL     1      35.091 -17.328 -22.567  0.00  0.00    +0.154 C 
ENDROOT
BRANCH   1   2
ATOM      2  O   UNL     1      36.426 -17.537 -22.107  0.00  0.00    -0.381 OA
ATOM      3  H   UNL     1      37.052 -17.251 -22.791  0.00  0.00    +0.210 HD
ENDBRANCH   1   2
BRANCH   1   4
ATOM      4  C   UNL     1      34.580 -15.991 -22.016  0.00  0.00    +0.038 C 
BRANCH   4   5
ATOM      5  C   UNL     1      34.324 -14.927 -23.094  0.00  0.00    +0.029 C 
BRANCH   5   7
ATOM      6  C   UNL     1      32.107 -11.546 -21.685  0.00  0.00    -0.023 C 
ATOM      7  C   UNL     1      33.543 -13.736 -22.597  0.00  0.00    -0.022 C 
ATOM      8  C   UNL     1      32.674 -11.527 -22.959  0.00  0.00    -0.005 C 
ATOM      9  C   UNL     1      32.264 -12.667 -20.869  0.00  0.00    -0.005 C 
ATOM     10  C   UNL     1      33.397 -12.628 -23.418  0.00  0.00    -0.005 C 
ATOM     11  C   UNL     1      32.986 -13.769 -21.328  0.00  0.00    -0.005 C 
BRANCH   6  12
ATOM     12  C   UNL     1      31.336 -10.368 -21.193  0.00  0.00    +0.019 C 
ATOM     13  C   UNL     1      29.831 -10.471 -21.591  0.00  0.00    +0.004 C 
ATOM     14  C   UNL     1      31.815  -8.979 -21.730  0.00  0.00    +0.004 C 
ATOM     15  C   UNL     1      31.404 -10.258 -19.638  0.00  0.00    +0.004 C 
ENDBRANCH   6  12
ENDBRANCH   5   7
ENDBRANCH   4   5
ENDBRANCH   1   4
BRANCH   1  16
ATOM     16  C   UNL     1      34.221 -18.487 -22.089  0.00  0.00    +0.234 C 
BRANCH  16  17
ATOM     17  O   UNL     1      35.035 -19.410 -21.373  0.00  0.00    -0.473 OA
BRANCH  17  18
ATOM     18  C   UNL     1      34.414 -20.163 -20.413  0.00  0.00    +0.139 C 
ATOM     19  C   UNL     1      33.029 -20.124 -20.295  0.00  0.00    +0.037 C 
ATOM     20  C   UNL     1      35.175 -20.959 -19.563  0.00  0.00    +0.037 C 
ATOM     21  C   UNL     1      32.397 -20.889 -19.316  0.00  0.00    +0.010 C 
ATOM     22  C   UNL     1      34.542 -21.724 -18.583  0.00  0.00    +0.010 C 
ATOM     23  C   UNL     1      33.154 -21.690 -18.460  0.00  0.00    +0.076 C 
BRANCH  23  25
ATOM     24  O   UNL     1      31.299 -22.412 -17.132  0.00  0.00    -0.245 OA
ATOM     25  C   UNL     1      32.494 -22.487 -17.437  0.00  0.00    +0.338 C 
BRANCH  25  26
ATOM     26  O   UNL     1      33.345 -23.356 -16.826  0.00  0.00    -0.477 OA
ATOM     27  H   UNL     1      33.093 -23.774 -16.026  0.00  0.00    +0.295 HD
ENDBRANCH  25  26
ENDBRANCH  23  25
ENDBRANCH  17  18
ENDBRANCH  16  17
ENDBRANCH   1  16
TORSDOF 10
ENDMDL
MODEL 9
REMARK VINA RESULT:     -10.4      6.126      9.512
REMARK  Name = 57112
REMARK  10 active torsions:
REMARK  status: ('A' for Active; 'I' for Inactive)
REMARK    1  A    between atoms: C_1  and  O_2
REMARK    2  A    between atoms: C_1  and  C_4
REMARK    3  A    between atoms: C_1  and  C_16
REMARK    4  A    between atoms: C_4  and  C_5
REMARK    5  A    between atoms: C_5  and  C_7
REMARK    6  A    between atoms: C_6  and  C_12
REMARK    7  A    between atoms: C_16  and  O_17
REMARK    8  A    between atoms: O_17  and  C_18
REMARK    9  A    between atoms: C_23  and  C_25
REMARK   10  A    between atoms: C_25  and  O_26
REMARK                            x       y       z     vdW  Elec       q    Type
REMARK                         _______ _______ _______ _____ _____    ______ ____
ROOT
ATOM      1  C   UNL     1      33.282 -15.696 -24.171  0.00  0.00    +0.154 C 
ENDROOT
BRANCH   1   2
ATOM      2  O   UNL     1      33.378 -15.299 -25.538  0.00  0.00    -0.381 OA
ATOM      3  H   UNL     1      33.252 -16.074 -26.109  0.00  0.00    +0.210 HD
ENDBRANCH   1   2
BRANCH   1   4
ATOM      4  C   UNL     1      34.107 -14.728 -23.314  0.00  0.00    +0.038 C 
BRANCH   4   5
ATOM      5  C   UNL     1      33.396 -14.265 -22.034  0.00  0.00    +0.029 C 
BRANCH   5   7
ATOM      6  C   UNL     1      32.025 -10.212 -22.196  0.00  0.00    -0.023 C 
ATOM      7  C   UNL     1      32.913 -12.837 -22.091  0.00  0.00    -0.022 C 
ATOM      8  C   UNL     1      31.592 -11.054 -21.172  0.00  0.00    -0.005 C 
ATOM      9  C   UNL     1      32.905 -10.690 -23.167  0.00  0.00    -0.005 C 
ATOM     10  C   UNL     1      32.038 -12.375 -21.120  0.00  0.00    -0.005 C 
ATOM     11  C   UNL     1      33.351 -12.011 -23.114  0.00  0.00    -0.005 C 
BRANCH   6  12
ATOM     12  C   UNL     1      31.548  -8.800 -22.253  0.00  0.00    +0.019 C 
ATOM     13  C   UNL     1      31.271  -8.237 -20.825  0.00  0.00    +0.004 C 
ATOM     14  C   UNL     1      30.224  -8.571 -23.056  0.00  0.00    +0.004 C 
ATOM     15  C   UNL     1      32.607  -7.873 -22.927  0.00  0.00    +0.004 C 
ENDBRANCH   6  12
ENDBRANCH   5   7
ENDBRANCH   4   5
ENDBRANCH   1   4
BRANCH   1  16
ATOM     16  C   UNL     1      33.801 -17.125 -24.038  0.00  0.00    +0.234 C 
BRANCH  16  17
ATOM     17  O   UNL     1      34.992 -17.113 -23.258  0.00  0.00    -0.473 OA
BRANCH  17  18
ATOM     18  C   UNL     1      35.084 -18.046 -22.261  0.00  0.00    +0.139 C 
ATOM     19  C   UNL     1      34.021 -18.911 -22.025  0.00  0.00    +0.037 C 
ATOM     20  C   UNL     1      36.241 -18.121 -21.492  0.00  0.00    +0.037 C 
ATOM     21  C   UNL     1      34.114 -19.861 -21.008  0.00  0.00    +0.010 C 
ATOM     22  C   UNL     1      36.334 -19.070 -20.474  0.00  0.00    +0.010 C 
ATOM     23  C   UNL     1      35.271 -19.940 -20.233  0.00  0.00    +0.076 C 
BRANCH  23  25
ATOM     24  O   UNL     1      36.053 -20.820 -18.149  0.00  0.00    -0.245 OA
ATOM     25  C   UNL     1      35.368 -20.931 -19.171  0.00  0.00    +0.338 C 
BRANCH  25  26
ATOM     26  O   UNL     1      34.605 -22.031 -19.416  0.00  0.00    -0.477 OA
ATOM     27  H   UNL     1      34.967 -22.757 -19.886  0.00  0.00    +0.295 HD
ENDBRANCH  25  26
ENDBRANCH  23  25
ENDBRANCH  17  18
ENDBRANCH  16  17
ENDBRANCH   1  16
TORSDOF 10
ENDMDL
