MODEL 1
REMARK VINA RESULT:     -13.0      0.000      0.000
REMARK  Name = 446399
REMARK  4 active torsions:
REMARK  status: ('A' for Active; 'I' for Inactive)
REMARK    1  A    between atoms: N_3  and  S_21
REMARK    2  A    between atoms: C_4  and  C_10
REMARK    3  A    between atoms: N_9  and  C_16
REMARK    4  A    between atoms: S_21  and  C_25
REMARK                            x       y       z     vdW  Elec       q    Type
REMARK                         _______ _______ _______ _____ _____    ______ ____
ROOT
ATOM      1  O   UNL     1      32.776 -13.453 -25.308  0.00  0.00    -0.275 OA
ATOM      2  N   UNL     1      33.188 -14.808 -23.468  0.00  0.00    -0.277 N 
ATOM      3  N   UNL     1      34.532 -17.144 -22.554  0.00  0.00    -0.152 NA
ATOM      4  C   UNL     1      32.981 -13.583 -24.098  0.00  0.00    +0.225 C 
ATOM      5  C   UNL     1      33.435 -14.997 -22.033  0.00  0.00    +0.113 C 
ATOM      6  C   UNL     1      33.101 -16.051 -24.235  0.00  0.00    +0.113 C 
ATOM      7  C   UNL     1      34.674 -15.858 -21.807  0.00  0.00    +0.117 C 
ATOM      8  C   UNL     1      34.340 -16.912 -24.018  0.00  0.00    +0.117 C 
ENDROOT
BRANCH   4  10
ATOM      9  N   UNL     1      32.030  -9.741 -22.507  0.00  0.00    -0.307 N 
ATOM     10  C   UNL     1      33.017 -12.357 -23.221  0.00  0.00    +0.080 C 
ATOM     11  C   UNL     1      31.661 -12.175 -22.544  0.00  0.00    +0.031 C 
ATOM     12  C   UNL     1      33.356 -11.124 -24.054  0.00  0.00    +0.031 C 
ATOM     13  C   UNL     1      31.620 -10.899 -21.705  0.00  0.00    +0.091 C 
ATOM     14  C   UNL     1      33.317  -9.854 -23.208  0.00  0.00    +0.091 C 
BRANCH   9  16
ATOM     15  N   UNL     1      30.777  -5.875 -21.363  0.00  0.00    -0.242 NA
ATOM     16  C   UNL     1      31.614  -8.458 -22.127  0.00  0.00    +0.051 C 
ATOM     17  C   UNL     1      30.961  -7.611 -23.036  0.00  0.00    +0.035 C 
ATOM     18  C   UNL     1      31.839  -7.981 -20.827  0.00  0.00    +0.035 C 
ATOM     19  C   UNL     1      30.570  -6.351 -22.611  0.00  0.00    +0.100 C 
ATOM     20  C   UNL     1      31.408  -6.705 -20.501  0.00  0.00    +0.100 C 
ENDBRANCH   9  16
ENDBRANCH   4  10
BRANCH   3  21
ATOM     21  S   UNL     1      35.670 -18.358 -22.148  0.00  0.00    +0.063 S 
ATOM     22  O   UNL     1      36.746 -17.761 -21.388  0.00  0.00    -0.153 OA
ATOM     23  O   UNL     1      35.940 -19.158 -23.323  0.00  0.00    -0.153 OA
BRANCH  21  25
ATOM     24 CL   UNL     1      32.083 -23.342 -16.319  0.00  0.00    -0.082 Cl
ATOM     25  C   UNL     1      34.700 -19.330 -21.040  0.00  0.00    +0.122 C 
ATOM     26  C   UNL     1      35.333 -20.072 -20.057  0.00  0.00    +0.020 C 
ATOM     27  C   UNL     1      33.324 -19.333 -21.172  0.00  0.00    +0.020 C 
ATOM     28  C   UNL     1      34.575 -20.851 -19.166  0.00  0.00    +0.001 C 
ATOM     29  C   UNL     1      33.165 -20.865 -19.288  0.00  0.00    +0.001 C 
ATOM     30  C   UNL     1      32.555 -20.101 -20.296  0.00  0.00    +0.001 C 
ATOM     31  C   UNL     1      35.186 -21.614 -18.158  0.00  0.00    +0.001 C 
ATOM     32  C   UNL     1      32.407 -21.643 -18.397  0.00  0.00    +0.011 C 
ATOM     33  C   UNL     1      34.416 -22.382 -17.283  0.00  0.00    +0.011 C 
ATOM     34  C   UNL     1      33.030 -22.396 -17.402  0.00  0.00    +0.058 C 
ENDBRANCH  21  25
ENDBRANCH   3  21
TORSDOF 4
ENDMDL
MODEL 2
REMARK VINA RESULT:     -12.9      4.561     11.616
REMARK  Name = 446399
REMARK  4 active torsions:
REMARK  status: ('A' for Active; 'I' for Inactive)
REMARK    1  A    between atoms: N_3  and  S_21
REMARK    2  A    between atoms: C_4  and  C_10
REMARK    3  A    between atoms: N_9  and  C_16
REMARK    4  A    between atoms: S_21  and  C_25
REMARK                            x       y       z     vdW  Elec       q    Type
REMARK                         _______ _______ _______ _____ _____    ______ ____
ROOT
ATOM      1  O   UNL     1      33.317 -15.565 -25.407  0.00  0.00    -0.275 OA
ATOM      2  N   UNL     1      33.569 -14.052 -23.663  0.00  0.00    -0.277 N 
ATOM      3  N   UNL     1      32.347 -11.903 -22.255  0.00  0.00    -0.152 NA
ATOM      4  C   UNL     1      33.720 -15.296 -24.272  0.00  0.00    +0.225 C 
ATOM      5  C   UNL     1      34.036 -13.699 -22.317  0.00  0.00    +0.113 C 
ATOM      6  C   UNL     1      32.959 -12.945 -24.401  0.00  0.00    +0.113 C 
ATOM      7  C   UNL     1      32.911 -13.065 -21.504  0.00  0.00    +0.117 C 
ATOM      8  C   UNL     1      31.830 -12.311 -23.596  0.00  0.00    +0.117 C 
ENDROOT
BRANCH   4  10
ATOM      9  N   UNL     1      34.363 -18.519 -21.551  0.00  0.00    -0.307 N 
ATOM     10  C   UNL     1      34.422 -16.360 -23.467  0.00  0.00    +0.080 C 
ATOM     11  C   UNL     1      33.854 -17.730 -23.829  0.00  0.00    +0.031 C 
ATOM     12  C   UNL     1      34.239 -16.095 -21.975  0.00  0.00    +0.031 C 
ATOM     13  C   UNL     1      34.477 -18.837 -22.979  0.00  0.00    +0.091 C 
ATOM     14  C   UNL     1      34.868 -17.204 -21.133  0.00  0.00    +0.091 C 
BRANCH   9  16
ATOM     15  N   UNL     1      34.488 -21.641 -18.713  0.00  0.00    -0.242 NA
ATOM     16  C   UNL     1      34.404 -19.554 -20.610  0.00  0.00    +0.051 C 
ATOM     17  C   UNL     1      35.625 -20.018 -20.097  0.00  0.00    +0.035 C 
ATOM     18  C   UNL     1      33.225 -20.162 -20.150  0.00  0.00    +0.035 C 
ATOM     19  C   UNL     1      35.613 -21.045 -19.167  0.00  0.00    +0.100 C 
ATOM     20  C   UNL     1      33.320 -21.182 -19.218  0.00  0.00    +0.100 C 
ENDBRANCH   9  16
ENDBRANCH   4  10
BRANCH   3  21
ATOM     21  S   UNL     1      31.311 -10.879 -21.352  0.00  0.00    +0.063 S 
ATOM     22  O   UNL     1      31.755 -10.853 -19.976  0.00  0.00    -0.153 OA
ATOM     23  O   UNL     1      29.938 -11.188 -21.688  0.00  0.00    -0.153 OA
BRANCH  21  25
ATOM     24 CL   UNL     1      32.165  -3.012 -24.363  0.00  0.00    -0.082 Cl
ATOM     25  C   UNL     1      31.711  -9.321 -22.079  0.00  0.00    +0.122 C 
ATOM     26  C   UNL     1      30.834  -8.259 -21.931  0.00  0.00    +0.020 C 
ATOM     27  C   UNL     1      32.894  -9.186 -22.782  0.00  0.00    +0.020 C 
ATOM     28  C   UNL     1      31.137  -7.012 -22.503  0.00  0.00    +0.001 C 
ATOM     29  C   UNL     1      32.344  -6.858 -23.225  0.00  0.00    +0.001 C 
ATOM     30  C   UNL     1      33.211  -7.955 -23.356  0.00  0.00    +0.001 C 
ATOM     31  C   UNL     1      30.270  -5.916 -22.371  0.00  0.00    +0.001 C 
ATOM     32  C   UNL     1      32.648  -5.611 -23.797  0.00  0.00    +0.011 C 
ATOM     33  C   UNL     1      30.588  -4.684 -22.946  0.00  0.00    +0.011 C 
ATOM     34  C   UNL     1      31.775  -4.533 -23.658  0.00  0.00    +0.058 C 
ENDBRANCH  21  25
ENDBRANCH   3  21
TORSDOF 4
ENDMDL
MODEL 3
REMARK VINA RESULT:     -11.9      1.619      2.175
REMARK  Name = 446399
REMARK  4 active torsions:
REMARK  status: ('A' for Active; 'I' for Inactive)
REMARK    1  A    between atoms: N_3  and  S_21
REMARK    2  A    between atoms: C_4  and  C_10
REMARK    3  A    between atoms: N_9  and  C_16
REMARK    4  A    between atoms: S_21  and  C_25
REMARK                            x       y       z     vdW  Elec       q    Type
REMARK                         _______ _______ _______ _____ _____    ______ ____
ROOT
ATOM      1  O   UNL     1      32.063 -13.390 -19.635  0.00  0.00    -0.275 OA
ATOM      2  N   UNL     1      33.529 -14.288 -21.197  0.00  0.00    -0.277 N 
ATOM      3  N   UNL     1      34.714 -16.688 -22.162  0.00  0.00    -0.152 NA
ATOM      4  C   UNL     1      32.547 -13.396 -20.770  0.00  0.00    +0.225 C 
ATOM      5  C   UNL     1      34.124 -14.323 -22.538  0.00  0.00    +0.113 C 
ATOM      6  C   UNL     1      34.100 -15.253 -20.256  0.00  0.00    +0.113 C 
ATOM      7  C   UNL     1      34.072 -15.734 -23.116  0.00  0.00    +0.117 C 
ATOM      8  C   UNL     1      34.045 -16.666 -20.826  0.00  0.00    +0.117 C 
ENDROOT
BRANCH   4  10
ATOM      9  N   UNL     1      31.895  -9.676 -22.753  0.00  0.00    -0.307 N 
ATOM     10  C   UNL     1      32.064 -12.389 -21.783  0.00  0.00    +0.080 C 
ATOM     11  C   UNL     1      33.264 -11.696 -22.423  0.00  0.00    +0.031 C 
ATOM     12  C   UNL     1      31.163 -11.357 -21.110  0.00  0.00    +0.031 C 
ATOM     13  C   UNL     1      32.826 -10.606 -23.401  0.00  0.00    +0.091 C 
ATOM     14  C   UNL     1      30.726 -10.274 -22.094  0.00  0.00    +0.091 C 
BRANCH   9  16
ATOM     15  N   UNL     1      31.469  -5.765 -24.285  0.00  0.00    -0.242 NA
ATOM     16  C   UNL     1      31.754  -8.378 -23.261  0.00  0.00    +0.051 C 
ATOM     17  C   UNL     1      30.486  -7.798 -23.421  0.00  0.00    +0.035 C 
ATOM     18  C   UNL     1      32.876  -7.619 -23.627  0.00  0.00    +0.035 C 
ATOM     19  C   UNL     1      30.400  -6.511 -23.928  0.00  0.00    +0.100 C 
ATOM     20  C   UNL     1      32.683  -6.340 -24.124  0.00  0.00    +0.100 C 
ENDBRANCH   9  16
ENDBRANCH   4  10
BRANCH   3  21
ATOM     21  S   UNL     1      35.040 -18.247 -22.792  0.00  0.00    +0.063 S 
ATOM     22  O   UNL     1      36.471 -18.450 -22.834  0.00  0.00    -0.153 OA
ATOM     23  O   UNL     1      34.221 -18.459 -23.966  0.00  0.00    -0.153 OA
BRANCH  21  25
ATOM     24 CL   UNL     1      33.092 -23.172 -16.185  0.00  0.00    -0.082 Cl
ATOM     25  C   UNL     1      34.391 -19.246 -21.489  0.00  0.00    +0.122 C 
ATOM     26  C   UNL     1      35.260 -19.814 -20.573  0.00  0.00    +0.020 C 
ATOM     27  C   UNL     1      33.025 -19.444 -21.406  0.00  0.00    +0.020 C 
ATOM     28  C   UNL     1      34.759 -20.611 -19.530  0.00  0.00    +0.001 C 
ATOM     29  C   UNL     1      33.364 -20.823 -19.431  0.00  0.00    +0.001 C 
ATOM     30  C   UNL     1      32.510 -20.233 -20.376  0.00  0.00    +0.001 C 
ATOM     31  C   UNL     1      35.613 -21.202 -18.584  0.00  0.00    +0.001 C 
ATOM     32  C   UNL     1      32.862 -21.620 -18.387  0.00  0.00    +0.011 C 
ATOM     33  C   UNL     1      35.098 -21.991 -17.555  0.00  0.00    +0.011 C 
ATOM     34  C   UNL     1      33.725 -22.200 -17.457  0.00  0.00    +0.058 C 
ENDBRANCH  21  25
ENDBRANCH   3  21
TORSDOF 4
ENDMDL
MODEL 4
REMARK VINA RESULT:     -11.8      2.116      3.475
REMARK  Name = 446399
REMARK  4 active torsions:
REMARK  status: ('A' for Active; 'I' for Inactive)
REMARK    1  A    between atoms: N_3  and  S_21
REMARK    2  A    between atoms: C_4  and  C_10
REMARK    3  A    between atoms: N_9  and  C_16
REMARK    4  A    between atoms: S_21  and  C_25
REMARK                            x       y       z     vdW  Elec       q    Type
REMARK                         _______ _______ _______ _____ _____    ______ ____
ROOT
ATOM      1  O   UNL     1      31.985 -11.642 -20.272  0.00  0.00    -0.275 OA
ATOM      2  N   UNL     1      33.035 -12.541 -22.139  0.00  0.00    -0.277 N 
ATOM      3  N   UNL     1      33.759 -14.953 -23.463  0.00  0.00    -0.152 NA
ATOM      4  C   UNL     1      32.249 -11.599 -21.477  0.00  0.00    +0.225 C 
ATOM      5  C   UNL     1      33.368 -12.520 -23.568  0.00  0.00    +0.113 C 
ATOM      6  C   UNL     1      33.662 -13.630 -21.388  0.00  0.00    +0.113 C 
ATOM      7  C   UNL     1      33.060 -13.868 -24.214  0.00  0.00    +0.117 C 
ATOM      8  C   UNL     1      33.352 -14.979 -22.025  0.00  0.00    +0.117 C 
ENDROOT
BRANCH   4  10
ATOM      9  N   UNL     1      31.140  -7.667 -22.701  0.00  0.00    -0.307 N 
ATOM     10  C   UNL     1      31.701 -10.471 -22.313  0.00  0.00    +0.080 C 
ATOM     11  C   UNL     1      32.814  -9.471 -22.611  0.00  0.00    +0.031 C 
ATOM     12  C   UNL     1      30.559  -9.778 -21.574  0.00  0.00    +0.031 C 
ATOM     13  C   UNL     1      32.290  -8.264 -23.389  0.00  0.00    +0.091 C 
ATOM     14  C   UNL     1      30.038  -8.576 -22.359  0.00  0.00    +0.091 C 
BRANCH   9  16
ATOM     15  N   UNL     1      30.167  -3.621 -23.415  0.00  0.00    -0.242 NA
ATOM     16  C   UNL     1      30.818  -6.324 -22.938  0.00  0.00    +0.051 C 
ATOM     17  C   UNL     1      30.460  -5.469 -21.884  0.00  0.00    +0.035 C 
ATOM     18  C   UNL     1      30.841  -5.793 -24.237  0.00  0.00    +0.035 C 
ATOM     19  C   UNL     1      30.149  -4.149 -22.171  0.00  0.00    +0.100 C 
ATOM     20  C   UNL     1      30.514  -4.459 -24.418  0.00  0.00    +0.100 C 
ENDBRANCH   9  16
ENDBRANCH   4  10
BRANCH   3  21
ATOM     21  S   UNL     1      33.795 -16.479 -24.242  0.00  0.00    +0.063 S 
ATOM     22  O   UNL     1      34.762 -16.438 -25.316  0.00  0.00    -0.153 OA
ATOM     23  O   UNL     1      32.436 -16.916 -24.477  0.00  0.00    -0.153 OA
BRANCH  21  25
ATOM     24 CL   UNL     1      35.900 -21.715 -17.930  0.00  0.00    -0.082 Cl
ATOM     25  C   UNL     1      34.468 -17.469 -22.945  0.00  0.00    +0.122 C 
ATOM     26  C   UNL     1      33.650 -18.374 -22.289  0.00  0.00    +0.020 C 
ATOM     27  C   UNL     1      35.801 -17.326 -22.608  0.00  0.00    +0.020 C 
ATOM     28  C   UNL     1      34.170 -19.170 -21.255  0.00  0.00    +0.001 C 
ATOM     29  C   UNL     1      35.533 -19.035 -20.897  0.00  0.00    +0.001 C 
ATOM     30  C   UNL     1      36.334 -18.109 -21.583  0.00  0.00    +0.001 C 
ATOM     31  C   UNL     1      33.368 -20.097 -20.570  0.00  0.00    +0.001 C 
ATOM     32  C   UNL     1      36.054 -19.832 -19.864  0.00  0.00    +0.011 C 
ATOM     33  C   UNL     1      33.903 -20.880 -19.545  0.00  0.00    +0.011 C 
ATOM     34  C   UNL     1      35.243 -20.747 -19.193  0.00  0.00    +0.058 C 
ENDBRANCH  21  25
ENDBRANCH   3  21
TORSDOF 4
ENDMDL
MODEL 5
REMARK VINA RESULT:     -11.5      4.696     11.552
REMARK  Name = 446399
REMARK  4 active torsions:
REMARK  status: ('A' for Active; 'I' for Inactive)
REMARK    1  A    between atoms: N_3  and  S_21
REMARK    2  A    between atoms: C_4  and  C_10
REMARK    3  A    between atoms: N_9  and  C_16
REMARK    4  A    between atoms: S_21  and  C_25
REMARK                            x       y       z     vdW  Elec       q    Type
REMARK                         _______ _______ _______ _____ _____    ______ ____
ROOT
ATOM      1  O   UNL     1      31.545 -21.108 -18.098  0.00  0.00    -0.275 OA
ATOM      2  N   UNL     1      33.404 -21.091 -19.490  0.00  0.00    -0.277 N 
ATOM      3  N   UNL     1      34.985 -19.499 -21.240  0.00  0.00    -0.152 NA
ATOM      4  C   UNL     1      32.696 -21.472 -18.351  0.00  0.00    +0.225 C 
ATOM      5  C   UNL     1      34.773 -21.505 -19.821  0.00  0.00    +0.113 C 
ATOM      6  C   UNL     1      32.759 -20.264 -20.511  0.00  0.00    +0.113 C 
ATOM      7  C   UNL     1      35.638 -20.293 -20.156  0.00  0.00    +0.117 C 
ATOM      8  C   UNL     1      33.616 -19.048 -20.845  0.00  0.00    +0.117 C 
ENDROOT
BRANCH   4  10
ATOM      9  N   UNL     1      34.553 -22.900 -14.786  0.00  0.00    -0.307 N 
ATOM     10  C   UNL     1      33.411 -22.383 -17.386  0.00  0.00    +0.080 C 
ATOM     11  C   UNL     1      32.530 -22.620 -16.163  0.00  0.00    +0.031 C 
ATOM     12  C   UNL     1      34.739 -21.761 -16.962  0.00  0.00    +0.031 C 
ATOM     13  C   UNL     1      33.244 -23.474 -15.115  0.00  0.00    +0.091 C 
ATOM     14  C   UNL     1      35.448 -22.622 -15.919  0.00  0.00    +0.091 C 
BRANCH   9  16
ATOM     15  N   UNL     1      36.346 -23.813 -11.075  0.00  0.00    -0.242 NA
ATOM     16  C   UNL     1      35.148 -23.203 -13.555  0.00  0.00    +0.051 C 
ATOM     17  C   UNL     1      36.480 -22.850 -13.289  0.00  0.00    +0.035 C 
ATOM     18  C   UNL     1      34.430 -23.869 -12.549  0.00  0.00    +0.035 C 
ATOM     19  C   UNL     1      37.022 -23.172 -12.054  0.00  0.00    +0.100 C 
ATOM     20  C   UNL     1      35.064 -24.145 -11.348  0.00  0.00    +0.100 C 
ENDBRANCH   9  16
ENDBRANCH   4  10
BRANCH   3  21
ATOM     21  S   UNL     1      35.969 -18.300 -21.966  0.00  0.00    +0.063 S 
ATOM     22  O   UNL     1      36.006 -18.522 -23.395  0.00  0.00    -0.153 OA
ATOM     23  O   UNL     1      37.189 -18.169 -21.199  0.00  0.00    -0.153 OA
BRANCH  21  25
ATOM     24 CL   UNL     1      31.250 -11.274 -21.746  0.00  0.00    -0.082 Cl
ATOM     25  C   UNL     1      34.982 -16.868 -21.667  0.00  0.00    +0.122 C 
ATOM     26  C   UNL     1      34.575 -16.090 -22.737  0.00  0.00    +0.020 C 
ATOM     27  C   UNL     1      34.630 -16.550 -20.368  0.00  0.00    +0.020 C 
ATOM     28  C   UNL     1      33.788 -14.947 -22.515  0.00  0.00    +0.001 C 
ATOM     29  C   UNL     1      33.420 -14.607 -21.192  0.00  0.00    +0.001 C 
ATOM     30  C   UNL     1      33.849 -15.418 -20.130  0.00  0.00    +0.001 C 
ATOM     31  C   UNL     1      33.359 -14.136 -23.578  0.00  0.00    +0.001 C 
ATOM     32  C   UNL     1      32.633 -13.465 -20.970  0.00  0.00    +0.011 C 
ATOM     33  C   UNL     1      32.578 -13.004 -23.339  0.00  0.00    +0.011 C 
ATOM     34  C   UNL     1      32.216 -12.669 -22.037  0.00  0.00    +0.058 C 
ENDBRANCH  21  25
ENDBRANCH   3  21
TORSDOF 4
ENDMDL
MODEL 6
REMARK VINA RESULT:     -11.3      6.851     13.336
REMARK  Name = 446399
REMARK  4 active torsions:
REMARK  status: ('A' for Active; 'I' for Inactive)
REMARK    1  A    between atoms: N_3  and  S_21
REMARK    2  A    between atoms: C_4  and  C_10
REMARK    3  A    between atoms: N_9  and  C_16
REMARK    4  A    between atoms: S_21  and  C_25
REMARK                            x       y       z     vdW  Elec       q    Type
REMARK                         _______ _______ _______ _____ _____    ______ ____
ROOT
ATOM      1  O   UNL     1      32.006  -8.022 -19.887  0.00  0.00    -0.275 OA
ATOM      2  N   UNL     1      30.942  -6.929 -21.638  0.00  0.00    -0.277 N 
ATOM      3  N   UNL     1      30.807  -4.510 -23.129  0.00  0.00    -0.152 NA
ATOM      4  C   UNL     1      31.487  -8.046 -21.006  0.00  0.00    +0.225 C 
ATOM      5  C   UNL     1      30.319  -6.922 -22.967  0.00  0.00    +0.113 C 
ATOM      6  C   UNL     1      30.900  -5.642 -20.943  0.00  0.00    +0.113 C 
ATOM      7  C   UNL     1      30.916  -5.821 -23.838  0.00  0.00    +0.117 C 
ATOM      8  C   UNL     1      31.501  -4.538 -21.806  0.00  0.00    +0.117 C 
ENDROOT
BRANCH   4  10
ATOM      9  N   UNL     1      32.553 -11.911 -22.461  0.00  0.00    -0.307 N 
ATOM     10  C   UNL     1      31.426  -9.347 -21.764  0.00  0.00    +0.080 C 
ATOM     11  C   UNL     1      31.427 -10.511 -20.777  0.00  0.00    +0.031 C 
ATOM     12  C   UNL     1      32.619  -9.462 -22.709  0.00  0.00    +0.031 C 
ATOM     13  C   UNL     1      31.447 -11.859 -21.499  0.00  0.00    +0.091 C 
ATOM     14  C   UNL     1      32.630 -10.808 -23.429  0.00  0.00    +0.091 C 
BRANCH   9  16
ATOM     15  N   UNL     1      34.083 -15.658 -23.663  0.00  0.00    -0.242 NA
ATOM     16  C   UNL     1      33.061 -13.154 -22.860  0.00  0.00    +0.051 C 
ATOM     17  C   UNL     1      33.795 -13.955 -21.971  0.00  0.00    +0.035 C 
ATOM     18  C   UNL     1      32.851 -13.637 -24.161  0.00  0.00    +0.035 C 
ATOM     19  C   UNL     1      34.276 -15.177 -22.414  0.00  0.00    +0.100 C 
ATOM     20  C   UNL     1      33.374 -14.874 -24.506  0.00  0.00    +0.100 C 
ENDBRANCH   9  16
ENDBRANCH   4  10
BRANCH   3  21
ATOM     21  S   UNL     1      31.120  -3.128 -24.091  0.00  0.00    +0.063 S 
ATOM     22  O   UNL     1      31.656  -2.080 -23.251  0.00  0.00    -0.153 OA
ATOM     23  O   UNL     1      29.981  -2.887 -24.950  0.00  0.00    -0.153 OA
BRANCH  21  25
ATOM     24 CL   UNL     1      36.726  -5.774 -29.858  0.00  0.00    -0.082 Cl
ATOM     25  C   UNL     1      32.436  -3.743 -25.094  0.00  0.00    +0.122 C 
ATOM     26  C   UNL     1      32.309  -3.711 -26.473  0.00  0.00    +0.020 C 
ATOM     27  C   UNL     1      33.571  -4.245 -24.486  0.00  0.00    +0.020 C 
ATOM     28  C   UNL     1      33.347  -4.197 -27.285  0.00  0.00    +0.001 C 
ATOM     29  C   UNL     1      34.516  -4.715 -26.678  0.00  0.00    +0.001 C 
ATOM     30  C   UNL     1      34.612  -4.732 -25.277  0.00  0.00    +0.001 C 
ATOM     31  C   UNL     1      33.251  -4.180 -28.686  0.00  0.00    +0.001 C 
ATOM     32  C   UNL     1      35.555  -5.200 -27.490  0.00  0.00    +0.011 C 
ATOM     33  C   UNL     1      34.292  -4.667 -29.477  0.00  0.00    +0.011 C 
ATOM     34  C   UNL     1      35.442  -5.176 -28.880  0.00  0.00    +0.058 C 
ENDBRANCH  21  25
ENDBRANCH   3  21
TORSDOF 4
ENDMDL
MODEL 7
REMARK VINA RESULT:     -11.3      6.226     12.845
REMARK  Name = 446399
REMARK  4 active torsions:
REMARK  status: ('A' for Active; 'I' for Inactive)
REMARK    1  A    between atoms: N_3  and  S_21
REMARK    2  A    between atoms: C_4  and  C_10
REMARK    3  A    between atoms: N_9  and  C_16
REMARK    4  A    between atoms: S_21  and  C_25
REMARK                            x       y       z     vdW  Elec       q    Type
REMARK                         _______ _______ _______ _____ _____    ______ ____
ROOT
ATOM      1  O   UNL     1      30.452 -11.648 -21.011  0.00  0.00    -0.275 OA
ATOM      2  N   UNL     1      31.443 -10.097 -22.428  0.00  0.00    -0.277 N 
ATOM      3  N   UNL     1      31.842  -7.324 -22.925  0.00  0.00    -0.152 NA
ATOM      4  C   UNL     1      31.390 -11.306 -21.736  0.00  0.00    +0.225 C 
ATOM      5  C   UNL     1      32.543  -9.660 -23.296  0.00  0.00    +0.113 C 
ATOM      6  C   UNL     1      30.310  -9.173 -22.375  0.00  0.00    +0.113 C 
ATOM      7  C   UNL     1      33.008  -8.258 -22.913  0.00  0.00    +0.117 C 
ATOM      8  C   UNL     1      30.768  -7.772 -21.987  0.00  0.00    +0.117 C 
ENDROOT
BRANCH   4  10
ATOM      9  N   UNL     1      33.672 -14.887 -22.146  0.00  0.00    -0.307 N 
ATOM     10  C   UNL     1      32.569 -12.230 -21.902  0.00  0.00    +0.080 C 
ATOM     11  C   UNL     1      32.398 -13.049 -23.178  0.00  0.00    +0.031 C 
ATOM     12  C   UNL     1      32.682 -13.160 -20.696  0.00  0.00    +0.031 C 
ATOM     13  C   UNL     1      33.530 -14.062 -23.351  0.00  0.00    +0.091 C 
ATOM     14  C   UNL     1      33.817 -14.165 -20.873  0.00  0.00    +0.091 C 
BRANCH   9  16
ATOM     15  N   UNL     1      35.478 -18.692 -22.437  0.00  0.00    -0.242 NA
ATOM     16  C   UNL     1      34.271 -16.149 -22.242  0.00  0.00    +0.051 C 
ATOM     17  C   UNL     1      34.924 -16.726 -21.142  0.00  0.00    +0.035 C 
ATOM     18  C   UNL     1      34.236 -16.876 -23.443  0.00  0.00    +0.035 C 
ATOM     19  C   UNL     1      35.501 -17.978 -21.289  0.00  0.00    +0.100 C 
ATOM     20  C   UNL     1      34.844 -18.121 -23.486  0.00  0.00    +0.100 C 
ENDBRANCH   9  16
ENDBRANCH   4  10
BRANCH   3  21
ATOM     21  S   UNL     1      32.235  -5.658 -22.847  0.00  0.00    +0.063 S 
ATOM     22  O   UNL     1      33.295  -5.468 -21.882  0.00  0.00    -0.153 OA
ATOM     23  O   UNL     1      31.010  -4.892 -22.771  0.00  0.00    -0.153 OA
BRANCH  21  25
ATOM     24 CL   UNL     1      36.481  -4.048 -29.992  0.00  0.00    -0.082 Cl
ATOM     25  C   UNL     1      32.921  -5.429 -24.457  0.00  0.00    +0.122 C 
ATOM     26  C   UNL     1      34.159  -4.823 -24.585  0.00  0.00    +0.020 C 
ATOM     27  C   UNL     1      32.210  -5.860 -25.562  0.00  0.00    +0.020 C 
ATOM     28  C   UNL     1      34.719  -4.633 -25.860  0.00  0.00    +0.001 C 
ATOM     29  C   UNL     1      34.005  -5.068 -27.001  0.00  0.00    +0.001 C 
ATOM     30  C   UNL     1      32.752  -5.679 -26.835  0.00  0.00    +0.001 C 
ATOM     31  C   UNL     1      35.972  -4.021 -26.026  0.00  0.00    +0.001 C 
ATOM     32  C   UNL     1      34.565  -4.879 -28.276  0.00  0.00    +0.011 C 
ATOM     33  C   UNL     1      36.513  -3.841 -27.300  0.00  0.00    +0.011 C 
ATOM     34  C   UNL     1      35.810  -4.269 -28.422  0.00  0.00    +0.058 C 
ENDBRANCH  21  25
ENDBRANCH   3  21
TORSDOF 4
ENDMDL
MODEL 8
REMARK VINA RESULT:     -10.9      4.804     11.634
REMARK  Name = 446399
REMARK  4 active torsions:
REMARK  status: ('A' for Active; 'I' for Inactive)
REMARK    1  A    between atoms: N_3  and  S_21
REMARK    2  A    between atoms: C_4  and  C_10
REMARK    3  A    between atoms: N_9  and  C_16
REMARK    4  A    between atoms: S_21  and  C_25
REMARK                            x       y       z     vdW  Elec       q    Type
REMARK                         _______ _______ _______ _____ _____    ______ ____
ROOT
ATOM      1  O   UNL     1      31.279 -20.920 -18.142  0.00  0.00    -0.275 OA
ATOM      2  N   UNL     1      33.173 -21.038 -19.481  0.00  0.00    -0.277 N 
ATOM      3  N   UNL     1      35.017 -19.532 -21.039  0.00  0.00    -0.152 NA
ATOM      4  C   UNL     1      32.380 -21.416 -18.399  0.00  0.00    +0.225 C 
ATOM      5  C   UNL     1      34.485 -21.606 -19.815  0.00  0.00    +0.113 C 
ATOM      6  C   UNL     1      32.683 -20.044 -20.437  0.00  0.00    +0.113 C 
ATOM      7  C   UNL     1      35.517 -20.500 -20.017  0.00  0.00    +0.117 C 
ATOM      8  C   UNL     1      33.707 -18.933 -20.638  0.00  0.00    +0.117 C 
ENDROOT
BRANCH   4  10
ATOM      9  N   UNL     1      34.038 -23.357 -14.981  0.00  0.00    -0.307 N 
ATOM     10  C   UNL     1      32.930 -22.497 -17.504  0.00  0.00    +0.080 C 
ATOM     11  C   UNL     1      32.064 -22.610 -16.252  0.00  0.00    +0.031 C 
ATOM     12  C   UNL     1      34.371 -22.176 -17.117  0.00  0.00    +0.031 C 
ATOM     13  C   UNL     1      32.628 -23.640 -15.272  0.00  0.00    +0.091 C 
ATOM     14  C   UNL     1      34.928 -23.211 -16.142  0.00  0.00    +0.091 C 
BRANCH   9  16
ATOM     15  N   UNL     1      35.744 -24.786 -11.394  0.00  0.00    -0.242 NA
ATOM     16  C   UNL     1      34.604 -23.832 -13.791  0.00  0.00    +0.051 C 
ATOM     17  C   UNL     1      34.012 -23.556 -12.549  0.00  0.00    +0.035 C 
ATOM     18  C   UNL     1      35.781 -24.596 -13.805  0.00  0.00    +0.035 C 
ATOM     19  C   UNL     1      34.612 -24.048 -11.400  0.00  0.00    +0.100 C 
ATOM     20  C   UNL     1      36.301 -25.042 -12.600  0.00  0.00    +0.100 C 
ENDBRANCH   9  16
ENDBRANCH   4  10
BRANCH   3  21
ATOM     21  S   UNL     1      36.180 -18.422 -21.629  0.00  0.00    +0.063 S 
ATOM     22  O   UNL     1      36.706 -18.911 -22.884  0.00  0.00    -0.153 OA
ATOM     23  O   UNL     1      37.062 -18.047 -20.545  0.00  0.00    -0.153 OA
BRANCH  21  25
ATOM     24 CL   UNL     1      31.205 -11.587 -22.113  0.00  0.00    -0.082 Cl
ATOM     25  C   UNL     1      35.136 -17.042 -21.982  0.00  0.00    +0.122 C 
ATOM     26  C   UNL     1      34.711 -16.231 -20.943  0.00  0.00    +0.020 C 
ATOM     27  C   UNL     1      34.762 -16.795 -23.290  0.00  0.00    +0.020 C 
ATOM     28  C   UNL     1      33.880 -15.129 -21.207  0.00  0.00    +0.001 C 
ATOM     29  C   UNL     1      33.488 -14.862 -22.541  0.00  0.00    +0.001 C 
ATOM     30  C   UNL     1      33.938 -15.704 -23.570  0.00  0.00    +0.001 C 
ATOM     31  C   UNL     1      33.431 -14.287 -20.177  0.00  0.00    +0.001 C 
ATOM     32  C   UNL     1      32.658 -13.760 -22.805  0.00  0.00    +0.011 C 
ATOM     33  C   UNL     1      32.606 -13.197 -20.458  0.00  0.00    +0.011 C 
ATOM     34  C   UNL     1      32.221 -12.934 -21.770  0.00  0.00    +0.058 C 
ENDBRANCH  21  25
ENDBRANCH   3  21
TORSDOF 4
ENDMDL
MODEL 9
REMARK VINA RESULT:     -10.9      1.680      2.545
REMARK  Name = 446399
REMARK  4 active torsions:
REMARK  status: ('A' for Active; 'I' for Inactive)
REMARK    1  A    between atoms: N_3  and  S_21
REMARK    2  A    between atoms: C_4  and  C_10
REMARK    3  A    between atoms: N_9  and  C_16
REMARK    4  A    between atoms: S_21  and  C_25
REMARK                            x       y       z     vdW  Elec       q    Type
REMARK                         _______ _______ _______ _____ _____    ______ ____
ROOT
ATOM      1  O   UNL     1      33.978 -16.383 -25.218  0.00  0.00    -0.275 OA
ATOM      2  N   UNL     1      33.988 -17.029 -22.987  0.00  0.00    -0.277 N 
ATOM      3  N   UNL     1      34.943 -18.961 -21.130  0.00  0.00    -0.152 NA
ATOM      4  C   UNL     1      33.999 -16.092 -24.019  0.00  0.00    +0.225 C 
ATOM      5  C   UNL     1      34.012 -16.716 -21.553  0.00  0.00    +0.113 C 
ATOM      6  C   UNL     1      33.880 -18.455 -23.294  0.00  0.00    +0.113 C 
ATOM      7  C   UNL     1      35.112 -17.504 -20.847  0.00  0.00    +0.117 C 
ATOM      8  C   UNL     1      34.981 -19.247 -22.596  0.00  0.00    +0.117 C 
ENDROOT
BRANCH   4  10
ATOM      9  N   UNL     1      32.718 -12.242 -22.701  0.00  0.00    -0.307 N 
ATOM     10  C   UNL     1      34.040 -14.641 -23.612  0.00  0.00    +0.080 C 
ATOM     11  C   UNL     1      33.547 -14.501 -22.174  0.00  0.00    +0.031 C 
ATOM     12  C   UNL     1      33.166 -13.809 -24.548  0.00  0.00    +0.031 C 
ATOM     13  C   UNL     1      33.493 -13.036 -21.741  0.00  0.00    +0.091 C 
ATOM     14  C   UNL     1      33.120 -12.346 -24.110  0.00  0.00    +0.091 C 
BRANCH   9  16
ATOM     15  N   UNL     1      30.951  -8.619 -21.448  0.00  0.00    -0.242 NA
ATOM     16  C   UNL     1      32.131 -11.040 -22.285  0.00  0.00    +0.051 C 
ATOM     17  C   UNL     1      32.265  -9.869 -23.046  0.00  0.00    +0.035 C 
ATOM     18  C   UNL     1      31.393 -10.970 -21.093  0.00  0.00    +0.035 C 
ATOM     19  C   UNL     1      31.666  -8.705 -22.592  0.00  0.00    +0.100 C 
ATOM     20  C   UNL     1      30.833  -9.757 -20.727  0.00  0.00    +0.100 C 
ENDBRANCH   9  16
ENDBRANCH   4  10
BRANCH   3  21
ATOM     21  S   UNL     1      35.881 -20.012 -20.155  0.00  0.00    +0.063 S 
ATOM     22  O   UNL     1      36.696 -19.222 -19.258  0.00  0.00    -0.153 OA
ATOM     23  O   UNL     1      36.470 -21.030 -20.997  0.00  0.00    -0.153 OA
BRANCH  21  25
ATOM     24 CL   UNL     1      30.651 -23.988 -14.815  0.00  0.00    -0.082 Cl
ATOM     25  C   UNL     1      34.603 -20.768 -19.200  0.00  0.00    +0.122 C 
ATOM     26  C   UNL     1      34.936 -21.445 -18.039  0.00  0.00    +0.020 C 
ATOM     27  C   UNL     1      33.292 -20.670 -19.628  0.00  0.00    +0.020 C 
ATOM     28  C   UNL     1      33.930 -22.052 -17.267  0.00  0.00    +0.001 C 
ATOM     29  C   UNL     1      32.583 -21.961 -17.691  0.00  0.00    +0.001 C 
ATOM     30  C   UNL     1      32.281 -21.267 -18.873  0.00  0.00    +0.001 C 
ATOM     31  C   UNL     1      34.233 -22.746 -16.085  0.00  0.00    +0.001 C 
ATOM     32  C   UNL     1      31.578 -22.567 -16.919  0.00  0.00    +0.011 C 
ATOM     33  C   UNL     1      33.222 -23.343 -15.331  0.00  0.00    +0.011 C 
ATOM     34  C   UNL     1      31.897 -23.254 -15.748  0.00  0.00    +0.058 C 
ENDBRANCH  21  25
ENDBRANCH   3  21
TORSDOF 4
ENDMDL
