MODEL 1
REMARK VINA RESULT:     -10.8      0.000      0.000
REMARK  Name = 9904203
REMARK  5 active torsions:
REMARK  status: ('A' for Active; 'I' for Inactive)
REMARK    1  A    between atoms: C_1  and  C_12
REMARK    2  A    between atoms: C_3  and  C_15
REMARK    3  A    between atoms: C_16  and  C_17
REMARK    4  A    between atoms: C_19  and  C_21
REMARK    5  A    between atoms: C_21  and  O_22
REMARK                            x       y       z     vdW  Elec       q    Type
REMARK                         _______ _______ _______ _____ _____    ______ ____
ROOT
ATOM      1  C   UNL     1      36.010 -18.244 -21.510  0.00  0.00    -0.022 C 
ATOM      2  C   UNL     1      37.319 -18.172 -22.263  0.00  0.00    +0.031 C 
ATOM      3  C   UNL     1      35.579 -19.449 -21.078  0.00  0.00    -0.004 C 
ENDROOT
BRANCH   1  12
ATOM      4  C   UNL     1      34.417 -15.845 -24.608  0.00  0.00    +0.009 C 
ATOM      5  C   UNL     1      33.342 -14.786 -24.390  0.00  0.00    +0.027 C 
ATOM      6  C   UNL     1      34.296 -16.944 -23.561  0.00  0.00    +0.027 C 
ATOM      7  C   UNL     1      33.249 -14.329 -22.953  0.00  0.00    -0.022 C 
ATOM      8  C   UNL     1      34.479 -16.375 -22.174  0.00  0.00    -0.023 C 
ATOM      9  C   UNL     1      33.775 -15.094 -21.887  0.00  0.00    -0.008 C 
ATOM     10  C   UNL     1      32.568 -13.129 -22.687  0.00  0.00    -0.004 C 
ATOM     11  C   UNL     1      33.593 -14.618 -20.576  0.00  0.00    -0.001 C 
ATOM     12  C   UNL     1      35.290 -16.990 -21.297  0.00  0.00    -0.009 C 
ATOM     13  C   UNL     1      32.412 -12.672 -21.382  0.00  0.00    -0.000 C 
ATOM     14  C   UNL     1      32.923 -13.418 -20.327  0.00  0.00    -0.000 C 
ENDBRANCH   1  12
BRANCH   3  15
ATOM     15  C   UNL     1      34.368 -19.764 -20.342  0.00  0.00    -0.001 C 
ATOM     16  C   UNL     1      34.241 -20.878 -19.599  0.00  0.00    -0.004 C 
BRANCH  16  17
ATOM     17  C   UNL     1      33.067 -21.272 -18.821  0.00  0.00    -0.015 C 
ATOM     18  C   UNL     1      31.746 -20.636 -19.189  0.00  0.00    +0.031 C 
ATOM     19  C   UNL     1      33.088 -22.136 -17.786  0.00  0.00    +0.077 C 
BRANCH  19  21
ATOM     20  O   UNL     1      30.755 -22.432 -17.203  0.00  0.00    -0.245 OA
ATOM     21  C   UNL     1      31.940 -22.575 -16.959  0.00  0.00    +0.338 C 
BRANCH  21  22
ATOM     22  O   UNL     1      32.424 -23.166 -15.840  0.00  0.00    -0.477 OA
ATOM     23  H   UNL     1      32.347 -24.092 -15.728  0.00  0.00    +0.295 HD
ENDBRANCH  21  22
ENDBRANCH  19  21
ENDBRANCH  16  17
ENDBRANCH   3  15
TORSDOF 5
ENDMDL
MODEL 2
REMARK VINA RESULT:     -10.6      5.440      8.617
REMARK  Name = 9904203
REMARK  5 active torsions:
REMARK  status: ('A' for Active; 'I' for Inactive)
REMARK    1  A    between atoms: C_1  and  C_12
REMARK    2  A    between atoms: C_3  and  C_15
REMARK    3  A    between atoms: C_16  and  C_17
REMARK    4  A    between atoms: C_19  and  C_21
REMARK    5  A    between atoms: C_21  and  O_22
REMARK                            x       y       z     vdW  Elec       q    Type
REMARK                         _______ _______ _______ _____ _____    ______ ____
ROOT
ATOM      1  C   UNL     1      33.008 -23.734 -13.919  0.00  0.00    -0.022 C 
ATOM      2  C   UNL     1      34.189 -23.871 -12.985  0.00  0.00    +0.031 C 
ATOM      3  C   UNL     1      31.813 -24.226 -13.525  0.00  0.00    -0.004 C 
ENDROOT
BRANCH   1  12
ATOM      4  C   UNL     1      36.701 -22.043 -15.100  0.00  0.00    +0.009 C 
ATOM      5  C   UNL     1      37.061 -21.726 -16.547  0.00  0.00    +0.027 C 
ATOM      6  C   UNL     1      35.706 -23.194 -15.044  0.00  0.00    +0.027 C 
ATOM      7  C   UNL     1      35.850 -21.603 -17.441  0.00  0.00    -0.022 C 
ATOM      8  C   UNL     1      34.433 -22.829 -15.770  0.00  0.00    -0.023 C 
ATOM      9  C   UNL     1      34.595 -22.146 -17.083  0.00  0.00    -0.008 C 
ATOM     10  C   UNL     1      36.014 -20.973 -18.687  0.00  0.00    -0.004 C 
ATOM     11  C   UNL     1      33.537 -22.033 -18.003  0.00  0.00    -0.001 C 
ATOM     12  C   UNL     1      33.241 -23.070 -15.199  0.00  0.00    -0.009 C 
ATOM     13  C   UNL     1      34.948 -20.863 -19.576  0.00  0.00    -0.000 C 
ATOM     14  C   UNL     1      33.711 -21.395 -19.234  0.00  0.00    -0.000 C 
ENDBRANCH   1  12
BRANCH   3  15
ATOM     15  C   UNL     1      30.551 -24.212 -14.242  0.00  0.00    -0.001 C 
ATOM     16  C   UNL     1      29.889 -23.074 -14.520  0.00  0.00    -0.004 C 
BRANCH  16  17
ATOM     17  C   UNL     1      28.622 -22.963 -15.242  0.00  0.00    -0.015 C 
ATOM     18  C   UNL     1      28.148 -24.180 -16.002  0.00  0.00    +0.031 C 
ATOM     19  C   UNL     1      27.867 -21.847 -15.297  0.00  0.00    +0.077 C 
BRANCH  19  21
ATOM     20  O   UNL     1      26.413 -21.316 -17.162  0.00  0.00    -0.245 OA
ATOM     21  C   UNL     1      26.579 -21.668 -16.008  0.00  0.00    +0.338 C 
BRANCH  21  22
ATOM     22  O   UNL     1      25.574 -21.949 -15.143  0.00  0.00    -0.477 OA
ATOM     23  H   UNL     1      25.269 -22.829 -15.049  0.00  0.00    +0.295 HD
ENDBRANCH  21  22
ENDBRANCH  19  21
ENDBRANCH  16  17
ENDBRANCH   3  15
TORSDOF 5
ENDMDL
MODEL 3
REMARK VINA RESULT:     -10.4      5.940      9.543
REMARK  Name = 9904203
REMARK  5 active torsions:
REMARK  status: ('A' for Active; 'I' for Inactive)
REMARK    1  A    between atoms: C_1  and  C_12
REMARK    2  A    between atoms: C_3  and  C_15
REMARK    3  A    between atoms: C_16  and  C_17
REMARK    4  A    between atoms: C_19  and  C_21
REMARK    5  A    between atoms: C_21  and  O_22
REMARK                            x       y       z     vdW  Elec       q    Type
REMARK                         _______ _______ _______ _____ _____    ______ ____
ROOT
ATOM      1  C   UNL     1      31.368 -10.224 -20.112  0.00  0.00    -0.022 C 
ATOM      2  C   UNL     1      31.162  -9.659 -18.724  0.00  0.00    +0.031 C 
ATOM      3  C   UNL     1      31.721 -11.522 -20.234  0.00  0.00    -0.004 C 
ENDROOT
BRANCH   1  12
ATOM      4  C   UNL     1      31.692  -6.013 -19.883  0.00  0.00    +0.009 C 
ATOM      5  C   UNL     1      31.889  -5.112 -21.098  0.00  0.00    +0.027 C 
ATOM      6  C   UNL     1      32.276  -7.394 -20.150  0.00  0.00    +0.027 C 
ATOM      7  C   UNL     1      31.474  -5.772 -22.392  0.00  0.00    -0.022 C 
ATOM      8  C   UNL     1      31.585  -8.042 -21.325  0.00  0.00    -0.023 C 
ATOM      9  C   UNL     1      31.345  -7.175 -22.511  0.00  0.00    -0.008 C 
ATOM     10  C   UNL     1      31.268  -4.949 -23.513  0.00  0.00    -0.004 C 
ATOM     11  C   UNL     1      31.009  -7.705 -23.770  0.00  0.00    -0.001 C 
ATOM     12  C   UNL     1      31.169  -9.318 -21.240  0.00  0.00    -0.009 C 
ATOM     13  C   UNL     1      30.924  -5.497 -24.745  0.00  0.00    -0.000 C 
ATOM     14  C   UNL     1      30.797  -6.874 -24.873  0.00  0.00    -0.000 C 
ENDBRANCH   1  12
BRANCH   3  15
ATOM     15  C   UNL     1      31.973 -12.278 -21.448  0.00  0.00    -0.001 C 
ATOM     16  C   UNL     1      33.011 -13.125 -21.572  0.00  0.00    -0.004 C 
BRANCH  16  17
ATOM     17  C   UNL     1      33.336 -13.932 -22.747  0.00  0.00    -0.015 C 
ATOM     18  C   UNL     1      34.349 -15.039 -22.570  0.00  0.00    +0.031 C 
ATOM     19  C   UNL     1      32.818 -13.737 -23.977  0.00  0.00    +0.077 C 
BRANCH  19  21
ATOM     20  O   UNL     1      33.382 -15.699 -25.284  0.00  0.00    -0.245 OA
ATOM     21  C   UNL     1      33.104 -14.515 -25.205  0.00  0.00    +0.338 C 
BRANCH  21  22
ATOM     22  O   UNL     1      33.026 -13.676 -26.267  0.00  0.00    -0.477 OA
ATOM     23  H   UNL     1      33.461 -13.893 -27.068  0.00  0.00    +0.295 HD
ENDBRANCH  21  22
ENDBRANCH  19  21
ENDBRANCH  16  17
ENDBRANCH   3  15
TORSDOF 5
ENDMDL
MODEL 4
REMARK VINA RESULT:     -10.3      4.225      9.361
REMARK  Name = 9904203
REMARK  5 active torsions:
REMARK  status: ('A' for Active; 'I' for Inactive)
REMARK    1  A    between atoms: C_1  and  C_12
REMARK    2  A    between atoms: C_3  and  C_15
REMARK    3  A    between atoms: C_16  and  C_17
REMARK    4  A    between atoms: C_19  and  C_21
REMARK    5  A    between atoms: C_21  and  O_22
REMARK                            x       y       z     vdW  Elec       q    Type
REMARK                         _______ _______ _______ _____ _____    ______ ____
ROOT
ATOM      1  C   UNL     1      35.705 -22.806 -15.849  0.00  0.00    -0.022 C 
ATOM      2  C   UNL     1      36.291 -23.823 -14.895  0.00  0.00    +0.031 C 
ATOM      3  C   UNL     1      36.544 -21.965 -16.491  0.00  0.00    -0.004 C 
ENDROOT
BRANCH   1  12
ATOM      4  C   UNL     1      32.971 -24.353 -13.016  0.00  0.00    +0.009 C 
ATOM      5  C   UNL     1      31.489 -23.994 -12.988  0.00  0.00    +0.027 C 
ATOM      6  C   UNL     1      33.778 -23.213 -13.623  0.00  0.00    +0.027 C 
ATOM      7  C   UNL     1      30.990 -23.452 -14.307  0.00  0.00    -0.022 C 
ATOM      8  C   UNL     1      33.337 -22.948 -15.042  0.00  0.00    -0.023 C 
ATOM      9  C   UNL     1      31.868 -22.933 -15.285  0.00  0.00    -0.008 C 
ATOM     10  C   UNL     1      29.601 -23.423 -14.522  0.00  0.00    -0.004 C 
ATOM     11  C   UNL     1      31.310 -22.398 -16.460  0.00  0.00    -0.001 C 
ATOM     12  C   UNL     1      34.253 -22.802 -16.014  0.00  0.00    -0.009 C 
ATOM     13  C   UNL     1      29.073 -22.899 -15.699  0.00  0.00    -0.000 C 
ATOM     14  C   UNL     1      29.928 -22.385 -16.666  0.00  0.00    -0.000 C 
ENDBRANCH   1  12
BRANCH   3  15
ATOM     15  C   UNL     1      36.219 -20.917 -17.442  0.00  0.00    -0.001 C 
ATOM     16  C   UNL     1      35.779 -21.180 -18.686  0.00  0.00    -0.004 C 
BRANCH  16  17
ATOM     17  C   UNL     1      35.420 -20.194 -19.705  0.00  0.00    -0.015 C 
ATOM     18  C   UNL     1      34.011 -20.241 -20.249  0.00  0.00    +0.031 C 
ATOM     19  C   UNL     1      36.264 -19.270 -20.208  0.00  0.00    +0.077 C 
BRANCH  19  21
ATOM     20  O   UNL     1      36.223 -18.297 -22.427  0.00  0.00    -0.245 OA
ATOM     21  C   UNL     1      35.965 -18.247 -21.238  0.00  0.00    +0.338 C 
BRANCH  21  22
ATOM     22  O   UNL     1      35.356 -17.200 -20.630  0.00  0.00    -0.477 OA
ATOM     23  H   UNL     1      35.070 -16.466 -21.137  0.00  0.00    +0.295 HD
ENDBRANCH  21  22
ENDBRANCH  19  21
ENDBRANCH  16  17
ENDBRANCH   3  15
TORSDOF 5
ENDMDL
MODEL 5
REMARK VINA RESULT:     -10.0      4.225      9.792
REMARK  Name = 9904203
REMARK  5 active torsions:
REMARK  status: ('A' for Active; 'I' for Inactive)
REMARK    1  A    between atoms: C_1  and  C_12
REMARK    2  A    between atoms: C_3  and  C_15
REMARK    3  A    between atoms: C_16  and  C_17
REMARK    4  A    between atoms: C_19  and  C_21
REMARK    5  A    between atoms: C_21  and  O_22
REMARK                            x       y       z     vdW  Elec       q    Type
REMARK                         _______ _______ _______ _____ _____    ______ ____
ROOT
ATOM      1  C   UNL     1      32.197 -23.215 -16.049  0.00  0.00    -0.022 C 
ATOM      2  C   UNL     1      31.015 -23.410 -15.128  0.00  0.00    +0.031 C 
ATOM      3  C   UNL     1      32.055 -22.401 -17.118  0.00  0.00    -0.004 C 
ENDROOT
BRANCH   1  12
ATOM      4  C   UNL     1      36.035 -21.439 -15.948  0.00  0.00    +0.009 C 
ATOM      5  C   UNL     1      37.231 -22.051 -15.228  0.00  0.00    +0.027 C 
ATOM      6  C   UNL     1      34.737 -21.875 -15.282  0.00  0.00    +0.027 C 
ATOM      7  C   UNL     1      37.074 -23.533 -14.981  0.00  0.00    -0.022 C 
ATOM      8  C   UNL     1      34.594 -23.377 -15.336  0.00  0.00    -0.023 C 
ATOM      9  C   UNL     1      35.813 -24.169 -15.013  0.00  0.00    -0.008 C 
ATOM     10  C   UNL     1      38.226 -24.272 -14.658  0.00  0.00    -0.004 C 
ATOM     11  C   UNL     1      35.755 -25.543 -14.715  0.00  0.00    -0.001 C 
ATOM     12  C   UNL     1      33.429 -23.928 -15.719  0.00  0.00    -0.009 C 
ATOM     13  C   UNL     1      38.145 -25.633 -14.380  0.00  0.00    -0.000 C 
ATOM     14  C   UNL     1      36.909 -26.267 -14.407  0.00  0.00    -0.000 C 
ENDBRANCH   1  12
BRANCH   3  15
ATOM     15  C   UNL     1      33.038 -22.062 -18.132  0.00  0.00    -0.001 C 
ATOM     16  C   UNL     1      32.970 -20.932 -18.858  0.00  0.00    -0.004 C 
BRANCH  16  17
ATOM     17  C   UNL     1      33.915 -20.506 -19.889  0.00  0.00    -0.015 C 
ATOM     18  C   UNL     1      35.268 -21.178 -19.910  0.00  0.00    +0.031 C 
ATOM     19  C   UNL     1      33.672 -19.540 -20.799  0.00  0.00    +0.077 C 
BRANCH  19  21
ATOM     20  O   UNL     1      34.601 -19.410 -23.033  0.00  0.00    -0.245 OA
ATOM     21  C   UNL     1      34.583 -19.062 -21.866  0.00  0.00    +0.338 C 
BRANCH  21  22
ATOM     22  O   UNL     1      35.437 -18.161 -21.323  0.00  0.00    -0.477 OA
ATOM     23  H   UNL     1      35.156 -17.280 -21.176  0.00  0.00    +0.295 HD
ENDBRANCH  21  22
ENDBRANCH  19  21
ENDBRANCH  16  17
ENDBRANCH   3  15
TORSDOF 5
ENDMDL
MODEL 6
REMARK VINA RESULT:      -9.6      4.079      8.730
REMARK  Name = 9904203
REMARK  5 active torsions:
REMARK  status: ('A' for Active; 'I' for Inactive)
REMARK    1  A    between atoms: C_1  and  C_12
REMARK    2  A    between atoms: C_3  and  C_15
REMARK    3  A    between atoms: C_16  and  C_17
REMARK    4  A    between atoms: C_19  and  C_21
REMARK    5  A    between atoms: C_21  and  O_22
REMARK                            x       y       z     vdW  Elec       q    Type
REMARK                         _______ _______ _______ _____ _____    ______ ____
ROOT
ATOM      1  C   UNL     1      36.433 -22.669 -15.367  0.00  0.00    -0.022 C 
ATOM      2  C   UNL     1      37.391 -23.588 -14.644  0.00  0.00    +0.031 C 
ATOM      3  C   UNL     1      36.877 -21.998 -16.452  0.00  0.00    -0.004 C 
ENDROOT
BRANCH   1  12
ATOM      4  C   UNL     1      32.935 -22.651 -17.746  0.00  0.00    +0.009 C 
ATOM      5  C   UNL     1      31.543 -22.952 -17.204  0.00  0.00    +0.027 C 
ATOM      6  C   UNL     1      33.992 -23.365 -16.913  0.00  0.00    +0.027 C 
ATOM      7  C   UNL     1      31.443 -22.775 -15.707  0.00  0.00    -0.022 C 
ATOM      8  C   UNL     1      33.940 -22.897 -15.479  0.00  0.00    -0.023 C 
ATOM      9  C   UNL     1      32.585 -22.767 -14.875  0.00  0.00    -0.008 C 
ATOM     10  C   UNL     1      30.160 -22.671 -15.141  0.00  0.00    -0.004 C 
ATOM     11  C   UNL     1      32.393 -22.653 -13.486  0.00  0.00    -0.001 C 
ATOM     12  C   UNL     1      35.075 -22.567 -14.839  0.00  0.00    -0.009 C 
ATOM     13  C   UNL     1      29.997 -22.546 -13.764  0.00  0.00    -0.000 C 
ATOM     14  C   UNL     1      31.114 -22.539 -12.938  0.00  0.00    -0.000 C 
ENDBRANCH   1  12
BRANCH   3  15
ATOM     15  C   UNL     1      36.150 -21.070 -17.300  0.00  0.00    -0.001 C 
ATOM     16  C   UNL     1      36.177 -21.143 -18.643  0.00  0.00    -0.004 C 
BRANCH  16  17
ATOM     17  C   UNL     1      35.473 -20.261 -19.573  0.00  0.00    -0.015 C 
ATOM     18  C   UNL     1      34.007 -20.539 -19.816  0.00  0.00    +0.031 C 
ATOM     19  C   UNL     1      36.045 -19.242 -20.245  0.00  0.00    +0.077 C 
BRANCH  19  21
ATOM     20  O   UNL     1      35.086 -18.538 -22.357  0.00  0.00    -0.245 OA
ATOM     21  C   UNL     1      35.391 -18.315 -21.199  0.00  0.00    +0.338 C 
BRANCH  21  22
ATOM     22  O   UNL     1      35.191 -17.131 -20.570  0.00  0.00    -0.477 OA
ATOM     23  H   UNL     1      34.938 -16.376 -21.062  0.00  0.00    +0.295 HD
ENDBRANCH  21  22
ENDBRANCH  19  21
ENDBRANCH  16  17
ENDBRANCH   3  15
TORSDOF 5
ENDMDL
MODEL 7
REMARK VINA RESULT:      -9.5      1.913      3.230
REMARK  Name = 9904203
REMARK  5 active torsions:
REMARK  status: ('A' for Active; 'I' for Inactive)
REMARK    1  A    between atoms: C_1  and  C_12
REMARK    2  A    between atoms: C_3  and  C_15
REMARK    3  A    between atoms: C_16  and  C_17
REMARK    4  A    between atoms: C_19  and  C_21
REMARK    5  A    between atoms: C_21  and  O_22
REMARK                            x       y       z     vdW  Elec       q    Type
REMARK                         _______ _______ _______ _____ _____    ______ ____
ROOT
ATOM      1  C   UNL     1      34.249 -16.082 -23.573  0.00  0.00    -0.022 C 
ATOM      2  C   UNL     1      34.386 -15.660 -25.018  0.00  0.00    +0.031 C 
ATOM      3  C   UNL     1      34.616 -17.335 -23.228  0.00  0.00    -0.004 C 
ENDROOT
BRANCH   1  12
ATOM      4  C   UNL     1      33.210 -12.114 -24.609  0.00  0.00    +0.009 C 
ATOM      5  C   UNL     1      32.303 -11.229 -23.762  0.00  0.00    +0.027 C 
ATOM      6  C   UNL     1      32.866 -13.583 -24.394  0.00  0.00    +0.027 C 
ATOM      7  C   UNL     1      32.207 -11.688 -22.326  0.00  0.00    -0.022 C 
ATOM      8  C   UNL     1      33.062 -13.966 -22.947  0.00  0.00    -0.023 C 
ATOM      9  C   UNL     1      32.551 -13.002 -21.933  0.00  0.00    -0.008 C 
ATOM     10  C   UNL     1      31.707 -10.779 -21.377  0.00  0.00    -0.004 C 
ATOM     11  C   UNL     1      32.377 -13.358 -20.584  0.00  0.00    -0.001 C 
ATOM     12  C   UNL     1      33.722 -15.094 -22.634  0.00  0.00    -0.009 C 
ATOM     13  C   UNL     1      31.556 -11.152 -20.044  0.00  0.00    -0.000 C 
ATOM     14  C   UNL     1      31.889 -12.441 -19.649  0.00  0.00    -0.000 C 
ENDBRANCH   1  12
BRANCH   3  15
ATOM     15  C   UNL     1      34.575 -17.960 -21.918  0.00  0.00    -0.001 C 
ATOM     16  C   UNL     1      34.376 -19.280 -21.752  0.00  0.00    -0.004 C 
BRANCH  16  17
ATOM     17  C   UNL     1      34.329 -19.995 -20.477  0.00  0.00    -0.015 C 
ATOM     18  C   UNL     1      32.973 -20.182 -19.837  0.00  0.00    +0.031 C 
ATOM     19  C   UNL     1      35.409 -20.470 -19.824  0.00  0.00    +0.077 C 
BRANCH  19  21
ATOM     20  O   UNL     1      34.763 -22.171 -18.223  0.00  0.00    -0.245 OA
ATOM     21  C   UNL     1      35.430 -21.200 -18.534  0.00  0.00    +0.338 C 
BRANCH  21  22
ATOM     22  O   UNL     1      36.322 -20.591 -17.716  0.00  0.00    -0.477 OA
ATOM     23  H   UNL     1      36.259 -19.670 -17.558  0.00  0.00    +0.295 HD
ENDBRANCH  21  22
ENDBRANCH  19  21
ENDBRANCH  16  17
ENDBRANCH   3  15
TORSDOF 5
ENDMDL
MODEL 8
REMARK VINA RESULT:      -9.4      5.657      8.964
REMARK  Name = 9904203
REMARK  5 active torsions:
REMARK  status: ('A' for Active; 'I' for Inactive)
REMARK    1  A    between atoms: C_1  and  C_12
REMARK    2  A    between atoms: C_3  and  C_15
REMARK    3  A    between atoms: C_16  and  C_17
REMARK    4  A    between atoms: C_19  and  C_21
REMARK    5  A    between atoms: C_21  and  O_22
REMARK                            x       y       z     vdW  Elec       q    Type
REMARK                         _______ _______ _______ _____ _____    ______ ____
ROOT
ATOM      1  C   UNL     1      32.909 -23.244 -14.270  0.00  0.00    -0.022 C 
ATOM      2  C   UNL     1      31.728 -22.702 -13.497  0.00  0.00    +0.031 C 
ATOM      3  C   UNL     1      33.692 -24.176 -13.684  0.00  0.00    -0.004 C 
ENDROOT
BRANCH   1  12
ATOM      4  C   UNL     1      36.448 -21.302 -15.533  0.00  0.00    +0.009 C 
ATOM      5  C   UNL     1      36.838 -21.122 -16.996  0.00  0.00    +0.027 C 
ATOM      6  C   UNL     1      35.581 -22.543 -15.366  0.00  0.00    +0.027 C 
ATOM      7  C   UNL     1      35.663 -21.246 -17.938  0.00  0.00    -0.022 C 
ATOM      8  C   UNL     1      34.312 -22.414 -16.173  0.00  0.00    -0.023 C 
ATOM      9  C   UNL     1      34.459 -21.879 -17.555  0.00  0.00    -0.008 C 
ATOM     10  C   UNL     1      35.815 -20.756 -19.247  0.00  0.00    -0.004 C 
ATOM     11  C   UNL     1      33.438 -21.998 -18.516  0.00  0.00    -0.001 C 
ATOM     12  C   UNL     1      33.127 -22.717 -15.615  0.00  0.00    -0.009 C 
ATOM     13  C   UNL     1      34.785 -20.874 -20.175  0.00  0.00    -0.000 C 
ATOM     14  C   UNL     1      33.599 -21.497 -19.810  0.00  0.00    -0.000 C 
ENDBRANCH   1  12
BRANCH   3  15
ATOM     15  C   UNL     1      34.868 -24.835 -14.223  0.00  0.00    -0.001 C 
ATOM     16  C   UNL     1      36.031 -24.904 -13.551  0.00  0.00    -0.004 C 
BRANCH  16  17
ATOM     17  C   UNL     1      37.259 -25.552 -14.008  0.00  0.00    -0.015 C 
ATOM     18  C   UNL     1      37.137 -26.949 -14.573  0.00  0.00    +0.031 C 
ATOM     19  C   UNL     1      38.489 -25.003 -13.935  0.00  0.00    +0.077 C 
BRANCH  19  21
ATOM     20  O   UNL     1      40.596 -26.174 -13.690  0.00  0.00    -0.245 OA
ATOM     21  C   UNL     1      39.769 -25.604 -14.378  0.00  0.00    +0.338 C 
BRANCH  21  22
ATOM     22  O   UNL     1      39.894 -25.399 -15.712  0.00  0.00    -0.477 OA
ATOM     23  H   UNL     1      39.630 -24.583 -16.087  0.00  0.00    +0.295 HD
ENDBRANCH  21  22
ENDBRANCH  19  21
ENDBRANCH  16  17
ENDBRANCH   3  15
TORSDOF 5
ENDMDL
MODEL 9
REMARK VINA RESULT:      -9.3      7.693     11.458
REMARK  Name = 9904203
REMARK  5 active torsions:
REMARK  status: ('A' for Active; 'I' for Inactive)
REMARK    1  A    between atoms: C_1  and  C_12
REMARK    2  A    between atoms: C_3  and  C_15
REMARK    3  A    between atoms: C_16  and  C_17
REMARK    4  A    between atoms: C_19  and  C_21
REMARK    5  A    between atoms: C_21  and  O_22
REMARK                            x       y       z     vdW  Elec       q    Type
REMARK                         _______ _______ _______ _____ _____    ______ ____
ROOT
ATOM      1  C   UNL     1      31.481  -5.744 -21.023  0.00  0.00    -0.022 C 
ATOM      2  C   UNL     1      30.789  -4.540 -20.424  0.00  0.00    +0.031 C 
ATOM      3  C   UNL     1      31.276  -6.954 -20.458  0.00  0.00    -0.004 C 
ENDROOT
BRANCH   1  12
ATOM      4  C   UNL     1      30.664  -7.191 -24.912  0.00  0.00    +0.009 C 
ATOM      5  C   UNL     1      31.308  -6.631 -26.176  0.00  0.00    +0.027 C 
ATOM      6  C   UNL     1      30.594  -6.117 -23.834  0.00  0.00    +0.027 C 
ATOM      7  C   UNL     1      32.589  -5.880 -25.899  0.00  0.00    -0.022 C 
ATOM      8  C   UNL     1      31.980  -5.637 -23.476  0.00  0.00    -0.023 C 
ATOM      9  C   UNL     1      32.907  -5.386 -24.614  0.00  0.00    -0.008 C 
ATOM     10  C   UNL     1      33.452  -5.631 -26.981  0.00  0.00    -0.004 C 
ATOM     11  C   UNL     1      34.096  -4.649 -24.461  0.00  0.00    -0.001 C 
ATOM     12  C   UNL     1      32.335  -5.515 -22.185  0.00  0.00    -0.009 C 
ATOM     13  C   UNL     1      34.629  -4.910 -26.802  0.00  0.00    -0.000 C 
ATOM     14  C   UNL     1      34.949  -4.418 -25.543  0.00  0.00    -0.000 C 
ENDBRANCH   1  12
BRANCH   3  15
ATOM     15  C   UNL     1      31.826  -8.239 -20.852  0.00  0.00    -0.001 C 
ATOM     16  C   UNL     1      31.188  -9.071 -21.694  0.00  0.00    -0.004 C 
BRANCH  16  17
ATOM     17  C   UNL     1      31.667 -10.375 -22.152  0.00  0.00    -0.015 C 
ATOM     18  C   UNL     1      31.214 -11.591 -21.377  0.00  0.00    +0.031 C 
ATOM     19  C   UNL     1      32.504 -10.562 -23.193  0.00  0.00    +0.077 C 
BRANCH  19  21
ATOM     20  O   UNL     1      32.666 -12.449 -24.705  0.00  0.00    -0.245 OA
ATOM     21  C   UNL     1      33.025 -11.851 -23.706  0.00  0.00    +0.338 C 
BRANCH  21  22
ATOM     22  O   UNL     1      33.984 -12.289 -22.855  0.00  0.00    -0.477 OA
ATOM     23  H   UNL     1      34.280 -13.177 -22.900  0.00  0.00    +0.295 HD
ENDBRANCH  21  22
ENDBRANCH  19  21
ENDBRANCH  16  17
ENDBRANCH   3  15
TORSDOF 5
ENDMDL
