MODEL 1
REMARK VINA RESULT:     -12.0      0.000      0.000
REMARK  Name = 25052630
REMARK  6 active torsions:
REMARK  status: ('A' for Active; 'I' for Inactive)
REMARK    1  A    between atoms: N_2  and  C_11
REMARK    2  A    between atoms: C_4  and  C_20
REMARK    3  A    between atoms: C_20  and  C_21
REMARK    4  A    between atoms: C_21  and  N_22
REMARK    5  A    between atoms: N_22  and  C_25
REMARK    6  A    between atoms: C_25  and  C_26
REMARK                            x       y       z     vdW  Elec       q    Type
REMARK                         _______ _______ _______ _____ _____    ______ ____
ROOT
ATOM      1  S   UNL     1      36.818 -26.536 -13.532  0.00  0.00    -0.018 S 
ATOM      2  N   UNL     1      36.059 -24.086 -14.654  0.00  0.00    -0.270 N 
ATOM      3  N   UNL     1      38.257 -24.560 -14.741  0.00  0.00    -0.294 N 
ATOM      4  C   UNL     1      36.739 -23.043 -15.281  0.00  0.00    +0.043 C 
ATOM      5  C   UNL     1      37.019 -25.077 -14.297  0.00  0.00    +0.142 C 
ATOM      6  C   UNL     1      38.048 -23.339 -15.326  0.00  0.00    +0.074 C 
ATOM      7  H   UNL     1      39.130 -25.006 -14.646  0.00  0.00    +0.154 HD
ENDROOT
BRANCH   2  11
ATOM      8  F   UNL     1      30.285 -23.255 -12.215  0.00  0.00    -0.201 F 
ATOM      9  F   UNL     1      29.294 -22.233 -16.725  0.00  0.00    -0.204 F 
ATOM     10  O   UNL     1      32.876 -23.626 -12.792  0.00  0.00    -0.472 OA
ATOM     11  C   UNL     1      34.636 -24.105 -14.431  0.00  0.00    +0.127 C 
ATOM     12  C   UNL     1      33.894 -23.351 -15.531  0.00  0.00    +0.054 C 
ATOM     13  C   UNL     1      34.271 -23.492 -13.083  0.00  0.00    +0.226 C 
ATOM     14  C   UNL     1      32.456 -23.141 -15.149  0.00  0.00    +0.018 C 
ATOM     15  C   UNL     1      32.038 -23.278 -13.819  0.00  0.00    +0.162 C 
ATOM     16  C   UNL     1      31.520 -22.778 -16.126  0.00  0.00    +0.029 C 
ATOM     17  C   UNL     1      30.694 -23.092 -13.481  0.00  0.00    +0.176 C 
ATOM     18  C   UNL     1      30.182 -22.580 -15.783  0.00  0.00    +0.142 C 
ATOM     19  C   UNL     1      29.769 -22.742 -14.463  0.00  0.00    +0.062 C 
ENDBRANCH   2  11
BRANCH   4  20
ATOM     20  C   UNL     1      36.058 -21.829 -15.793  0.00  0.00    +0.019 C 
BRANCH  20  21
ATOM     21  C   UNL     1      37.060 -20.813 -16.341  0.00  0.00    -0.075 C 
BRANCH  21  22
ATOM     22  N   UNL     1      36.579 -20.247 -17.596  0.00  0.00    +0.387 N 
ATOM     23  H   UNL     1      37.344 -19.750 -18.052  0.00  0.00    -0.084 HD
ATOM     24  H   UNL     1      35.811 -19.608 -17.392  0.00  0.00    -0.084 HD
BRANCH  22  25
ATOM     25  C   UNL     1      36.092 -21.293 -18.484  0.00  0.00    -0.054 C 
BRANCH  25  26
ATOM     26  C   UNL     1      34.802 -20.903 -19.155  0.00  0.00    -0.044 C 
ATOM     27  C   UNL     1      34.821 -20.064 -20.270  0.00  0.00    -0.006 C 
ATOM     28  C   UNL     1      33.588 -21.382 -18.663  0.00  0.00    -0.006 C 
ATOM     29  C   UNL     1      33.626 -19.704 -20.891  0.00  0.00    -0.000 C 
ATOM     30  C   UNL     1      32.392 -21.021 -19.286  0.00  0.00    -0.000 C 
ATOM     31  C   UNL     1      32.412 -20.182 -20.400  0.00  0.00    -0.000 C 
ENDBRANCH  25  26
ENDBRANCH  22  25
ENDBRANCH  21  22
ENDBRANCH  20  21
ENDBRANCH   4  20
TORSDOF 6
ENDMDL
MODEL 2
REMARK VINA RESULT:     -11.0      1.832      2.513
REMARK  Name = 25052630
REMARK  6 active torsions:
REMARK  status: ('A' for Active; 'I' for Inactive)
REMARK    1  A    between atoms: N_2  and  C_11
REMARK    2  A    between atoms: C_4  and  C_20
REMARK    3  A    between atoms: C_20  and  C_21
REMARK    4  A    between atoms: C_21  and  N_22
REMARK    5  A    between atoms: N_22  and  C_25
REMARK    6  A    between atoms: C_25  and  C_26
REMARK                            x       y       z     vdW  Elec       q    Type
REMARK                         _______ _______ _______ _____ _____    ______ ____
ROOT
ATOM      1  S   UNL     1      34.828 -23.819 -11.823  0.00  0.00    -0.018 S 
ATOM      2  N   UNL     1      34.601 -23.141 -14.530  0.00  0.00    -0.270 N 
ATOM      3  N   UNL     1      36.533 -22.557 -13.537  0.00  0.00    -0.294 N 
ATOM      4  C   UNL     1      35.428 -22.502 -15.452  0.00  0.00    +0.043 C 
ATOM      5  C   UNL     1      35.293 -23.188 -13.285  0.00  0.00    +0.142 C 
ATOM      6  C   UNL     1      36.576 -22.160 -14.847  0.00  0.00    +0.074 C 
ATOM      7  H   UNL     1      37.251 -22.423 -12.876  0.00  0.00    +0.154 HD
ENDROOT
BRANCH   2  11
ATOM      8  F   UNL     1      28.851 -25.739 -14.122  0.00  0.00    -0.201 F 
ATOM      9  F   UNL     1      27.736 -21.987 -16.774  0.00  0.00    -0.204 F 
ATOM     10  O   UNL     1      31.408 -24.955 -13.955  0.00  0.00    -0.472 OA
ATOM     11  C   UNL     1      33.286 -23.644 -14.835  0.00  0.00    +0.127 C 
ATOM     12  C   UNL     1      32.359 -22.523 -15.298  0.00  0.00    +0.054 C 
ATOM     13  C   UNL     1      32.657 -24.335 -13.629  0.00  0.00    +0.226 C 
ATOM     14  C   UNL     1      30.936 -23.002 -15.345  0.00  0.00    +0.018 C 
ATOM     15  C   UNL     1      30.545 -24.167 -14.672  0.00  0.00    +0.162 C 
ATOM     16  C   UNL     1      29.974 -22.264 -16.048  0.00  0.00    +0.029 C 
ATOM     17  C   UNL     1      29.220 -24.607 -14.736  0.00  0.00    +0.176 C 
ATOM     18  C   UNL     1      28.649 -22.699 -16.100  0.00  0.00    +0.142 C 
ATOM     19  C   UNL     1      28.274 -23.872 -15.448  0.00  0.00    +0.062 C 
ENDBRANCH   2  11
BRANCH   4  20
ATOM     20  C   UNL     1      35.035 -22.273 -16.864  0.00  0.00    +0.019 C 
BRANCH  20  21
ATOM     21  C   UNL     1      35.996 -21.313 -17.565  0.00  0.00    -0.075 C 
BRANCH  21  22
ATOM     22  N   UNL     1      35.873 -21.433 -19.014  0.00  0.00    +0.387 N 
ATOM     23  H   UNL     1      35.848 -22.421 -19.266  0.00  0.00    -0.084 HD
ATOM     24  H   UNL     1      36.674 -20.975 -19.448  0.00  0.00    -0.084 HD
BRANCH  22  25
ATOM     25  C   UNL     1      34.656 -20.788 -19.486  0.00  0.00    -0.054 C 
BRANCH  25  26
ATOM     26  C   UNL     1      34.944 -19.743 -20.530  0.00  0.00    -0.044 C 
ATOM     27  C   UNL     1      33.959 -19.390 -21.454  0.00  0.00    -0.006 C 
ATOM     28  C   UNL     1      36.194 -19.126 -20.574  0.00  0.00    -0.006 C 
ATOM     29  C   UNL     1      34.226 -18.422 -22.421  0.00  0.00    -0.000 C 
ATOM     30  C   UNL     1      36.460 -18.157 -21.542  0.00  0.00    -0.000 C 
ATOM     31  C   UNL     1      35.476 -17.805 -22.465  0.00  0.00    -0.000 C 
ENDBRANCH  25  26
ENDBRANCH  22  25
ENDBRANCH  21  22
ENDBRANCH  20  21
ENDBRANCH   4  20
TORSDOF 6
ENDMDL
MODEL 3
REMARK VINA RESULT:     -10.8     11.541     15.124
REMARK  Name = 25052630
REMARK  6 active torsions:
REMARK  status: ('A' for Active; 'I' for Inactive)
REMARK    1  A    between atoms: N_2  and  C_11
REMARK    2  A    between atoms: C_4  and  C_20
REMARK    3  A    between atoms: C_20  and  C_21
REMARK    4  A    between atoms: C_21  and  N_22
REMARK    5  A    between atoms: N_22  and  C_25
REMARK    6  A    between atoms: C_25  and  C_26
REMARK                            x       y       z     vdW  Elec       q    Type
REMARK                         _______ _______ _______ _____ _____    ______ ____
ROOT
ATOM      1  S   UNL     1      31.164  -9.723 -19.434  0.00  0.00    -0.018 S 
ATOM      2  N   UNL     1      31.828 -10.764 -21.947  0.00  0.00    -0.270 N 
ATOM      3  N   UNL     1      31.841 -12.237 -20.245  0.00  0.00    -0.294 N 
ATOM      4  C   UNL     1      32.179 -12.026 -22.422  0.00  0.00    +0.043 C 
ATOM      5  C   UNL     1      31.604 -10.875 -20.543  0.00  0.00    +0.142 C 
ATOM      6  C   UNL     1      32.183 -12.894 -21.398  0.00  0.00    +0.074 C 
ATOM      7  H   UNL     1      31.772 -12.647 -19.353  0.00  0.00    +0.154 HD
ENDROOT
BRANCH   2  11
ATOM      8  F   UNL     1      30.011  -5.256 -24.465  0.00  0.00    -0.201 F 
ATOM      9  F   UNL     1      34.682  -4.520 -24.466  0.00  0.00    -0.204 F 
ATOM     10  O   UNL     1      30.315  -7.653 -23.303  0.00  0.00    -0.472 OA
ATOM     11  C   UNL     1      31.725  -9.588 -22.772  0.00  0.00    +0.127 C 
ATOM     12  C   UNL     1      32.972  -8.716 -22.650  0.00  0.00    +0.054 C 
ATOM     13  C   UNL     1      30.503  -8.752 -22.405  0.00  0.00    +0.226 C 
ATOM     14  C   UNL     1      32.742  -7.375 -23.288  0.00  0.00    +0.018 C 
ATOM     15  C   UNL     1      31.445  -6.922 -23.564  0.00  0.00    +0.162 C 
ATOM     16  C   UNL     1      33.833  -6.550 -23.589  0.00  0.00    +0.029 C 
ATOM     17  C   UNL     1      31.248  -5.678 -24.169  0.00  0.00    +0.176 C 
ATOM     18  C   UNL     1      33.632  -5.302 -24.182  0.00  0.00    +0.142 C 
ATOM     19  C   UNL     1      32.341  -4.869 -24.475  0.00  0.00    +0.062 C 
ENDBRANCH   2  11
BRANCH   4  20
ATOM     20  C   UNL     1      32.487 -12.294 -23.848  0.00  0.00    +0.019 C 
BRANCH  20  21
ATOM     21  C   UNL     1      33.560 -13.371 -23.998  0.00  0.00    -0.075 C 
BRANCH  21  22
ATOM     22  N   UNL     1      32.949 -14.670 -24.253  0.00  0.00    +0.387 N 
ATOM     23  H   UNL     1      32.291 -14.583 -25.028  0.00  0.00    -0.084 HD
ATOM     24  H   UNL     1      32.466 -14.975 -23.409  0.00  0.00    -0.084 HD
BRANCH  22  25
ATOM     25  C   UNL     1      33.960 -15.661 -24.595  0.00  0.00    -0.054 C 
BRANCH  25  26
ATOM     26  C   UNL     1      34.198 -16.631 -23.469  0.00  0.00    -0.044 C 
ATOM     27  C   UNL     1      33.960 -17.993 -23.660  0.00  0.00    -0.006 C 
ATOM     28  C   UNL     1      34.658 -16.170 -22.237  0.00  0.00    -0.006 C 
ATOM     29  C   UNL     1      34.181 -18.892 -22.617  0.00  0.00    -0.000 C 
ATOM     30  C   UNL     1      34.880 -17.070 -21.193  0.00  0.00    -0.000 C 
ATOM     31  C   UNL     1      34.641 -18.431 -21.384  0.00  0.00    -0.000 C 
ENDBRANCH  25  26
ENDBRANCH  22  25
ENDBRANCH  21  22
ENDBRANCH  20  21
ENDBRANCH   4  20
TORSDOF 6
ENDMDL
MODEL 4
REMARK VINA RESULT:     -10.8      3.306      5.329
REMARK  Name = 25052630
REMARK  6 active torsions:
REMARK  status: ('A' for Active; 'I' for Inactive)
REMARK    1  A    between atoms: N_2  and  C_11
REMARK    2  A    between atoms: C_4  and  C_20
REMARK    3  A    between atoms: C_20  and  C_21
REMARK    4  A    between atoms: C_21  and  N_22
REMARK    5  A    between atoms: N_22  and  C_25
REMARK    6  A    between atoms: C_25  and  C_26
REMARK                            x       y       z     vdW  Elec       q    Type
REMARK                         _______ _______ _______ _____ _____    ______ ____
ROOT
ATOM      1  S   UNL     1      30.987 -24.365 -13.145  0.00  0.00    -0.018 S 
ATOM      2  N   UNL     1      32.670 -23.287 -15.106  0.00  0.00    -0.270 N 
ATOM      3  N   UNL     1      30.494 -23.434 -15.660  0.00  0.00    -0.294 N 
ATOM      4  C   UNL     1      32.481 -22.798 -16.397  0.00  0.00    +0.043 C 
ATOM      5  C   UNL     1      31.400 -23.704 -14.609  0.00  0.00    +0.142 C 
ATOM      6  C   UNL     1      31.180 -22.892 -16.714  0.00  0.00    +0.074 C 
ATOM      7  H   UNL     1      29.525 -23.609 -15.639  0.00  0.00    +0.154 HD
ENDROOT
BRANCH   2  11
ATOM      8  F   UNL     1      37.236 -23.948 -10.782  0.00  0.00    -0.201 F 
ATOM      9  F   UNL     1      39.304 -26.269 -14.345  0.00  0.00    -0.204 F 
ATOM     10  O   UNL     1      35.035 -23.510 -12.248  0.00  0.00    -0.472 OA
ATOM     11  C   UNL     1      33.945 -23.340 -14.439  0.00  0.00    +0.127 C 
ATOM     12  C   UNL     1      34.831 -24.437 -15.026  0.00  0.00    +0.054 C 
ATOM     13  C   UNL     1      33.785 -23.587 -12.942  0.00  0.00    +0.226 C 
ATOM     14  C   UNL     1      36.033 -24.666 -14.154  0.00  0.00    +0.018 C 
ATOM     15  C   UNL     1      36.061 -24.206 -12.831  0.00  0.00    +0.162 C 
ATOM     16  C   UNL     1      37.134 -25.373 -14.656  0.00  0.00    +0.029 C 
ATOM     17  C   UNL     1      37.192 -24.417 -12.036  0.00  0.00    +0.176 C 
ATOM     18  C   UNL     1      38.256 -25.593 -13.856  0.00  0.00    +0.142 C 
ATOM     19  C   UNL     1      38.287 -25.111 -12.549  0.00  0.00    +0.062 C 
ENDBRANCH   2  11
BRANCH   4  20
ATOM     20  C   UNL     1      33.590 -22.273 -17.230  0.00  0.00    +0.019 C 
BRANCH  20  21
ATOM     21  C   UNL     1      33.087 -21.778 -18.586  0.00  0.00    -0.075 C 
BRANCH  21  22
ATOM     22  N   UNL     1      34.152 -21.843 -19.581  0.00  0.00    +0.387 N 
ATOM     23  H   UNL     1      33.752 -21.695 -20.508  0.00  0.00    -0.084 HD
ATOM     24  H   UNL     1      34.593 -22.760 -19.526  0.00  0.00    -0.084 HD
BRANCH  22  25
ATOM     25  C   UNL     1      35.161 -20.825 -19.328  0.00  0.00    -0.054 C 
BRANCH  25  26
ATOM     26  C   UNL     1      35.206 -19.795 -20.425  0.00  0.00    -0.044 C 
ATOM     27  C   UNL     1      34.097 -19.607 -21.252  0.00  0.00    -0.006 C 
ATOM     28  C   UNL     1      36.355 -19.027 -20.614  0.00  0.00    -0.006 C 
ATOM     29  C   UNL     1      34.139 -18.653 -22.268  0.00  0.00    -0.000 C 
ATOM     30  C   UNL     1      36.395 -18.072 -21.631  0.00  0.00    -0.000 C 
ATOM     31  C   UNL     1      35.288 -17.886 -22.458  0.00  0.00    -0.000 C 
ENDBRANCH  25  26
ENDBRANCH  22  25
ENDBRANCH  21  22
ENDBRANCH  20  21
ENDBRANCH   4  20
TORSDOF 6
ENDMDL
MODEL 5
REMARK VINA RESULT:     -10.7      2.144      3.082
REMARK  Name = 25052630
REMARK  6 active torsions:
REMARK  status: ('A' for Active; 'I' for Inactive)
REMARK    1  A    between atoms: N_2  and  C_11
REMARK    2  A    between atoms: C_4  and  C_20
REMARK    3  A    between atoms: C_20  and  C_21
REMARK    4  A    between atoms: C_21  and  N_22
REMARK    5  A    between atoms: N_22  and  C_25
REMARK    6  A    between atoms: C_25  and  C_26
REMARK                            x       y       z     vdW  Elec       q    Type
REMARK                         _______ _______ _______ _____ _____    ______ ____
ROOT
ATOM      1  S   UNL     1      36.507 -22.795 -13.804  0.00  0.00    -0.018 S 
ATOM      2  N   UNL     1      34.954 -22.460 -16.110  0.00  0.00    -0.270 N 
ATOM      3  N   UNL     1      37.006 -21.538 -16.172  0.00  0.00    -0.294 N 
ATOM      4  C   UNL     1      35.150 -21.834 -17.340  0.00  0.00    +0.043 C 
ATOM      5  C   UNL     1      36.140 -22.282 -15.339  0.00  0.00    +0.142 C 
ATOM      6  C   UNL     1      36.376 -21.290 -17.363  0.00  0.00    +0.074 C 
ATOM      7  H   UNL     1      37.915 -21.245 -15.935  0.00  0.00    +0.154 HD
ENDROOT
BRANCH   2  11
ATOM      8  F   UNL     1      30.214 -25.054 -12.826  0.00  0.00    -0.201 F 
ATOM      9  F   UNL     1      27.660 -22.981 -16.222  0.00  0.00    -0.204 F 
ATOM     10  O   UNL     1      32.494 -24.075 -13.841  0.00  0.00    -0.472 OA
ATOM     11  C   UNL     1      33.746 -23.149 -15.736  0.00  0.00    +0.127 C 
ATOM     12  C   UNL     1      32.511 -22.430 -16.272  0.00  0.00    +0.054 C 
ATOM     13  C   UNL     1      33.621 -23.277 -14.221  0.00  0.00    +0.226 C 
ATOM     14  C   UNL     1      31.263 -22.992 -15.652  0.00  0.00    +0.018 C 
ATOM     15  C   UNL     1      31.324 -23.762 -14.482  0.00  0.00    +0.162 C 
ATOM     16  C   UNL     1      30.015 -22.725 -16.230  0.00  0.00    +0.029 C 
ATOM     17  C   UNL     1      30.156 -24.289 -13.924  0.00  0.00    +0.176 C 
ATOM     18  C   UNL     1      28.849 -23.242 -15.662  0.00  0.00    +0.142 C 
ATOM     19  C   UNL     1      28.920 -24.026 -14.514  0.00  0.00    +0.062 C 
ENDBRANCH   2  11
BRANCH   4  20
ATOM     20  C   UNL     1      34.120 -21.815 -18.407  0.00  0.00    +0.019 C 
BRANCH  20  21
ATOM     21  C   UNL     1      34.727 -21.463 -19.765  0.00  0.00    -0.075 C 
BRANCH  21  22
ATOM     22  N   UNL     1      34.147 -20.227 -20.280  0.00  0.00    +0.387 N 
ATOM     23  H   UNL     1      33.542 -19.820 -19.566  0.00  0.00    -0.084 HD
ATOM     24  H   UNL     1      33.610 -20.444 -21.119  0.00  0.00    -0.084 HD
BRANCH  22  25
ATOM     25  C   UNL     1      35.188 -19.270 -20.627  0.00  0.00    -0.054 C 
BRANCH  25  26
ATOM     26  C   UNL     1      34.771 -18.376 -21.764  0.00  0.00    -0.044 C 
ATOM     27  C   UNL     1      35.006 -17.002 -21.692  0.00  0.00    -0.006 C 
ATOM     28  C   UNL     1      34.153 -18.920 -22.889  0.00  0.00    -0.006 C 
ATOM     29  C   UNL     1      34.620 -16.173 -22.745  0.00  0.00    -0.000 C 
ATOM     30  C   UNL     1      33.768 -18.090 -23.943  0.00  0.00    -0.000 C 
ATOM     31  C   UNL     1      34.002 -16.717 -23.870  0.00  0.00    -0.000 C 
ENDBRANCH  25  26
ENDBRANCH  22  25
ENDBRANCH  21  22
ENDBRANCH  20  21
ENDBRANCH   4  20
TORSDOF 6
ENDMDL
MODEL 6
REMARK VINA RESULT:     -10.7      1.738      2.882
REMARK  Name = 25052630
REMARK  6 active torsions:
REMARK  status: ('A' for Active; 'I' for Inactive)
REMARK    1  A    between atoms: N_2  and  C_11
REMARK    2  A    between atoms: C_4  and  C_20
REMARK    3  A    between atoms: C_20  and  C_21
REMARK    4  A    between atoms: C_21  and  N_22
REMARK    5  A    between atoms: N_22  and  C_25
REMARK    6  A    between atoms: C_25  and  C_26
REMARK                            x       y       z     vdW  Elec       q    Type
REMARK                         _______ _______ _______ _____ _____    ______ ____
ROOT
ATOM      1  S   UNL     1      36.274 -24.845 -13.681  0.00  0.00    -0.018 S 
ATOM      2  N   UNL     1      35.831 -22.716 -15.445  0.00  0.00    -0.270 N 
ATOM      3  N   UNL     1      37.968 -23.397 -15.253  0.00  0.00    -0.294 N 
ATOM      4  C   UNL     1      36.646 -21.942 -16.268  0.00  0.00    +0.043 C 
ATOM      5  C   UNL     1      36.663 -23.663 -14.778  0.00  0.00    +0.142 C 
ATOM      6  C   UNL     1      37.916 -22.359 -16.144  0.00  0.00    +0.074 C 
ATOM      7  H   UNL     1      38.783 -23.880 -14.985  0.00  0.00    +0.154 HD
ENDROOT
BRANCH   2  11
ATOM      8  F   UNL     1      29.610 -22.646 -16.573  0.00  0.00    -0.201 F 
ATOM      9  F   UNL     1      29.504 -24.373 -12.172  0.00  0.00    -0.204 F 
ATOM     10  O   UNL     1      32.290 -22.588 -16.564  0.00  0.00    -0.472 OA
ATOM     11  C   UNL     1      34.406 -22.546 -15.325  0.00  0.00    +0.127 C 
ATOM     12  C   UNL     1      33.837 -23.424 -14.213  0.00  0.00    +0.054 C 
ATOM     13  C   UNL     1      33.690 -22.880 -16.629  0.00  0.00    +0.226 C 
ATOM     14  C   UNL     1      32.336 -23.449 -14.279  0.00  0.00    +0.018 C 
ATOM     15  C   UNL     1      31.659 -23.046 -15.438  0.00  0.00    +0.162 C 
ATOM     16  C   UNL     1      31.597 -23.906 -13.179  0.00  0.00    +0.029 C 
ATOM     17  C   UNL     1      30.262 -23.063 -15.479  0.00  0.00    +0.176 C 
ATOM     18  C   UNL     1      30.202 -23.934 -13.228  0.00  0.00    +0.142 C 
ATOM     19  C   UNL     1      29.536 -23.509 -14.375  0.00  0.00    +0.062 C 
ENDBRANCH   2  11
BRANCH   4  20
ATOM     20  C   UNL     1      36.122 -20.847 -17.121  0.00  0.00    +0.019 C 
BRANCH  20  21
ATOM     21  C   UNL     1      36.048 -21.266 -18.589  0.00  0.00    -0.075 C 
BRANCH  21  22
ATOM     22  N   UNL     1      35.923 -20.095 -19.449  0.00  0.00    +0.387 N 
ATOM     23  H   UNL     1      36.714 -20.067 -20.093  0.00  0.00    -0.084 HD
ATOM     24  H   UNL     1      35.911 -19.260 -18.864  0.00  0.00    -0.084 HD
BRANCH  22  25
ATOM     25  C   UNL     1      34.685 -20.144 -20.215  0.00  0.00    -0.054 C 
BRANCH  25  26
ATOM     26  C   UNL     1      34.601 -19.023 -21.217  0.00  0.00    -0.044 C 
ATOM     27  C   UNL     1      35.054 -17.748 -20.877  0.00  0.00    -0.006 C 
ATOM     28  C   UNL     1      34.072 -19.260 -22.485  0.00  0.00    -0.006 C 
ATOM     29  C   UNL     1      34.977 -16.710 -21.805  0.00  0.00    -0.000 C 
ATOM     30  C   UNL     1      33.995 -18.221 -23.414  0.00  0.00    -0.000 C 
ATOM     31  C   UNL     1      34.447 -16.946 -23.073  0.00  0.00    -0.000 C 
ENDBRANCH  25  26
ENDBRANCH  22  25
ENDBRANCH  21  22
ENDBRANCH  20  21
ENDBRANCH   4  20
TORSDOF 6
ENDMDL
MODEL 7
REMARK VINA RESULT:     -10.7      8.979     12.376
REMARK  Name = 25052630
REMARK  6 active torsions:
REMARK  status: ('A' for Active; 'I' for Inactive)
REMARK    1  A    between atoms: N_2  and  C_11
REMARK    2  A    between atoms: C_4  and  C_20
REMARK    3  A    between atoms: C_20  and  C_21
REMARK    4  A    between atoms: C_21  and  N_22
REMARK    5  A    between atoms: N_22  and  C_25
REMARK    6  A    between atoms: C_25  and  C_26
REMARK                            x       y       z     vdW  Elec       q    Type
REMARK                         _______ _______ _______ _____ _____    ______ ____
ROOT
ATOM      1  S   UNL     1      32.628 -13.085 -26.216  0.00  0.00    -0.018 S 
ATOM      2  N   UNL     1      33.440 -13.725 -23.614  0.00  0.00    -0.270 N 
ATOM      3  N   UNL     1      33.456 -15.425 -25.088  0.00  0.00    -0.294 N 
ATOM      4  C   UNL     1      33.870 -14.890 -22.981  0.00  0.00    +0.043 C 
ATOM      5  C   UNL     1      33.167 -14.046 -24.976  0.00  0.00    +0.142 C 
ATOM      6  C   UNL     1      33.875 -15.895 -23.871  0.00  0.00    +0.074 C 
ATOM      7  H   UNL     1      33.370 -15.963 -25.908  0.00  0.00    +0.154 HD
ENDROOT
BRANCH   2  11
ATOM      8  F   UNL     1      32.608  -7.572 -22.421  0.00  0.00    -0.201 F 
ATOM      9  F   UNL     1      29.939  -9.327 -18.936  0.00  0.00    -0.204 F 
ATOM     10  O   UNL     1      33.159 -10.030 -23.337  0.00  0.00    -0.472 OA
ATOM     11  C   UNL     1      33.311 -12.449 -22.959  0.00  0.00    +0.127 C 
ATOM     12  C   UNL     1      32.114 -12.432 -22.012  0.00  0.00    +0.054 C 
ATOM     13  C   UNL     1      33.155 -11.315 -23.968  0.00  0.00    +0.226 C 
ATOM     14  C   UNL     1      31.826 -11.031 -21.552  0.00  0.00    +0.018 C 
ATOM     15  C   UNL     1      32.348  -9.926 -22.237  0.00  0.00    +0.162 C 
ATOM     16  C   UNL     1      31.002 -10.818 -20.438  0.00  0.00    +0.029 C 
ATOM     17  C   UNL     1      32.082  -8.629 -21.789  0.00  0.00    +0.176 C 
ATOM     18  C   UNL     1      30.727  -9.521 -20.001  0.00  0.00    +0.142 C 
ATOM     19  C   UNL     1      31.270  -8.429 -20.673  0.00  0.00    +0.062 C 
ENDBRANCH   2  11
BRANCH   4  20
ATOM     20  C   UNL     1      34.248 -14.936 -21.548  0.00  0.00    +0.019 C 
BRANCH  20  21
ATOM     21  C   UNL     1      33.980 -16.313 -20.941  0.00  0.00    -0.075 C 
BRANCH  21  22
ATOM     22  N   UNL     1      35.188 -17.129 -20.971  0.00  0.00    +0.387 N 
ATOM     23  H   UNL     1      35.489 -17.315 -20.014  0.00  0.00    -0.084 HD
ATOM     24  H   UNL     1      35.912 -16.622 -21.479  0.00  0.00    -0.084 HD
BRANCH  22  25
ATOM     25  C   UNL     1      34.943 -18.394 -21.649  0.00  0.00    -0.054 C 
BRANCH  25  26
ATOM     26  C   UNL     1      34.610 -19.496 -20.678  0.00  0.00    -0.044 C 
ATOM     27  C   UNL     1      33.279 -19.848 -20.452  0.00  0.00    -0.006 C 
ATOM     28  C   UNL     1      35.632 -20.165 -20.007  0.00  0.00    -0.006 C 
ATOM     29  C   UNL     1      32.971 -20.869 -19.554  0.00  0.00    -0.000 C 
ATOM     30  C   UNL     1      35.323 -21.187 -19.107  0.00  0.00    -0.000 C 
ATOM     31  C   UNL     1      33.993 -21.538 -18.881  0.00  0.00    -0.000 C 
ENDBRANCH  25  26
ENDBRANCH  22  25
ENDBRANCH  21  22
ENDBRANCH  20  21
ENDBRANCH   4  20
TORSDOF 6
ENDMDL
MODEL 8
REMARK VINA RESULT:     -10.4      3.397      6.701
REMARK  Name = 25052630
REMARK  6 active torsions:
REMARK  status: ('A' for Active; 'I' for Inactive)
REMARK    1  A    between atoms: N_2  and  C_11
REMARK    2  A    between atoms: C_4  and  C_20
REMARK    3  A    between atoms: C_20  and  C_21
REMARK    4  A    between atoms: C_21  and  N_22
REMARK    5  A    between atoms: N_22  and  C_25
REMARK    6  A    between atoms: C_25  and  C_26
REMARK                            x       y       z     vdW  Elec       q    Type
REMARK                         _______ _______ _______ _____ _____    ______ ____
ROOT
ATOM      1  S   UNL     1      29.112 -22.612 -16.127  0.00  0.00    -0.018 S 
ATOM      2  N   UNL     1      31.593 -23.304 -15.030  0.00  0.00    -0.270 N 
ATOM      3  N   UNL     1      29.798 -24.255 -14.061  0.00  0.00    -0.294 N 
ATOM      4  C   UNL     1      32.006 -24.129 -13.985  0.00  0.00    +0.043 C 
ATOM      5  C   UNL     1      30.170 -23.369 -15.098  0.00  0.00    +0.142 C 
ATOM      6  C   UNL     1      30.926 -24.690 -13.418  0.00  0.00    +0.074 C 
ATOM      7  H   UNL     1      28.876 -24.518 -13.838  0.00  0.00    +0.154 HD
ENDROOT
BRANCH   2  11
ATOM      8  F   UNL     1      36.469 -21.470 -18.613  0.00  0.00    -0.201 F 
ATOM      9  F   UNL     1      32.960 -19.742 -21.269  0.00  0.00    -0.204 F 
ATOM     10  O   UNL     1      34.729 -22.507 -16.858  0.00  0.00    -0.472 OA
ATOM     11  C   UNL     1      32.488 -22.541 -15.861  0.00  0.00    +0.127 C 
ATOM     12  C   UNL     1      31.831 -22.174 -17.189  0.00  0.00    +0.054 C 
ATOM     13  C   UNL     1      33.777 -23.305 -16.145  0.00  0.00    +0.226 C 
ATOM     14  C   UNL     1      32.851 -21.627 -18.148  0.00  0.00    +0.018 C 
ATOM     15  C   UNL     1      34.221 -21.832 -17.936  0.00  0.00    +0.162 C 
ATOM     16  C   UNL     1      32.432 -20.925 -19.285  0.00  0.00    +0.029 C 
ATOM     17  C   UNL     1      35.157 -21.306 -18.830  0.00  0.00    +0.176 C 
ATOM     18  C   UNL     1      33.370 -20.412 -20.183  0.00  0.00    +0.142 C 
ATOM     19  C   UNL     1      34.731 -20.599 -19.953  0.00  0.00    +0.062 C 
ENDBRANCH   2  11
BRANCH   4  20
ATOM     20  C   UNL     1      33.431 -24.311 -13.617  0.00  0.00    +0.019 C 
BRANCH  20  21
ATOM     21  C   UNL     1      33.787 -23.535 -12.349  0.00  0.00    -0.075 C 
BRANCH  21  22
ATOM     22  N   UNL     1      35.185 -23.121 -12.378  0.00  0.00    +0.387 N 
ATOM     23  H   UNL     1      35.329 -22.386 -11.687  0.00  0.00    -0.084 HD
ATOM     24  H   UNL     1      35.403 -22.778 -13.313  0.00  0.00    -0.084 HD
BRANCH  22  25
ATOM     25  C   UNL     1      36.064 -24.241 -12.076  0.00  0.00    -0.054 C 
BRANCH  25  26
ATOM     26  C   UNL     1      37.211 -24.332 -13.047  0.00  0.00    -0.044 C 
ATOM     27  C   UNL     1      37.197 -23.570 -14.216  0.00  0.00    -0.006 C 
ATOM     28  C   UNL     1      38.288 -25.176 -12.776  0.00  0.00    -0.006 C 
ATOM     29  C   UNL     1      38.260 -23.654 -15.114  0.00  0.00    -0.000 C 
ATOM     30  C   UNL     1      39.351 -25.259 -13.677  0.00  0.00    -0.000 C 
ATOM     31  C   UNL     1      39.337 -24.498 -14.845  0.00  0.00    -0.000 C 
ENDBRANCH  25  26
ENDBRANCH  22  25
ENDBRANCH  21  22
ENDBRANCH  20  21
ENDBRANCH   4  20
TORSDOF 6
ENDMDL
MODEL 9
REMARK VINA RESULT:     -10.4     13.022     16.604
REMARK  Name = 25052630
REMARK  6 active torsions:
REMARK  status: ('A' for Active; 'I' for Inactive)
REMARK    1  A    between atoms: N_2  and  C_11
REMARK    2  A    between atoms: C_4  and  C_20
REMARK    3  A    between atoms: C_20  and  C_21
REMARK    4  A    between atoms: C_21  and  N_22
REMARK    5  A    between atoms: N_22  and  C_25
REMARK    6  A    between atoms: C_25  and  C_26
REMARK                            x       y       z     vdW  Elec       q    Type
REMARK                         _______ _______ _______ _____ _____    ______ ____
ROOT
ATOM      1  S   UNL     1      32.249  -5.843 -19.604  0.00  0.00    -0.018 S 
ATOM      2  N   UNL     1      31.556  -8.087 -21.127  0.00  0.00    -0.270 N 
ATOM      3  N   UNL     1      31.575  -8.389 -18.897  0.00  0.00    -0.294 N 
ATOM      4  C   UNL     1      31.205  -9.402 -20.829  0.00  0.00    +0.043 C 
ATOM      5  C   UNL     1      31.800  -7.413 -19.895  0.00  0.00    +0.142 C 
ATOM      6  C   UNL     1      31.220  -9.568 -19.497  0.00  0.00    +0.074 C 
ATOM      7  H   UNL     1      31.661  -8.245 -17.927  0.00  0.00    +0.154 HD
ENDROOT
BRANCH   2  11
ATOM      8  F   UNL     1      31.089  -4.379 -26.227  0.00  0.00    -0.201 F 
ATOM      9  F   UNL     1      35.583  -5.747 -26.766  0.00  0.00    -0.204 F 
ATOM     10  O   UNL     1      30.866  -5.758 -23.940  0.00  0.00    -0.472 OA
ATOM     11  C   UNL     1      31.644  -7.556 -22.463  0.00  0.00    +0.127 C 
ATOM     12  C   UNL     1      33.097  -7.345 -22.880  0.00  0.00    +0.054 C 
ATOM     13  C   UNL     1      30.900  -6.230 -22.588  0.00  0.00    +0.226 C 
ATOM     14  C   UNL     1      33.170  -6.542 -24.148  0.00  0.00    +0.018 C 
ATOM     15  C   UNL     1      32.070  -5.797 -24.593  0.00  0.00    +0.162 C 
ATOM     16  C   UNL     1      34.360  -6.512 -24.887  0.00  0.00    +0.029 C 
ATOM     17  C   UNL     1      32.150  -5.065 -25.781  0.00  0.00    +0.176 C 
ATOM     18  C   UNL     1      34.441  -5.770 -26.066  0.00  0.00    +0.142 C 
ATOM     19  C   UNL     1      33.335  -5.051 -26.515  0.00  0.00    +0.062 C 
ENDBRANCH   2  11
BRANCH   4  20
ATOM     20  C   UNL     1      30.878 -10.406 -21.871  0.00  0.00    +0.019 C 
BRANCH  20  21
ATOM     21  C   UNL     1      31.445 -11.782 -21.523  0.00  0.00    -0.075 C 
BRANCH  21  22
ATOM     22  N   UNL     1      31.968 -12.436 -22.717  0.00  0.00    +0.387 N 
ATOM     23  H   UNL     1      31.725 -11.880 -23.536  0.00  0.00    -0.084 HD
ATOM     24  H   UNL     1      31.558 -13.367 -22.785  0.00  0.00    -0.084 HD
BRANCH  22  25
ATOM     25  C   UNL     1      33.416 -12.569 -22.643  0.00  0.00    -0.054 C 
BRANCH  25  26
ATOM     26  C   UNL     1      33.835 -13.986 -22.352  0.00  0.00    -0.044 C 
ATOM     27  C   UNL     1      34.198 -14.835 -23.398  0.00  0.00    -0.006 C 
ATOM     28  C   UNL     1      33.863 -14.448 -21.036  0.00  0.00    -0.006 C 
ATOM     29  C   UNL     1      34.587 -16.147 -23.128  0.00  0.00    -0.000 C 
ATOM     30  C   UNL     1      34.252 -15.761 -20.767  0.00  0.00    -0.000 C 
ATOM     31  C   UNL     1      34.614 -16.609 -21.812  0.00  0.00    -0.000 C 
ENDBRANCH  25  26
ENDBRANCH  22  25
ENDBRANCH  21  22
ENDBRANCH  20  21
ENDBRANCH   4  20
TORSDOF 6
ENDMDL
