MODEL 1
REMARK VINA RESULT:     -11.7      0.000      0.000
REMARK  Name = 5278689
REMARK  6 active torsions:
REMARK  status: ('A' for Active; 'I' for Inactive)
REMARK    1  A    between atoms: C_1  and  O_2
REMARK    2  A    between atoms: C_1  and  C_14
REMARK    3  A    between atoms: O_2  and  C_4
REMARK    4  A    between atoms: C_4  and  N_5
REMARK    5  A    between atoms: N_5  and  C_8
REMARK    6  A    between atoms: C_14  and  N_17
REMARK                            x       y       z     vdW  Elec       q    Type
REMARK                         _______ _______ _______ _____ _____    ______ ____
ROOT
ATOM      1  C   UNL     1      34.159 -18.930 -22.146  0.00  0.00    +0.229 C 
ENDROOT
BRANCH   1   2
ATOM      2  O   UNL     1      34.518 -19.303 -20.822  0.00  0.00    -0.456 OA
BRANCH   2   4
ATOM      3  S   UNL     1      32.258 -20.362 -19.871  0.00  0.00    +0.006 S 
ATOM      4  C   UNL     1      33.915 -20.303 -20.105  0.00  0.00    +0.233 C 
BRANCH   4   5
ATOM      5  N   UNL     1      34.725 -21.285 -19.570  0.00  0.00    -0.278 N 
ATOM      6  H   UNL     1      35.195 -21.833 -20.240  0.00  0.00    +0.156 HD
BRANCH   5   8
ATOM      7 BR   UNL     1      35.895 -22.812 -13.808  0.00  0.00    -0.049 Br
ATOM      8  C   UNL     1      34.998 -21.642 -18.226  0.00  0.00    +0.051 C 
ATOM      9  C   UNL     1      36.231 -21.327 -17.681  0.00  0.00    +0.015 C 
ATOM     10  C   UNL     1      34.026 -22.296 -17.490  0.00  0.00    +0.015 C 
ATOM     11  C   UNL     1      36.500 -21.677 -16.357  0.00  0.00    +0.008 C 
ATOM     12  C   UNL     1      34.294 -22.646 -16.167  0.00  0.00    +0.008 C 
ATOM     13  C   UNL     1      35.531 -22.336 -15.600  0.00  0.00    +0.035 C 
ENDBRANCH   5   8
ENDBRANCH   4   5
ENDBRANCH   2   4
ENDBRANCH   1   2
BRANCH   1  14
ATOM     14  C   UNL     1      35.135 -17.887 -22.659  0.00  0.00    +0.149 C 
BRANCH  14  17
ATOM     15  O   UNL     1      34.157 -16.262 -24.958  0.00  0.00    -0.269 OA
ATOM     16  O   UNL     1      34.600 -16.072 -20.351  0.00  0.00    -0.269 OA
ATOM     17  N   UNL     1      34.548 -16.562 -22.656  0.00  0.00    -0.219 N 
ATOM     18  C   UNL     1      33.598 -14.623 -23.340  0.00  0.00    +0.058 C 
ATOM     19  C   UNL     1      33.732 -14.567 -21.961  0.00  0.00    +0.058 C 
ATOM     20  C   UNL     1      34.127 -15.907 -23.795  0.00  0.00    +0.255 C 
ATOM     21  C   UNL     1      34.347 -15.816 -21.513  0.00  0.00    +0.255 C 
ATOM     22  C   UNL     1      33.047 -13.585 -24.064  0.00  0.00    +0.005 C 
ATOM     23  C   UNL     1      33.320 -13.470 -21.231  0.00  0.00    +0.005 C 
ATOM     24  C   UNL     1      32.623 -12.463 -23.345  0.00  0.00    +0.000 C 
ATOM     25  C   UNL     1      32.758 -12.406 -21.943  0.00  0.00    +0.000 C 
ENDBRANCH  14  17
ENDBRANCH   1  14
TORSDOF 6
ENDMDL
MODEL 2
REMARK VINA RESULT:     -11.7      0.079      1.798
REMARK  Name = 5278689
REMARK  6 active torsions:
REMARK  status: ('A' for Active; 'I' for Inactive)
REMARK    1  A    between atoms: C_1  and  O_2
REMARK    2  A    between atoms: C_1  and  C_14
REMARK    3  A    between atoms: O_2  and  C_4
REMARK    4  A    between atoms: C_4  and  N_5
REMARK    5  A    between atoms: N_5  and  C_8
REMARK    6  A    between atoms: C_14  and  N_17
REMARK                            x       y       z     vdW  Elec       q    Type
REMARK                         _______ _______ _______ _____ _____    ______ ____
ROOT
ATOM      1  C   UNL     1      34.165 -18.926 -22.092  0.00  0.00    +0.229 C 
ENDROOT
BRANCH   1   2
ATOM      2  O   UNL     1      34.539 -19.309 -20.776  0.00  0.00    -0.456 OA
BRANCH   2   4
ATOM      3  S   UNL     1      32.287 -20.385 -19.825  0.00  0.00    +0.006 S 
ATOM      4  C   UNL     1      33.944 -20.314 -20.058  0.00  0.00    +0.233 C 
BRANCH   4   5
ATOM      5  N   UNL     1      34.761 -21.289 -19.523  0.00  0.00    -0.278 N 
ATOM      6  H   UNL     1      35.224 -21.844 -20.193  0.00  0.00    +0.156 HD
BRANCH   5   8
ATOM      7 BR   UNL     1      36.002 -22.758 -13.761  0.00  0.00    -0.049 Br
ATOM      8  C   UNL     1      35.051 -21.632 -18.179  0.00  0.00    +0.051 C 
ATOM      9  C   UNL     1      36.289 -21.309 -17.651  0.00  0.00    +0.015 C 
ATOM     10  C   UNL     1      34.089 -22.282 -17.426  0.00  0.00    +0.015 C 
ATOM     11  C   UNL     1      36.574 -21.645 -16.328  0.00  0.00    +0.008 C 
ATOM     12  C   UNL     1      34.373 -22.619 -16.102  0.00  0.00    +0.008 C 
ATOM     13  C   UNL     1      35.616 -22.300 -15.553  0.00  0.00    +0.035 C 
ENDBRANCH   5   8
ENDBRANCH   4   5
ENDBRANCH   2   4
ENDBRANCH   1   2
BRANCH   1  14
ATOM     14  C   UNL     1      35.148 -17.896 -22.617  0.00  0.00    +0.149 C 
BRANCH  14  17
ATOM     15  O   UNL     1      34.585 -16.039 -20.355  0.00  0.00    -0.269 OA
ATOM     16  O   UNL     1      34.187 -16.319 -24.961  0.00  0.00    -0.269 OA
ATOM     17  N   UNL     1      34.564 -16.570 -22.648  0.00  0.00    -0.219 N 
ATOM     18  C   UNL     1      33.765 -14.550 -22.006  0.00  0.00    +0.058 C 
ATOM     19  C   UNL     1      33.645 -14.635 -23.385  0.00  0.00    +0.058 C 
ATOM     20  C   UNL     1      34.354 -15.798 -21.524  0.00  0.00    +0.255 C 
ATOM     21  C   UNL     1      34.158 -15.939 -23.806  0.00  0.00    +0.255 C 
ATOM     22  C   UNL     1      33.362 -13.432 -21.305  0.00  0.00    +0.005 C 
ATOM     23  C   UNL     1      33.118 -13.606 -24.138  0.00  0.00    +0.005 C 
ATOM     24  C   UNL     1      32.825 -12.376 -22.047  0.00  0.00    +0.000 C 
ATOM     25  C   UNL     1      32.704 -12.461 -23.449  0.00  0.00    +0.000 C 
ENDBRANCH  14  17
ENDBRANCH   1  14
TORSDOF 6
ENDMDL
MODEL 3
REMARK VINA RESULT:     -11.2      3.383      8.644
REMARK  Name = 5278689
REMARK  6 active torsions:
REMARK  status: ('A' for Active; 'I' for Inactive)
REMARK    1  A    between atoms: C_1  and  O_2
REMARK    2  A    between atoms: C_1  and  C_14
REMARK    3  A    between atoms: O_2  and  C_4
REMARK    4  A    between atoms: C_4  and  N_5
REMARK    5  A    between atoms: N_5  and  C_8
REMARK    6  A    between atoms: C_14  and  N_17
REMARK                            x       y       z     vdW  Elec       q    Type
REMARK                         _______ _______ _______ _____ _____    ______ ____
ROOT
ATOM      1  C   UNL     1      34.537 -18.825 -20.719  0.00  0.00    +0.229 C 
ENDROOT
BRANCH   1   2
ATOM      2  O   UNL     1      35.254 -18.232 -21.792  0.00  0.00    -0.456 OA
BRANCH   2   4
ATOM      3  S   UNL     1      33.724 -18.303 -23.981  0.00  0.00    +0.006 S 
ATOM      4  C   UNL     1      34.677 -17.547 -22.830  0.00  0.00    +0.233 C 
BRANCH   4   5
ATOM      5  N   UNL     1      34.904 -16.186 -22.903  0.00  0.00    -0.278 N 
ATOM      6  H   UNL     1      35.767 -15.939 -23.307  0.00  0.00    +0.156 HD
BRANCH   5   8
ATOM      7 BR   UNL     1      31.504 -11.460 -21.170  0.00  0.00    -0.049 Br
ATOM      8  C   UNL     1      34.110 -15.084 -22.499  0.00  0.00    +0.051 C 
ATOM      9  C   UNL     1      33.955 -14.823 -21.148  0.00  0.00    +0.015 C 
ATOM     10  C   UNL     1      33.510 -14.294 -23.463  0.00  0.00    +0.015 C 
ATOM     11  C   UNL     1      33.175 -13.737 -20.750  0.00  0.00    +0.008 C 
ATOM     12  C   UNL     1      32.729 -13.209 -23.066  0.00  0.00    +0.008 C 
ATOM     13  C   UNL     1      32.562 -12.930 -21.709  0.00  0.00    +0.035 C 
ENDBRANCH   5   8
ENDBRANCH   4   5
ENDBRANCH   2   4
ENDBRANCH   1   2
BRANCH   1  14
ATOM     14  C   UNL     1      34.665 -20.335 -20.798  0.00  0.00    +0.149 C 
BRANCH  14  17
ATOM     15  O   UNL     1      31.881 -21.011 -19.978  0.00  0.00    -0.269 OA
ATOM     16  O   UNL     1      36.248 -21.303 -18.461  0.00  0.00    -0.269 OA
ATOM     17  N   UNL     1      34.201 -20.973 -19.582  0.00  0.00    -0.219 N 
ATOM     18  C   UNL     1      32.859 -21.888 -18.005  0.00  0.00    +0.058 C 
ATOM     19  C   UNL     1      34.166 -21.975 -17.551  0.00  0.00    +0.058 C 
ATOM     20  C   UNL     1      32.875 -21.238 -19.314  0.00  0.00    +0.255 C 
ATOM     21  C   UNL     1      35.038 -21.382 -18.565  0.00  0.00    +0.255 C 
ATOM     22  C   UNL     1      31.795 -22.364 -17.264  0.00  0.00    +0.005 C 
ATOM     23  C   UNL     1      34.481 -22.543 -16.334  0.00  0.00    +0.005 C 
ATOM     24  C   UNL     1      32.091 -22.944 -16.027  0.00  0.00    +0.000 C 
ATOM     25  C   UNL     1      33.420 -23.033 -15.566  0.00  0.00    +0.000 C 
ENDBRANCH  14  17
ENDBRANCH   1  14
TORSDOF 6
ENDMDL
MODEL 4
REMARK VINA RESULT:     -11.1      3.440      8.841
REMARK  Name = 5278689
REMARK  6 active torsions:
REMARK  status: ('A' for Active; 'I' for Inactive)
REMARK    1  A    between atoms: C_1  and  O_2
REMARK    2  A    between atoms: C_1  and  C_14
REMARK    3  A    between atoms: O_2  and  C_4
REMARK    4  A    between atoms: C_4  and  N_5
REMARK    5  A    between atoms: N_5  and  C_8
REMARK    6  A    between atoms: C_14  and  N_17
REMARK                            x       y       z     vdW  Elec       q    Type
REMARK                         _______ _______ _______ _____ _____    ______ ____
ROOT
ATOM      1  C   UNL     1      34.252 -19.367 -20.696  0.00  0.00    +0.229 C 
ENDROOT
BRANCH   1   2
ATOM      2  O   UNL     1      35.115 -18.601 -21.525  0.00  0.00    -0.456 OA
BRANCH   2   4
ATOM      3  S   UNL     1      33.809 -18.449 -23.851  0.00  0.00    +0.006 S 
ATOM      4  C   UNL     1      34.697 -17.825 -22.576  0.00  0.00    +0.233 C 
BRANCH   4   5
ATOM      5  N   UNL     1      35.032 -16.485 -22.554  0.00  0.00    -0.278 N 
ATOM      6  H   UNL     1      35.982 -16.301 -22.737  0.00  0.00    +0.156 HD
BRANCH   5   8
ATOM      7 BR   UNL     1      31.667 -11.532 -21.532  0.00  0.00    -0.049 Br
ATOM      8  C   UNL     1      34.247 -15.330 -22.316  0.00  0.00    +0.051 C 
ATOM      9  C   UNL     1      33.763 -14.608 -23.393  0.00  0.00    +0.015 C 
ATOM     10  C   UNL     1      33.983 -14.950 -21.012  0.00  0.00    +0.015 C 
ATOM     11  C   UNL     1      32.989 -13.471 -23.158  0.00  0.00    +0.008 C 
ATOM     12  C   UNL     1      33.210 -13.813 -20.776  0.00  0.00    +0.008 C 
ATOM     13  C   UNL     1      32.713 -13.073 -21.850  0.00  0.00    +0.035 C 
ENDBRANCH   5   8
ENDBRANCH   4   5
ENDBRANCH   2   4
ENDBRANCH   1   2
BRANCH   1  14
ATOM     14  C   UNL     1      34.941 -20.663 -20.312  0.00  0.00    +0.149 C 
BRANCH  14  17
ATOM     15  O   UNL     1      36.239 -21.631 -17.810  0.00  0.00    -0.269 OA
ATOM     16  O   UNL     1      32.065 -21.260 -19.784  0.00  0.00    -0.269 OA
ATOM     17  N   UNL     1      34.332 -21.263 -19.141  0.00  0.00    -0.219 N 
ATOM     18  C   UNL     1      34.050 -22.201 -17.099  0.00  0.00    +0.058 C 
ATOM     19  C   UNL     1      32.802 -22.090 -17.691  0.00  0.00    +0.058 C 
ATOM     20  C   UNL     1      35.043 -21.673 -18.033  0.00  0.00    +0.255 C 
ATOM     21  C   UNL     1      32.977 -21.487 -19.012  0.00  0.00    +0.255 C 
ATOM     22  C   UNL     1      34.217 -22.738 -15.838  0.00  0.00    +0.005 C 
ATOM     23  C   UNL     1      31.651 -22.509 -17.054  0.00  0.00    +0.005 C 
ATOM     24  C   UNL     1      33.065 -23.169 -15.174  0.00  0.00    +0.000 C 
ATOM     25  C   UNL     1      31.794 -23.055 -15.775  0.00  0.00    +0.000 C 
ENDBRANCH  14  17
ENDBRANCH   1  14
TORSDOF 6
ENDMDL
MODEL 5
REMARK VINA RESULT:     -11.1      3.737      8.715
REMARK  Name = 5278689
REMARK  6 active torsions:
REMARK  status: ('A' for Active; 'I' for Inactive)
REMARK    1  A    between atoms: C_1  and  O_2
REMARK    2  A    between atoms: C_1  and  C_14
REMARK    3  A    between atoms: O_2  and  C_4
REMARK    4  A    between atoms: C_4  and  N_5
REMARK    5  A    between atoms: N_5  and  C_8
REMARK    6  A    between atoms: C_14  and  N_17
REMARK                            x       y       z     vdW  Elec       q    Type
REMARK                         _______ _______ _______ _____ _____    ______ ____
ROOT
ATOM      1  C   UNL     1      34.672 -17.754 -21.451  0.00  0.00    +0.229 C 
ENDROOT
BRANCH   1   2
ATOM      2  O   UNL     1      34.946 -17.082 -22.672  0.00  0.00    -0.456 OA
BRANCH   2   4
ATOM      3  S   UNL     1      33.570 -15.769 -24.547  0.00  0.00    +0.006 S 
ATOM      4  C   UNL     1      34.346 -15.915 -23.071  0.00  0.00    +0.233 C 
BRANCH   4   5
ATOM      5  N   UNL     1      34.395 -14.841 -22.204  0.00  0.00    -0.278 N 
ATOM      6  H   UNL     1      35.195 -14.818 -21.631  0.00  0.00    +0.156 HD
BRANCH   5   8
ATOM      7 BR   UNL     1      30.536 -10.235 -21.313  0.00  0.00    -0.049 Br
ATOM      8  C   UNL     1      33.495 -13.767 -21.996  0.00  0.00    +0.051 C 
ATOM      9  C   UNL     1      33.424 -12.753 -22.936  0.00  0.00    +0.015 C 
ATOM     10  C   UNL     1      32.708 -13.756 -20.859  0.00  0.00    +0.015 C 
ATOM     11  C   UNL     1      32.538 -11.696 -22.732  0.00  0.00    +0.008 C 
ATOM     12  C   UNL     1      31.821 -12.698 -20.654  0.00  0.00    +0.008 C 
ATOM     13  C   UNL     1      31.736 -11.668 -21.591  0.00  0.00    +0.035 C 
ENDBRANCH   5   8
ENDBRANCH   4   5
ENDBRANCH   2   4
ENDBRANCH   1   2
BRANCH   1  14
ATOM     14  C   UNL     1      34.072 -19.116 -21.747  0.00  0.00    +0.149 C 
BRANCH  14  17
ATOM     15  O   UNL     1      31.729 -20.443 -20.471  0.00  0.00    -0.269 OA
ATOM     16  O   UNL     1      36.303 -19.937 -19.943  0.00  0.00    -0.269 OA
ATOM     17  N   UNL     1      34.029 -19.948 -20.561  0.00  0.00    -0.219 N 
ATOM     18  C   UNL     1      33.281 -21.270 -18.881  0.00  0.00    +0.058 C 
ATOM     19  C   UNL     1      34.650 -21.117 -18.724  0.00  0.00    +0.058 C 
ATOM     20  C   UNL     1      32.873 -20.514 -20.064  0.00  0.00    +0.255 C 
ATOM     21  C   UNL     1      35.139 -20.262 -19.805  0.00  0.00    +0.255 C 
ATOM     22  C   UNL     1      32.525 -22.028 -18.010  0.00  0.00    +0.005 C 
ATOM     23  C   UNL     1      35.338 -21.715 -17.688  0.00  0.00    +0.005 C 
ATOM     24  C   UNL     1      33.200 -22.644 -16.952  0.00  0.00    +0.000 C 
ATOM     25  C   UNL     1      34.593 -22.489 -16.792  0.00  0.00    +0.000 C 
ENDBRANCH  14  17
ENDBRANCH   1  14
TORSDOF 6
ENDMDL
MODEL 6
REMARK VINA RESULT:     -11.1      3.446      8.932
REMARK  Name = 5278689
REMARK  6 active torsions:
REMARK  status: ('A' for Active; 'I' for Inactive)
REMARK    1  A    between atoms: C_1  and  O_2
REMARK    2  A    between atoms: C_1  and  C_14
REMARK    3  A    between atoms: O_2  and  C_4
REMARK    4  A    between atoms: C_4  and  N_5
REMARK    5  A    between atoms: N_5  and  C_8
REMARK    6  A    between atoms: C_14  and  N_17
REMARK                            x       y       z     vdW  Elec       q    Type
REMARK                         _______ _______ _______ _____ _____    ______ ____
ROOT
ATOM      1  C   UNL     1      34.091 -19.397 -20.604  0.00  0.00    +0.229 C 
ENDROOT
BRANCH   1   2
ATOM      2  O   UNL     1      34.966 -18.488 -21.258  0.00  0.00    -0.456 OA
BRANCH   2   4
ATOM      3  S   UNL     1      33.921 -18.580 -23.715  0.00  0.00    +0.006 S 
ATOM      4  C   UNL     1      34.671 -17.825 -22.421  0.00  0.00    +0.233 C 
BRANCH   4   5
ATOM      5  N   UNL     1      35.013 -16.490 -22.502  0.00  0.00    -0.278 N 
ATOM      6  H   UNL     1      35.961 -16.325 -22.711  0.00  0.00    +0.156 HD
BRANCH   5   8
ATOM      7 BR   UNL     1      31.691 -11.454 -21.791  0.00  0.00    -0.049 Br
ATOM      8  C   UNL     1      34.238 -15.316 -22.336  0.00  0.00    +0.051 C 
ATOM      9  C   UNL     1      33.965 -14.861 -21.057  0.00  0.00    +0.015 C 
ATOM     10  C   UNL     1      33.772 -14.650 -23.456  0.00  0.00    +0.015 C 
ATOM     11  C   UNL     1      33.202 -13.704 -20.894  0.00  0.00    +0.008 C 
ATOM     12  C   UNL     1      33.009 -13.493 -23.293  0.00  0.00    +0.008 C 
ATOM     13  C   UNL     1      32.724 -13.021 -22.012  0.00  0.00    +0.035 C 
ENDBRANCH   5   8
ENDBRANCH   4   5
ENDBRANCH   2   4
ENDBRANCH   1   2
BRANCH   1  14
ATOM     14  C   UNL     1      34.838 -20.681 -20.294  0.00  0.00    +0.149 C 
BRANCH  14  17
ATOM     15  O   UNL     1      36.360 -21.391 -17.831  0.00  0.00    -0.269 OA
ATOM     16  O   UNL     1      32.078 -21.567 -19.587  0.00  0.00    -0.269 OA
ATOM     17  N   UNL     1      34.360 -21.293 -19.070  0.00  0.00    -0.219 N 
ATOM     18  C   UNL     1      34.288 -22.167 -16.981  0.00  0.00    +0.058 C 
ATOM     19  C   UNL     1      33.007 -22.219 -17.508  0.00  0.00    +0.058 C 
ATOM     20  C   UNL     1      35.168 -21.573 -17.987  0.00  0.00    +0.255 C 
ATOM     21  C   UNL     1      33.047 -21.659 -18.858  0.00  0.00    +0.255 C 
ATOM     22  C   UNL     1      34.577 -22.626 -15.712  0.00  0.00    +0.005 C 
ATOM     23  C   UNL     1      31.944 -22.734 -16.794  0.00  0.00    +0.005 C 
ATOM     24  C   UNL     1      33.515 -23.152 -14.970  0.00  0.00    +0.000 C 
ATOM     25  C   UNL     1      32.212 -23.205 -15.505  0.00  0.00    +0.000 C 
ENDBRANCH  14  17
ENDBRANCH   1  14
TORSDOF 6
ENDMDL
MODEL 7
REMARK VINA RESULT:     -11.0      2.144      3.356
REMARK  Name = 5278689
REMARK  6 active torsions:
REMARK  status: ('A' for Active; 'I' for Inactive)
REMARK    1  A    between atoms: C_1  and  O_2
REMARK    2  A    between atoms: C_1  and  C_14
REMARK    3  A    between atoms: O_2  and  C_4
REMARK    4  A    between atoms: C_4  and  N_5
REMARK    5  A    between atoms: N_5  and  C_8
REMARK    6  A    between atoms: C_14  and  N_17
REMARK                            x       y       z     vdW  Elec       q    Type
REMARK                         _______ _______ _______ _____ _____    ______ ____
ROOT
ATOM      1  C   UNL     1      33.835 -16.859 -23.861  0.00  0.00    +0.229 C 
ENDROOT
BRANCH   1   2
ATOM      2  O   UNL     1      34.709 -17.922 -23.506  0.00  0.00    -0.456 OA
BRANCH   2   4
ATOM      3  S   UNL     1      36.240 -18.189 -21.333  0.00  0.00    +0.006 S 
ATOM      4  C   UNL     1      34.850 -18.423 -22.238  0.00  0.00    +0.233 C 
BRANCH   4   5
ATOM      5  N   UNL     1      33.793 -19.139 -21.711  0.00  0.00    -0.278 N 
ATOM      6  H   UNL     1      32.946 -19.034 -22.203  0.00  0.00    +0.156 HD
BRANCH   5   8
ATOM      7 BR   UNL     1      33.455 -22.821 -16.892  0.00  0.00    -0.049 Br
ATOM      8  C   UNL     1      33.714 -19.998 -20.587  0.00  0.00    +0.051 C 
ATOM      9  C   UNL     1      34.878 -20.536 -20.065  0.00  0.00    +0.015 C 
ATOM     10  C   UNL     1      32.476 -20.279 -20.038  0.00  0.00    +0.015 C 
ATOM     11  C   UNL     1      34.800 -21.381 -18.958  0.00  0.00    +0.008 C 
ATOM     12  C   UNL     1      32.398 -21.125 -18.931  0.00  0.00    +0.008 C 
ATOM     13  C   UNL     1      33.560 -21.675 -18.391  0.00  0.00    +0.035 C 
ENDBRANCH   5   8
ENDBRANCH   4   5
ENDBRANCH   2   4
ENDBRANCH   1   2
BRANCH   1  14
ATOM     14  C   UNL     1      34.580 -15.540 -23.768  0.00  0.00    +0.149 C 
BRANCH  14  17
ATOM     15  O   UNL     1      34.263 -15.125 -20.834  0.00  0.00    -0.269 OA
ATOM     16  O   UNL     1      32.873 -13.363 -24.886  0.00  0.00    -0.269 OA
ATOM     17  N   UNL     1      33.803 -14.538 -23.067  0.00  0.00    -0.219 N 
ATOM     18  C   UNL     1      32.862 -13.304 -21.417  0.00  0.00    +0.058 C 
ATOM     19  C   UNL     1      32.446 -12.778 -22.630  0.00  0.00    +0.058 C 
ATOM     20  C   UNL     1      33.735 -14.444 -21.692  0.00  0.00    +0.255 C 
ATOM     21  C   UNL     1      33.048 -13.572 -23.701  0.00  0.00    +0.255 C 
ATOM     22  C   UNL     1      32.459 -12.768 -20.211  0.00  0.00    +0.005 C 
ATOM     23  C   UNL     1      31.605 -11.686 -22.703  0.00  0.00    +0.005 C 
ATOM     24  C   UNL     1      31.607 -11.661 -20.260  0.00  0.00    +0.000 C 
ATOM     25  C   UNL     1      31.184 -11.125 -21.494  0.00  0.00    +0.000 C 
ENDBRANCH  14  17
ENDBRANCH   1  14
TORSDOF 6
ENDMDL
MODEL 8
REMARK VINA RESULT:     -10.8      5.410     10.251
REMARK  Name = 5278689
REMARK  6 active torsions:
REMARK  status: ('A' for Active; 'I' for Inactive)
REMARK    1  A    between atoms: C_1  and  O_2
REMARK    2  A    between atoms: C_1  and  C_14
REMARK    3  A    between atoms: O_2  and  C_4
REMARK    4  A    between atoms: C_4  and  N_5
REMARK    5  A    between atoms: N_5  and  C_8
REMARK    6  A    between atoms: C_14  and  N_17
REMARK                            x       y       z     vdW  Elec       q    Type
REMARK                         _______ _______ _______ _____ _____    ______ ____
ROOT
ATOM      1  C   UNL     1      33.465 -23.490 -15.004  0.00  0.00    +0.229 C 
ENDROOT
BRANCH   1   2
ATOM      2  O   UNL     1      33.558 -23.177 -16.387  0.00  0.00    -0.456 OA
BRANCH   2   4
ATOM      3  S   UNL     1      30.994 -22.438 -16.516  0.00  0.00    +0.006 S 
ATOM      4  C   UNL     1      32.515 -22.727 -17.155  0.00  0.00    +0.233 C 
BRANCH   4   5
ATOM      5  N   UNL     1      32.755 -22.511 -18.498  0.00  0.00    -0.278 N 
ATOM      6  H   UNL     1      32.312 -23.153 -19.098  0.00  0.00    +0.156 HD
BRANCH   5   8
ATOM      7 BR   UNL     1      36.068 -18.290 -21.345  0.00  0.00    -0.049 Br
ATOM      8  C   UNL     1      33.528 -21.526 -19.161  0.00  0.00    +0.051 C 
ATOM      9  C   UNL     1      34.907 -21.552 -19.037  0.00  0.00    +0.015 C 
ATOM     10  C   UNL     1      32.887 -20.563 -19.919  0.00  0.00    +0.015 C 
ATOM     11  C   UNL     1      35.667 -20.583 -19.691  0.00  0.00    +0.008 C 
ATOM     12  C   UNL     1      33.647 -19.593 -20.574  0.00  0.00    +0.008 C 
ATOM     13  C   UNL     1      35.038 -19.603 -20.460  0.00  0.00    +0.035 C 
ENDBRANCH   5   8
ENDBRANCH   4   5
ENDBRANCH   2   4
ENDBRANCH   1   2
BRANCH   1  14
ATOM     14  C   UNL     1      34.456 -22.642 -14.228  0.00  0.00    +0.149 C 
BRANCH  14  17
ATOM     15  O   UNL     1      35.549 -24.594 -12.258  0.00  0.00    -0.269 OA
ATOM     16  O   UNL     1      36.766 -22.283 -16.083  0.00  0.00    -0.269 OA
ATOM     17  N   UNL     1      35.767 -23.260 -14.186  0.00  0.00    -0.219 N 
ATOM     18  C   UNL     1      37.531 -24.533 -13.556  0.00  0.00    +0.058 C 
ATOM     19  C   UNL     1      37.894 -23.840 -14.701  0.00  0.00    +0.058 C 
ATOM     20  C   UNL     1      36.159 -24.159 -13.216  0.00  0.00    +0.255 C 
ATOM     21  C   UNL     1      36.760 -23.014 -15.111  0.00  0.00    +0.255 C 
ATOM     22  C   UNL     1      38.396 -25.403 -12.923  0.00  0.00    +0.005 C 
ATOM     23  C   UNL     1      39.142 -23.980 -15.275  0.00  0.00    +0.005 C 
ATOM     24  C   UNL     1      39.665 -25.560 -13.486  0.00  0.00    +0.000 C 
ATOM     25  C   UNL     1      40.035 -24.856 -14.651  0.00  0.00    +0.000 C 
ENDBRANCH  14  17
ENDBRANCH   1  14
TORSDOF 6
ENDMDL
MODEL 9
REMARK VINA RESULT:     -10.8      5.394     10.128
REMARK  Name = 5278689
REMARK  6 active torsions:
REMARK  status: ('A' for Active; 'I' for Inactive)
REMARK    1  A    between atoms: C_1  and  O_2
REMARK    2  A    between atoms: C_1  and  C_14
REMARK    3  A    between atoms: O_2  and  C_4
REMARK    4  A    between atoms: C_4  and  N_5
REMARK    5  A    between atoms: N_5  and  C_8
REMARK    6  A    between atoms: C_14  and  N_17
REMARK                            x       y       z     vdW  Elec       q    Type
REMARK                         _______ _______ _______ _____ _____    ______ ____
ROOT
ATOM      1  C   UNL     1      33.475 -23.362 -15.011  0.00  0.00    +0.229 C 
ENDROOT
BRANCH   1   2
ATOM      2  O   UNL     1      33.530 -23.138 -16.413  0.00  0.00    -0.456 OA
BRANCH   2   4
ATOM      3  S   UNL     1      30.949 -22.463 -16.530  0.00  0.00    +0.006 S 
ATOM      4  C   UNL     1      32.474 -22.709 -17.175  0.00  0.00    +0.233 C 
BRANCH   4   5
ATOM      5  N   UNL     1      32.705 -22.477 -18.517  0.00  0.00    -0.278 N 
ATOM      6  H   UNL     1      32.233 -23.092 -19.123  0.00  0.00    +0.156 HD
BRANCH   5   8
ATOM      7 BR   UNL     1      36.126 -18.319 -21.330  0.00  0.00    -0.049 Br
ATOM      8  C   UNL     1      33.503 -21.507 -19.173  0.00  0.00    +0.051 C 
ATOM      9  C   UNL     1      32.889 -20.540 -19.950  0.00  0.00    +0.015 C 
ATOM     10  C   UNL     1      34.878 -21.549 -19.022  0.00  0.00    +0.015 C 
ATOM     11  C   UNL     1      33.674 -19.585 -20.595  0.00  0.00    +0.008 C 
ATOM     12  C   UNL     1      35.664 -20.595 -19.668  0.00  0.00    +0.008 C 
ATOM     13  C   UNL     1      35.062 -19.612 -20.455  0.00  0.00    +0.035 C 
ENDBRANCH   5   8
ENDBRANCH   4   5
ENDBRANCH   2   4
ENDBRANCH   1   2
BRANCH   1  14
ATOM     14  C   UNL     1      34.521 -22.506 -14.322  0.00  0.00    +0.149 C 
BRANCH  14  17
ATOM     15  O   UNL     1      36.872 -22.238 -16.134  0.00  0.00    -0.269 OA
ATOM     16  O   UNL     1      35.490 -24.529 -12.353  0.00  0.00    -0.269 OA
ATOM     17  N   UNL     1      35.803 -23.179 -14.260  0.00  0.00    -0.219 N 
ATOM     18  C   UNL     1      37.922 -23.831 -14.727  0.00  0.00    +0.058 C 
ATOM     19  C   UNL     1      37.507 -24.516 -13.596  0.00  0.00    +0.058 C 
ATOM     20  C   UNL     1      36.824 -22.968 -15.163  0.00  0.00    +0.255 C 
ATOM     21  C   UNL     1      36.138 -24.102 -13.290  0.00  0.00    +0.255 C 
ATOM     22  C   UNL     1      39.178 -24.008 -15.270  0.00  0.00    +0.005 C 
ATOM     23  C   UNL     1      38.326 -25.416 -12.945  0.00  0.00    +0.005 C 
ATOM     24  C   UNL     1      40.026 -24.914 -14.627  0.00  0.00    +0.000 C 
ATOM     25  C   UNL     1      39.605 -25.611 -13.476  0.00  0.00    +0.000 C 
ENDBRANCH  14  17
ENDBRANCH   1  14
TORSDOF 6
ENDMDL
