MODEL 1
REMARK VINA RESULT:     -12.2      0.000      0.000
REMARK  Name = 68942
REMARK  1 active torsions:
REMARK  status: ('A' for Active; 'I' for Inactive)
REMARK    1  A    between atoms: C_3  and  C_13
REMARK                            x       y       z     vdW  Elec       q    Type
REMARK                         _______ _______ _______ _____ _____    ______ ____
ROOT
ATOM      1  O   UNL     1      35.307 -16.808 -20.247  0.00  0.00    -0.291 OA
ATOM      2  O   UNL     1      34.321 -19.735 -23.850  0.00  0.00    -0.291 OA
ATOM      3  C   UNL     1      35.103 -18.748 -21.739  0.00  0.00    +0.146 C 
ATOM      4  C   UNL     1      34.995 -17.290 -21.319  0.00  0.00    +0.184 C 
ATOM      5  C   UNL     1      34.498 -18.766 -23.135  0.00  0.00    +0.184 C 
ATOM      6  C   UNL     1      34.433 -16.533 -22.440  0.00  0.00    +0.038 C 
ATOM      7  C   UNL     1      34.144 -17.391 -23.497  0.00  0.00    +0.038 C 
ATOM      8  C   UNL     1      34.185 -15.176 -22.519  0.00  0.00    +0.003 C 
ATOM      9  C   UNL     1      33.594 -16.931 -24.677  0.00  0.00    +0.003 C 
ATOM     10  C   UNL     1      33.630 -14.691 -23.706  0.00  0.00    +0.000 C 
ATOM     11  C   UNL     1      33.338 -15.561 -24.776  0.00  0.00    +0.000 C 
ENDROOT
BRANCH   3  13
ATOM     12  F   UNL     1      32.363 -22.161 -18.213  0.00  0.00    -0.204 F 
ATOM     13  C   UNL     1      34.379 -19.652 -20.807  0.00  0.00    -0.008 C 
ATOM     14  C   UNL     1      35.089 -20.543 -19.999  0.00  0.00    -0.001 C 
ATOM     15  C   UNL     1      32.984 -19.613 -20.735  0.00  0.00    -0.001 C 
ATOM     16  C   UNL     1      34.408 -21.390 -19.124  0.00  0.00    +0.029 C 
ATOM     17  C   UNL     1      32.304 -20.460 -19.859  0.00  0.00    +0.029 C 
ATOM     18  C   UNL     1      33.017 -21.348 -19.054  0.00  0.00    +0.140 C 
ENDBRANCH   3  13
TORSDOF 1
ENDMDL
MODEL 2
REMARK VINA RESULT:     -11.5      2.716      5.941
REMARK  Name = 68942
REMARK  1 active torsions:
REMARK  status: ('A' for Active; 'I' for Inactive)
REMARK    1  A    between atoms: C_3  and  C_13
REMARK                            x       y       z     vdW  Elec       q    Type
REMARK                         _______ _______ _______ _____ _____    ______ ____
ROOT
ATOM      1  O   UNL     1      32.747 -19.280 -22.234  0.00  0.00    -0.291 OA
ATOM      2  O   UNL     1      37.186 -18.159 -20.984  0.00  0.00    -0.291 OA
ATOM      3  C   UNL     1      35.021 -18.356 -22.130  0.00  0.00    +0.146 C 
ATOM      4  C   UNL     1      33.849 -19.234 -21.720  0.00  0.00    +0.184 C 
ATOM      5  C   UNL     1      36.087 -18.669 -21.090  0.00  0.00    +0.184 C 
ATOM      6  C   UNL     1      34.263 -20.040 -20.569  0.00  0.00    +0.038 C 
ATOM      7  C   UNL     1      35.565 -19.711 -20.202  0.00  0.00    +0.038 C 
ATOM      8  C   UNL     1      33.536 -20.994 -19.884  0.00  0.00    +0.003 C 
ATOM      9  C   UNL     1      36.195 -20.321 -19.135  0.00  0.00    +0.003 C 
ATOM     10  C   UNL     1      34.157 -21.623 -18.802  0.00  0.00    +0.000 C 
ATOM     11  C   UNL     1      35.475 -21.290 -18.432  0.00  0.00    +0.000 C 
ENDROOT
BRANCH   3  13
ATOM     12  F   UNL     1      33.652 -12.905 -22.166  0.00  0.00    -0.204 F 
ATOM     13  C   UNL     1      34.660 -16.914 -22.140  0.00  0.00    -0.008 C 
ATOM     14  C   UNL     1      34.588 -16.216 -23.348  0.00  0.00    -0.001 C 
ATOM     15  C   UNL     1      34.390 -16.250 -20.941  0.00  0.00    -0.001 C 
ATOM     16  C   UNL     1      34.248 -14.863 -23.357  0.00  0.00    +0.029 C 
ATOM     17  C   UNL     1      34.049 -14.897 -20.949  0.00  0.00    +0.029 C 
ATOM     18  C   UNL     1      33.979 -14.204 -22.158  0.00  0.00    +0.140 C 
ENDBRANCH   3  13
TORSDOF 1
ENDMDL
MODEL 3
REMARK VINA RESULT:      -9.7      3.300      6.994
REMARK  Name = 68942
REMARK  1 active torsions:
REMARK  status: ('A' for Active; 'I' for Inactive)
REMARK    1  A    between atoms: C_3  and  C_13
REMARK                            x       y       z     vdW  Elec       q    Type
REMARK                         _______ _______ _______ _____ _____    ______ ____
ROOT
ATOM      1  O   UNL     1      32.357 -22.076 -19.768  0.00  0.00    -0.291 OA
ATOM      2  O   UNL     1      36.578 -21.515 -17.673  0.00  0.00    -0.291 OA
ATOM      3  C   UNL     1      34.742 -21.733 -19.293  0.00  0.00    +0.146 C 
ATOM      4  C   UNL     1      33.286 -22.044 -18.984  0.00  0.00    +0.184 C 
ATOM      5  C   UNL     1      35.414 -21.761 -17.927  0.00  0.00    +0.184 C 
ATOM      6  C   UNL     1      33.170 -22.303 -17.546  0.00  0.00    +0.038 C 
ATOM      7  C   UNL     1      34.408 -22.139 -16.932  0.00  0.00    +0.038 C 
ATOM      8  C   UNL     1      32.044 -22.652 -16.826  0.00  0.00    +0.003 C 
ATOM      9  C   UNL     1      34.573 -22.315 -15.572  0.00  0.00    +0.003 C 
ATOM     10  C   UNL     1      32.192 -22.837 -15.449  0.00  0.00    +0.000 C 
ATOM     11  C   UNL     1      33.446 -22.671 -14.828  0.00  0.00    +0.000 C 
ENDROOT
BRANCH   3  13
ATOM     12  F   UNL     1      35.337 -16.752 -21.830  0.00  0.00    -0.204 F 
ATOM     13  C   UNL     1      34.900 -20.415 -19.962  0.00  0.00    -0.008 C 
ATOM     14  C   UNL     1      36.169 -19.850 -20.111  0.00  0.00    -0.001 C 
ATOM     15  C   UNL     1      33.779 -19.736 -20.448  0.00  0.00    -0.001 C 
ATOM     16  C   UNL     1      36.316 -18.613 -20.741  0.00  0.00    +0.029 C 
ATOM     17  C   UNL     1      33.927 -18.500 -21.078  0.00  0.00    +0.029 C 
ATOM     18  C   UNL     1      35.196 -17.939 -21.225  0.00  0.00    +0.140 C 
ENDBRANCH   3  13
TORSDOF 1
ENDMDL
MODEL 4
REMARK VINA RESULT:      -9.6      3.798      6.466
REMARK  Name = 68942
REMARK  1 active torsions:
REMARK  status: ('A' for Active; 'I' for Inactive)
REMARK    1  A    between atoms: C_3  and  C_13
REMARK                            x       y       z     vdW  Elec       q    Type
REMARK                         _______ _______ _______ _____ _____    ______ ____
ROOT
ATOM      1  O   UNL     1      33.438 -14.549 -25.222  0.00  0.00    -0.291 OA
ATOM      2  O   UNL     1      34.702 -15.467 -20.741  0.00  0.00    -0.291 OA
ATOM      3  C   UNL     1      34.212 -14.392 -22.896  0.00  0.00    +0.146 C 
ATOM      4  C   UNL     1      33.757 -15.079 -24.175  0.00  0.00    +0.184 C 
ATOM      5  C   UNL     1      34.395 -15.542 -21.916  0.00  0.00    +0.184 C 
ATOM      6  C   UNL     1      33.760 -16.525 -23.942  0.00  0.00    +0.038 C 
ATOM      7  C   UNL     1      34.131 -16.794 -22.628  0.00  0.00    +0.038 C 
ATOM      8  C   UNL     1      33.447 -17.537 -24.829  0.00  0.00    +0.003 C 
ATOM      9  C   UNL     1      34.204 -18.086 -22.144  0.00  0.00    +0.003 C 
ATOM     10  C   UNL     1      33.517 -18.851 -24.358  0.00  0.00    +0.000 C 
ATOM     11  C   UNL     1      33.893 -19.122 -23.027  0.00  0.00    +0.000 C 
ENDROOT
BRANCH   3  13
ATOM     12  F   UNL     1      30.447 -10.643 -21.063  0.00  0.00    -0.204 F 
ATOM     13  C   UNL     1      33.215 -13.401 -22.412  0.00  0.00    -0.008 C 
ATOM     14  C   UNL     1      32.566 -13.599 -21.191  0.00  0.00    -0.001 C 
ATOM     15  C   UNL     1      32.925 -12.267 -23.175  0.00  0.00    -0.001 C 
ATOM     16  C   UNL     1      31.631 -12.667 -20.736  0.00  0.00    +0.029 C 
ATOM     17  C   UNL     1      31.991 -11.336 -22.719  0.00  0.00    +0.029 C 
ATOM     18  C   UNL     1      31.344 -11.537 -21.499  0.00  0.00    +0.140 C 
ENDBRANCH   3  13
TORSDOF 1
ENDMDL
MODEL 5
REMARK VINA RESULT:      -9.5      3.039      4.776
REMARK  Name = 68942
REMARK  1 active torsions:
REMARK  status: ('A' for Active; 'I' for Inactive)
REMARK    1  A    between atoms: C_3  and  C_13
REMARK                            x       y       z     vdW  Elec       q    Type
REMARK                         _______ _______ _______ _____ _____    ______ ____
ROOT
ATOM      1  O   UNL     1      36.307 -21.831 -17.983  0.00  0.00    -0.291 OA
ATOM      2  O   UNL     1      31.983 -21.607 -19.926  0.00  0.00    -0.291 OA
ATOM      3  C   UNL     1      33.998 -22.281 -18.691  0.00  0.00    +0.146 C 
ATOM      4  C   UNL     1      35.331 -21.549 -18.652  0.00  0.00    +0.184 C 
ATOM      5  C   UNL     1      33.151 -21.436 -19.632  0.00  0.00    +0.184 C 
ATOM      6  C   UNL     1      35.253 -20.411 -19.572  0.00  0.00    +0.038 C 
ATOM      7  C   UNL     1      33.985 -20.346 -20.142  0.00  0.00    +0.038 C 
ATOM      8  C   UNL     1      36.235 -19.489 -19.879  0.00  0.00    +0.003 C 
ATOM      9  C   UNL     1      33.644 -19.356 -21.042  0.00  0.00    +0.003 C 
ATOM     10  C   UNL     1      35.909 -18.480 -20.789  0.00  0.00    +0.000 C 
ATOM     11  C   UNL     1      34.625 -18.415 -21.366  0.00  0.00    +0.000 C 
ENDROOT
BRANCH   3  13
ATOM     12  F   UNL     1      31.679 -22.703 -13.588  0.00  0.00    -0.204 F 
ATOM     13  C   UNL     1      33.385 -22.394 -17.341  0.00  0.00    -0.008 C 
ATOM     14  C   UNL     1      34.195 -22.543 -16.212  0.00  0.00    -0.001 C 
ATOM     15  C   UNL     1      31.996 -22.350 -17.196  0.00  0.00    -0.001 C 
ATOM     16  C   UNL     1      33.619 -22.647 -14.946  0.00  0.00    +0.029 C 
ATOM     17  C   UNL     1      31.421 -22.454 -15.929  0.00  0.00    +0.029 C 
ATOM     18  C   UNL     1      32.232 -22.603 -14.804  0.00  0.00    +0.140 C 
ENDBRANCH   3  13
TORSDOF 1
ENDMDL
MODEL 6
REMARK VINA RESULT:      -9.4      5.830      8.964
REMARK  Name = 68942
REMARK  1 active torsions:
REMARK  status: ('A' for Active; 'I' for Inactive)
REMARK    1  A    between atoms: C_3  and  C_13
REMARK                            x       y       z     vdW  Elec       q    Type
REMARK                         _______ _______ _______ _____ _____    ______ ____
ROOT
ATOM      1  O   UNL     1      31.838 -11.874 -20.364  0.00  0.00    -0.291 OA
ATOM      2  O   UNL     1      32.760 -12.632 -24.957  0.00  0.00    -0.291 OA
ATOM      3  C   UNL     1      31.898 -11.783 -22.818  0.00  0.00    +0.146 C 
ATOM      4  C   UNL     1      32.196 -12.333 -21.432  0.00  0.00    +0.184 C 
ATOM      5  C   UNL     1      32.660 -12.715 -23.748  0.00  0.00    +0.184 C 
ATOM      6  C   UNL     1      33.011 -13.540 -21.586  0.00  0.00    +0.038 C 
ATOM      7  C   UNL     1      33.281 -13.763 -22.934  0.00  0.00    +0.038 C 
ATOM      8  C   UNL     1      33.491 -14.382 -20.602  0.00  0.00    +0.003 C 
ATOM      9  C   UNL     1      34.043 -14.835 -23.354  0.00  0.00    +0.003 C 
ATOM     10  C   UNL     1      34.263 -15.474 -21.008  0.00  0.00    +0.000 C 
ATOM     11  C   UNL     1      34.535 -15.699 -22.373  0.00  0.00    +0.000 C 
ENDROOT
BRANCH   3  13
ATOM     12  F   UNL     1      33.570  -6.444 -23.363  0.00  0.00    -0.204 F 
ATOM     13  C   UNL     1      32.339 -10.370 -22.963  0.00  0.00    -0.008 C 
ATOM     14  C   UNL     1      31.454  -9.326 -22.686  0.00  0.00    -0.001 C 
ATOM     15  C   UNL     1      33.643 -10.081 -23.376  0.00  0.00    -0.001 C 
ATOM     16  C   UNL     1      31.869  -8.000 -22.822  0.00  0.00    +0.029 C 
ATOM     17  C   UNL     1      34.058  -8.756 -23.510  0.00  0.00    +0.029 C 
ATOM     18  C   UNL     1      33.170  -7.716 -23.233  0.00  0.00    +0.140 C 
ENDBRANCH   3  13
TORSDOF 1
ENDMDL
MODEL 7
REMARK VINA RESULT:      -9.3      3.339      5.242
REMARK  Name = 68942
REMARK  1 active torsions:
REMARK  status: ('A' for Active; 'I' for Inactive)
REMARK    1  A    between atoms: C_3  and  C_13
REMARK                            x       y       z     vdW  Elec       q    Type
REMARK                         _______ _______ _______ _____ _____    ______ ____
ROOT
ATOM      1  O   UNL     1      34.162 -14.829 -20.297  0.00  0.00    -0.291 OA
ATOM      2  O   UNL     1      33.458 -13.203 -24.700  0.00  0.00    -0.291 OA
ATOM      3  C   UNL     1      34.291 -14.378 -22.708  0.00  0.00    +0.146 C 
ATOM      4  C   UNL     1      33.812 -14.198 -21.276  0.00  0.00    +0.184 C 
ATOM      5  C   UNL     1      33.457 -13.378 -23.496  0.00  0.00    +0.184 C 
ATOM      6  C   UNL     1      32.828 -13.113 -21.258  0.00  0.00    +0.038 C 
ATOM      7  C   UNL     1      32.621 -12.636 -22.549  0.00  0.00    +0.038 C 
ATOM      8  C   UNL     1      32.152 -12.587 -20.173  0.00  0.00    +0.003 C 
ATOM      9  C   UNL     1      31.731 -11.614 -22.811  0.00  0.00    +0.003 C 
ATOM     10  C   UNL     1      31.248 -11.551 -20.419  0.00  0.00    +0.000 C 
ATOM     11  C   UNL     1      31.040 -11.068 -21.727  0.00  0.00    +0.000 C 
ENDROOT
BRANCH   3  13
ATOM     12  F   UNL     1      33.540 -19.641 -24.535  0.00  0.00    -0.204 F 
ATOM     13  C   UNL     1      34.091 -15.770 -23.191  0.00  0.00    -0.008 C 
ATOM     14  C   UNL     1      33.356 -16.011 -24.354  0.00  0.00    -0.001 C 
ATOM     15  C   UNL     1      34.639 -16.844 -22.484  0.00  0.00    -0.001 C 
ATOM     16  C   UNL     1      33.170 -17.318 -24.808  0.00  0.00    +0.029 C 
ATOM     17  C   UNL     1      34.454 -18.150 -22.938  0.00  0.00    +0.029 C 
ATOM     18  C   UNL     1      33.718 -18.387 -24.100  0.00  0.00    +0.140 C 
ENDBRANCH   3  13
TORSDOF 1
ENDMDL
MODEL 8
REMARK VINA RESULT:      -9.3      5.598      8.191
REMARK  Name = 68942
REMARK  1 active torsions:
REMARK  status: ('A' for Active; 'I' for Inactive)
REMARK    1  A    between atoms: C_3  and  C_13
REMARK                            x       y       z     vdW  Elec       q    Type
REMARK                         _______ _______ _______ _____ _____    ______ ____
ROOT
ATOM      1  O   UNL     1      33.353 -23.089 -14.932  0.00  0.00    -0.291 OA
ATOM      2  O   UNL     1      37.402 -20.931 -16.142  0.00  0.00    -0.291 OA
ATOM      3  C   UNL     1      35.532 -21.956 -14.921  0.00  0.00    +0.146 C 
ATOM      4  C   UNL     1      34.247 -22.511 -15.518  0.00  0.00    +0.184 C 
ATOM      5  C   UNL     1      36.289 -21.422 -16.128  0.00  0.00    +0.184 C 
ATOM      6  C   UNL     1      34.258 -22.235 -16.957  0.00  0.00    +0.038 C 
ATOM      7  C   UNL     1      35.445 -21.601 -17.312  0.00  0.00    +0.038 C 
ATOM      8  C   UNL     1      33.286 -22.531 -17.893  0.00  0.00    +0.003 C 
ATOM      9  C   UNL     1      35.713 -21.238 -18.617  0.00  0.00    +0.003 C 
ATOM     10  C   UNL     1      33.538 -22.169 -19.219  0.00  0.00    +0.000 C 
ATOM     11  C   UNL     1      34.741 -21.528 -19.577  0.00  0.00    +0.000 C 
ENDROOT
BRANCH   3  13
ATOM     12  F   UNL     1      38.450 -25.903 -12.182  0.00  0.00    -0.204 F 
ATOM     13  C   UNL     1      36.305 -22.999 -14.196  0.00  0.00    -0.008 C 
ATOM     14  C   UNL     1      36.676 -22.800 -12.864  0.00  0.00    -0.001 C 
ATOM     15  C   UNL     1      36.662 -24.185 -14.845  0.00  0.00    -0.001 C 
ATOM     16  C   UNL     1      37.401 -23.780 -12.185  0.00  0.00    +0.029 C 
ATOM     17  C   UNL     1      37.386 -25.165 -14.165  0.00  0.00    +0.029 C 
ATOM     18  C   UNL     1      37.755 -24.962 -12.834  0.00  0.00    +0.140 C 
ENDBRANCH   3  13
TORSDOF 1
ENDMDL
MODEL 9
REMARK VINA RESULT:      -9.3      5.602      8.199
REMARK  Name = 68942
REMARK  1 active torsions:
REMARK  status: ('A' for Active; 'I' for Inactive)
REMARK    1  A    between atoms: C_3  and  C_13
REMARK                            x       y       z     vdW  Elec       q    Type
REMARK                         _______ _______ _______ _____ _____    ______ ____
ROOT
ATOM      1  O   UNL     1      33.370 -23.102 -14.935  0.00  0.00    -0.291 OA
ATOM      2  O   UNL     1      37.413 -20.932 -16.147  0.00  0.00    -0.291 OA
ATOM      3  C   UNL     1      35.546 -21.963 -14.925  0.00  0.00    +0.146 C 
ATOM      4  C   UNL     1      34.263 -22.520 -15.521  0.00  0.00    +0.184 C 
ATOM      5  C   UNL     1      36.301 -21.426 -16.132  0.00  0.00    +0.184 C 
ATOM      6  C   UNL     1      34.270 -22.243 -16.960  0.00  0.00    +0.038 C 
ATOM      7  C   UNL     1      35.456 -21.606 -17.315  0.00  0.00    +0.038 C 
ATOM      8  C   UNL     1      33.298 -22.541 -17.895  0.00  0.00    +0.003 C 
ATOM      9  C   UNL     1      35.721 -21.241 -18.620  0.00  0.00    +0.003 C 
ATOM     10  C   UNL     1      33.548 -22.177 -19.221  0.00  0.00    +0.000 C 
ATOM     11  C   UNL     1      34.749 -21.533 -19.580  0.00  0.00    +0.000 C 
ENDROOT
BRANCH   3  13
ATOM     12  F   UNL     1      38.486 -25.899 -12.193  0.00  0.00    -0.204 F 
ATOM     13  C   UNL     1      36.323 -23.005 -14.202  0.00  0.00    -0.008 C 
ATOM     14  C   UNL     1      36.669 -24.196 -14.846  0.00  0.00    -0.001 C 
ATOM     15  C   UNL     1      36.711 -22.797 -12.876  0.00  0.00    -0.001 C 
ATOM     16  C   UNL     1      37.399 -25.172 -14.167  0.00  0.00    +0.029 C 
ATOM     17  C   UNL     1      37.441 -23.774 -12.198  0.00  0.00    +0.029 C 
ATOM     18  C   UNL     1      37.785 -24.962 -12.844  0.00  0.00    +0.140 C 
ENDBRANCH   3  13
TORSDOF 1
ENDMDL
