MODEL 1
REMARK VINA RESULT:     -11.1      0.000      0.000
REMARK  Name = 11669698
REMARK  16 active torsions:
REMARK  status: ('A' for Active; 'I' for Inactive)
REMARK    1  A    between atoms: C_1  and  O_2
REMARK    2  A    between atoms: C_1  and  C_15
REMARK    3  A    between atoms: C_1  and  C_33
REMARK    4  A    between atoms: O_2  and  C_4
REMARK    5  A    between atoms: C_4  and  C_5
REMARK    6  A    between atoms: C_6  and  C_7
REMARK    7  A    between atoms: C_12  and  O_13
REMARK    8  A    between atoms: C_15  and  C_17
REMARK    9  A    between atoms: C_15  and  O_20
REMARK   10  A    between atoms: C_17  and  O_18
REMARK   11  A    between atoms: O_20  and  C_22
REMARK   12  A    between atoms: C_22  and  C_23
REMARK   13  A    between atoms: C_24  and  C_25
REMARK   14  A    between atoms: C_30  and  O_31
REMARK   15  A    between atoms: C_33  and  C_35
REMARK   16  A    between atoms: C_35  and  O_36
REMARK                            x       y       z     vdW  Elec       q    Type
REMARK                         _______ _______ _______ _____ _____    ______ ____
ROOT
ATOM      1  C   UNL     1      35.865 -24.643 -13.711  0.00  0.00    +0.231 C 
ENDROOT
BRANCH   1   2
ATOM      2  O   UNL     1      34.775 -23.723 -13.594  0.00  0.00    -0.444 OA
BRANCH   2   4
ATOM      3  O   UNL     1      34.274 -24.043 -11.361  0.00  0.00    -0.245 OA
ATOM      4  C   UNL     1      33.949 -23.927 -12.533  0.00  0.00    +0.341 C 
BRANCH   4   5
ATOM      5  C   UNL     1      32.563 -23.987 -13.049  0.00  0.00    +0.082 C 
ATOM      6  C   UNL     1      32.268 -23.407 -14.222  0.00  0.00    +0.007 C 
BRANCH   6   7
ATOM      7  C   UNL     1      30.932 -23.408 -14.843  0.00  0.00    +0.000 C 
ATOM      8  C   UNL     1      29.982 -24.319 -14.409  0.00  0.00    +0.003 C 
ATOM      9  C   UNL     1      30.653 -22.500 -15.851  0.00  0.00    +0.003 C 
ATOM     10  C   UNL     1      28.718 -24.319 -14.998  0.00  0.00    +0.037 C 
ATOM     11  C   UNL     1      29.388 -22.500 -16.440  0.00  0.00    +0.037 C 
ATOM     12  C   UNL     1      28.420 -23.410 -16.014  0.00  0.00    +0.134 C 
BRANCH  12  13
ATOM     13  O   UNL     1      27.187 -23.411 -16.588  0.00  0.00    -0.506 OA
ATOM     14  H   UNL     1      26.458 -23.788 -16.133  0.00  0.00    +0.292 HD
ENDBRANCH  12  13
ENDBRANCH   6   7
ENDBRANCH   4   5
ENDBRANCH   2   4
ENDBRANCH   1   2
BRANCH   1  15
ATOM     15  C   UNL     1      37.196 -23.886 -13.598  0.00  0.00    +0.306 C 
BRANCH  15  17
ATOM     16  O   UNL     1      38.478 -22.884 -11.792  0.00  0.00    -0.246 OA
ATOM     17  C   UNL     1      37.699 -23.747 -12.174  0.00  0.00    +0.358 C 
BRANCH  17  18
ATOM     18  O   UNL     1      37.175 -24.686 -11.346  0.00  0.00    -0.478 OA
ATOM     19  H   UNL     1      36.515 -25.273 -11.660  0.00  0.00    +0.295 HD
ENDBRANCH  17  18
ENDBRANCH  15  17
BRANCH  15  20
ATOM     20  O   UNL     1      36.977 -22.561 -14.083  0.00  0.00    -0.434 OA
BRANCH  20  22
ATOM     21  O   UNL     1      38.438 -22.451 -15.869  0.00  0.00    -0.245 OA
ATOM     22  C   UNL     1      37.324 -22.346 -15.383  0.00  0.00    +0.342 C 
BRANCH  22  23
ATOM     23  C   UNL     1      36.099 -21.954 -16.117  0.00  0.00    +0.082 C 
ATOM     24  C   UNL     1      36.156 -21.766 -17.444  0.00  0.00    +0.007 C 
BRANCH  24  25
ATOM     25  C   UNL     1      35.008 -21.387 -18.285  0.00  0.00    +0.000 C 
ATOM     26  C   UNL     1      33.745 -21.858 -17.962  0.00  0.00    +0.003 C 
ATOM     27  C   UNL     1      35.212 -20.567 -19.382  0.00  0.00    +0.003 C 
ATOM     28  C   UNL     1      32.658 -21.499 -18.760  0.00  0.00    +0.037 C 
ATOM     29  C   UNL     1      34.126 -20.208 -20.180  0.00  0.00    +0.037 C 
ATOM     30  C   UNL     1      32.848 -20.674 -19.868  0.00  0.00    +0.134 C 
BRANCH  30  31
ATOM     31  O   UNL     1      31.788 -20.325 -20.646  0.00  0.00    -0.506 OA
ATOM     32  H   UNL     1      31.032 -19.930 -20.258  0.00  0.00    +0.292 HD
ENDBRANCH  30  31
ENDBRANCH  24  25
ENDBRANCH  22  23
ENDBRANCH  20  22
ENDBRANCH  15  20
ENDBRANCH   1  15
BRANCH   1  33
ATOM     33  C   UNL     1      35.669 -25.425 -15.011  0.00  0.00    +0.157 C 
BRANCH  33  35
ATOM     34  O   UNL     1      37.459 -26.931 -14.340  0.00  0.00    -0.250 OA
ATOM     35  C   UNL     1      36.628 -26.582 -15.167  0.00  0.00    +0.318 C 
BRANCH  35  36
ATOM     36  O   UNL     1      36.442 -27.230 -16.347  0.00  0.00    -0.480 OA
ATOM     37  H   UNL     1      37.114 -27.785 -16.687  0.00  0.00    +0.295 HD
ENDBRANCH  35  36
ENDBRANCH  33  35
ENDBRANCH   1  33
TORSDOF 16
ENDMDL
MODEL 2
REMARK VINA RESULT:     -11.0      0.682      5.412
REMARK  Name = 11669698
REMARK  16 active torsions:
REMARK  status: ('A' for Active; 'I' for Inactive)
REMARK    1  A    between atoms: C_1  and  O_2
REMARK    2  A    between atoms: C_1  and  C_15
REMARK    3  A    between atoms: C_1  and  C_33
REMARK    4  A    between atoms: O_2  and  C_4
REMARK    5  A    between atoms: C_4  and  C_5
REMARK    6  A    between atoms: C_6  and  C_7
REMARK    7  A    between atoms: C_12  and  O_13
REMARK    8  A    between atoms: C_15  and  C_17
REMARK    9  A    between atoms: C_15  and  O_20
REMARK   10  A    between atoms: C_17  and  O_18
REMARK   11  A    between atoms: O_20  and  C_22
REMARK   12  A    between atoms: C_22  and  C_23
REMARK   13  A    between atoms: C_24  and  C_25
REMARK   14  A    between atoms: C_30  and  O_31
REMARK   15  A    between atoms: C_33  and  C_35
REMARK   16  A    between atoms: C_35  and  O_36
REMARK                            x       y       z     vdW  Elec       q    Type
REMARK                         _______ _______ _______ _____ _____    ______ ____
ROOT
ATOM      1  C   UNL     1      37.364 -23.946 -13.574  0.00  0.00    +0.231 C 
ENDROOT
BRANCH   1   2
ATOM      2  O   UNL     1      36.930 -22.680 -14.078  0.00  0.00    -0.444 OA
BRANCH   2   4
ATOM      3  O   UNL     1      38.420 -22.441 -15.828  0.00  0.00    -0.245 OA
ATOM      4  C   UNL     1      37.292 -22.405 -15.360  0.00  0.00    +0.341 C 
BRANCH   4   5
ATOM      5  C   UNL     1      36.065 -22.047 -16.106  0.00  0.00    +0.082 C 
ATOM      6  C   UNL     1      36.150 -21.735 -17.408  0.00  0.00    +0.007 C 
BRANCH   6   7
ATOM      7  C   UNL     1      35.002 -21.373 -18.258  0.00  0.00    +0.000 C 
ATOM      8  C   UNL     1      33.741 -21.846 -17.933  0.00  0.00    +0.003 C 
ATOM      9  C   UNL     1      35.207 -20.568 -19.367  0.00  0.00    +0.003 C 
ATOM     10  C   UNL     1      32.656 -21.503 -18.738  0.00  0.00    +0.037 C 
ATOM     11  C   UNL     1      34.121 -20.226 -20.172  0.00  0.00    +0.037 C 
ATOM     12  C   UNL     1      32.845 -20.693 -19.859  0.00  0.00    +0.134 C 
BRANCH  12  13
ATOM     13  O   UNL     1      31.785 -20.359 -20.645  0.00  0.00    -0.506 OA
ATOM     14  H   UNL     1      31.927 -19.923 -21.462  0.00  0.00    +0.292 HD
ENDBRANCH  12  13
ENDBRANCH   6   7
ENDBRANCH   4   5
ENDBRANCH   2   4
ENDBRANCH   1   2
BRANCH   1  15
ATOM     15  C   UNL     1      36.195 -24.942 -13.603  0.00  0.00    +0.306 C 
BRANCH  15  17
ATOM     16  O   UNL     1      35.689 -26.358 -15.514  0.00  0.00    -0.246 OA
ATOM     17  C   UNL     1      36.407 -26.103 -14.555  0.00  0.00    +0.358 C 
BRANCH  17  18
ATOM     18  O   UNL     1      37.504 -26.837 -14.240  0.00  0.00    -0.478 OA
ATOM     19  H   UNL     1      37.827 -27.479 -14.842  0.00  0.00    +0.295 HD
ENDBRANCH  17  18
ENDBRANCH  15  17
BRANCH  15  20
ATOM     20  O   UNL     1      35.045 -24.238 -14.070  0.00  0.00    -0.434 OA
BRANCH  20  22
ATOM     21  O   UNL     1      34.088 -23.957 -11.986  0.00  0.00    -0.245 OA
ATOM     22  C   UNL     1      34.010 -24.151 -13.188  0.00  0.00    +0.342 C 
BRANCH  22  23
ATOM     23  C   UNL     1      32.753 -24.340 -13.948  0.00  0.00    +0.082 C 
ATOM     24  C   UNL     1      31.919 -23.302 -14.113  0.00  0.00    +0.007 C 
BRANCH  24  25
ATOM     25  C   UNL     1      30.648 -23.360 -14.856  0.00  0.00    +0.000 C 
ATOM     26  C   UNL     1      29.802 -24.441 -14.669  0.00  0.00    +0.003 C 
ATOM     27  C   UNL     1      30.324 -22.333 -15.727  0.00  0.00    +0.003 C 
ATOM     28  C   UNL     1      28.598 -24.496 -15.373  0.00  0.00    +0.037 C 
ATOM     29  C   UNL     1      29.121 -22.388 -16.431  0.00  0.00    +0.037 C 
ATOM     30  C   UNL     1      28.258 -23.470 -16.253  0.00  0.00    +0.134 C 
BRANCH  30  31
ATOM     31  O   UNL     1      27.085 -23.524 -16.940  0.00  0.00    -0.506 OA
ATOM     32  H   UNL     1      26.442 -24.170 -16.720  0.00  0.00    +0.292 HD
ENDBRANCH  30  31
ENDBRANCH  24  25
ENDBRANCH  22  23
ENDBRANCH  20  22
ENDBRANCH  15  20
ENDBRANCH   1  15
BRANCH   1  33
ATOM     33  C   UNL     1      37.980 -23.706 -12.196  0.00  0.00    +0.157 C 
BRANCH  33  35
ATOM     34  O   UNL     1      36.672 -24.043 -10.171  0.00  0.00    -0.250 OA
ATOM     35  C   UNL     1      36.964 -23.350 -11.136  0.00  0.00    +0.318 C 
BRANCH  35  36
ATOM     36  O   UNL     1      36.415 -22.127 -11.361  0.00  0.00    -0.480 OA
ATOM     37  H   UNL     1      35.896 -21.980 -12.126  0.00  0.00    +0.295 HD
ENDBRANCH  35  36
ENDBRANCH  33  35
ENDBRANCH   1  33
TORSDOF 16
ENDMDL
MODEL 3
REMARK VINA RESULT:     -10.7      1.660      6.141
REMARK  Name = 11669698
REMARK  16 active torsions:
REMARK  status: ('A' for Active; 'I' for Inactive)
REMARK    1  A    between atoms: C_1  and  O_2
REMARK    2  A    between atoms: C_1  and  C_15
REMARK    3  A    between atoms: C_1  and  C_33
REMARK    4  A    between atoms: O_2  and  C_4
REMARK    5  A    between atoms: C_4  and  C_5
REMARK    6  A    between atoms: C_6  and  C_7
REMARK    7  A    between atoms: C_12  and  O_13
REMARK    8  A    between atoms: C_15  and  C_17
REMARK    9  A    between atoms: C_15  and  O_20
REMARK   10  A    between atoms: C_17  and  O_18
REMARK   11  A    between atoms: O_20  and  C_22
REMARK   12  A    between atoms: C_22  and  C_23
REMARK   13  A    between atoms: C_24  and  C_25
REMARK   14  A    between atoms: C_30  and  O_31
REMARK   15  A    between atoms: C_33  and  C_35
REMARK   16  A    between atoms: C_35  and  O_36
REMARK                            x       y       z     vdW  Elec       q    Type
REMARK                         _______ _______ _______ _____ _____    ______ ____
ROOT
ATOM      1  C   UNL     1      37.021 -23.380 -14.847  0.00  0.00    +0.231 C 
ENDROOT
BRANCH   1   2
ATOM      2  O   UNL     1      36.895 -22.284 -15.758  0.00  0.00    -0.444 OA
BRANCH   2   4
ATOM      3  O   UNL     1      34.826 -23.050 -16.445  0.00  0.00    -0.245 OA
ATOM      4  C   UNL     1      35.786 -22.301 -16.545  0.00  0.00    +0.341 C 
BRANCH   4   5
ATOM      5  C   UNL     1      35.942 -21.239 -17.564  0.00  0.00    +0.082 C 
ATOM      6  C   UNL     1      35.172 -21.256 -18.661  0.00  0.00    +0.007 C 
BRANCH   6   7
ATOM      7  C   UNL     1      35.226 -20.252 -19.738  0.00  0.00    +0.000 C 
ATOM      8  C   UNL     1      36.413 -19.579 -19.980  0.00  0.00    +0.003 C 
ATOM      9  C   UNL     1      34.088 -19.999 -20.486  0.00  0.00    +0.003 C 
ATOM     10  C   UNL     1      36.463 -18.629 -20.999  0.00  0.00    +0.037 C 
ATOM     11  C   UNL     1      34.138 -19.048 -21.505  0.00  0.00    +0.037 C 
ATOM     12  C   UNL     1      35.326 -18.363 -21.762  0.00  0.00    +0.134 C 
BRANCH  12  13
ATOM     13  O   UNL     1      35.375 -17.434 -22.756  0.00  0.00    -0.506 OA
ATOM     14  H   UNL     1      36.017 -16.751 -22.728  0.00  0.00    +0.292 HD
ENDBRANCH  12  13
ENDBRANCH   6   7
ENDBRANCH   4   5
ENDBRANCH   2   4
ENDBRANCH   1   2
BRANCH   1  15
ATOM     15  C   UNL     1      36.300 -23.046 -13.533  0.00  0.00    +0.306 C 
BRANCH  15  17
ATOM     16  O   UNL     1      37.679 -23.988 -11.766  0.00  0.00    -0.246 OA
ATOM     17  C   UNL     1      37.219 -23.002 -12.328  0.00  0.00    +0.358 C 
BRANCH  17  18
ATOM     18  O   UNL     1      37.500 -21.733 -11.937  0.00  0.00    -0.478 OA
ATOM     19  H   UNL     1      37.765 -21.095 -12.571  0.00  0.00    +0.295 HD
ENDBRANCH  17  18
ENDBRANCH  15  17
BRANCH  15  20
ATOM     20  O   UNL     1      35.356 -24.088 -13.286  0.00  0.00    -0.434 OA
BRANCH  20  22
ATOM     21  O   UNL     1      34.051 -23.343 -11.532  0.00  0.00    -0.245 OA
ATOM     22  C   UNL     1      34.194 -23.699 -12.690  0.00  0.00    +0.342 C 
BRANCH  22  23
ATOM     23  C   UNL     1      33.117 -23.787 -13.702  0.00  0.00    +0.082 C 
ATOM     24  C   UNL     1      31.846 -23.566 -13.335  0.00  0.00    +0.007 C 
BRANCH  24  25
ATOM     25  C   UNL     1      30.691 -23.613 -14.247  0.00  0.00    +0.000 C 
ATOM     26  C   UNL     1      30.555 -22.637 -15.222  0.00  0.00    +0.003 C 
ATOM     27  C   UNL     1      29.762 -24.632 -14.114  0.00  0.00    +0.003 C 
ATOM     28  C   UNL     1      29.461 -22.682 -16.085  0.00  0.00    +0.037 C 
ATOM     29  C   UNL     1      28.667 -24.677 -14.978  0.00  0.00    +0.037 C 
ATOM     30  C   UNL     1      28.517 -23.701 -15.963  0.00  0.00    +0.134 C 
BRANCH  30  31
ATOM     31  O   UNL     1      27.449 -23.744 -16.806  0.00  0.00    -0.506 OA
ATOM     32  H   UNL     1      26.600 -23.498 -16.498  0.00  0.00    +0.292 HD
ENDBRANCH  30  31
ENDBRANCH  24  25
ENDBRANCH  22  23
ENDBRANCH  20  22
ENDBRANCH  15  20
ENDBRANCH   1  15
BRANCH   1  33
ATOM     33  C   UNL     1      38.510 -23.696 -14.710  0.00  0.00    +0.157 C 
BRANCH  33  35
ATOM     34  O   UNL     1      38.166 -26.081 -14.368  0.00  0.00    -0.250 OA
ATOM     35  C   UNL     1      38.828 -25.168 -14.842  0.00  0.00    +0.318 C 
BRANCH  35  36
ATOM     36  O   UNL     1      39.943 -25.374 -15.590  0.00  0.00    -0.480 OA
ATOM     37  H   UNL     1      40.126 -24.817 -16.321  0.00  0.00    +0.295 HD
ENDBRANCH  35  36
ENDBRANCH  33  35
ENDBRANCH   1  33
TORSDOF 16
ENDMDL
MODEL 4
REMARK VINA RESULT:     -10.7      1.243      5.013
REMARK  Name = 11669698
REMARK  16 active torsions:
REMARK  status: ('A' for Active; 'I' for Inactive)
REMARK    1  A    between atoms: C_1  and  O_2
REMARK    2  A    between atoms: C_1  and  C_15
REMARK    3  A    between atoms: C_1  and  C_33
REMARK    4  A    between atoms: O_2  and  C_4
REMARK    5  A    between atoms: C_4  and  C_5
REMARK    6  A    between atoms: C_6  and  C_7
REMARK    7  A    between atoms: C_12  and  O_13
REMARK    8  A    between atoms: C_15  and  C_17
REMARK    9  A    between atoms: C_15  and  O_20
REMARK   10  A    between atoms: C_17  and  O_18
REMARK   11  A    between atoms: O_20  and  C_22
REMARK   12  A    between atoms: C_22  and  C_23
REMARK   13  A    between atoms: C_24  and  C_25
REMARK   14  A    between atoms: C_30  and  O_31
REMARK   15  A    between atoms: C_33  and  C_35
REMARK   16  A    between atoms: C_35  and  O_36
REMARK                            x       y       z     vdW  Elec       q    Type
REMARK                         _______ _______ _______ _____ _____    ______ ____
ROOT
ATOM      1  C   UNL     1      37.126 -24.952 -14.213  0.00  0.00    +0.231 C 
ENDROOT
BRANCH   1   2
ATOM      2  O   UNL     1      37.336 -23.903 -15.163  0.00  0.00    -0.444 OA
BRANCH   2   4
ATOM      3  O   UNL     1      37.406 -21.978 -13.886  0.00  0.00    -0.245 OA
ATOM      4  C   UNL     1      36.923 -22.668 -14.772  0.00  0.00    +0.341 C 
BRANCH   4   5
ATOM      5  C   UNL     1      35.766 -22.292 -15.615  0.00  0.00    +0.082 C 
ATOM      6  C   UNL     1      35.957 -22.015 -16.913  0.00  0.00    +0.007 C 
BRANCH   6   7
ATOM      7  C   UNL     1      34.887 -21.641 -17.855  0.00  0.00    +0.000 C 
ATOM      8  C   UNL     1      33.590 -22.062 -17.610  0.00  0.00    +0.003 C 
ATOM      9  C   UNL     1      35.199 -20.877 -18.968  0.00  0.00    +0.003 C 
ATOM     10  C   UNL     1      32.578 -21.708 -18.502  0.00  0.00    +0.037 C 
ATOM     11  C   UNL     1      34.187 -20.523 -19.859  0.00  0.00    +0.037 C 
ATOM     12  C   UNL     1      32.876 -20.938 -19.627  0.00  0.00    +0.134 C 
BRANCH  12  13
ATOM     13  O   UNL     1      31.888 -20.594 -20.498  0.00  0.00    -0.506 OA
ATOM     14  H   UNL     1      31.830 -21.018 -21.332  0.00  0.00    +0.292 HD
ENDBRANCH  12  13
ENDBRANCH   6   7
ENDBRANCH   4   5
ENDBRANCH   2   4
ENDBRANCH   1   2
BRANCH   1  15
ATOM     15  C   UNL     1      36.366 -24.404 -12.997  0.00  0.00    +0.306 C 
BRANCH  15  17
ATOM     16  O   UNL     1      37.574 -24.228 -10.894  0.00  0.00    -0.246 OA
ATOM     17  C   UNL     1      36.903 -24.900 -11.668  0.00  0.00    +0.358 C 
BRANCH  17  18
ATOM     18  O   UNL     1      36.546 -26.183 -11.411  0.00  0.00    -0.478 OA
ATOM     19  H   UNL     1      36.775 -26.863 -12.014  0.00  0.00    +0.295 HD
ENDBRANCH  17  18
ENDBRANCH  15  17
BRANCH  15  20
ATOM     20  O   UNL     1      35.019 -24.867 -13.089  0.00  0.00    -0.434 OA
BRANCH  20  22
ATOM     21  O   UNL     1      34.091 -23.193 -11.796  0.00  0.00    -0.245 OA
ATOM     22  C   UNL     1      34.061 -23.963 -12.741  0.00  0.00    +0.342 C 
BRANCH  22  23
ATOM     23  C   UNL     1      32.956 -24.078 -13.721  0.00  0.00    +0.082 C 
ATOM     24  C   UNL     1      31.798 -23.443 -13.488  0.00  0.00    +0.007 C 
BRANCH  24  25
ATOM     25  C   UNL     1      30.632 -23.471 -14.388  0.00  0.00    +0.000 C 
ATOM     26  C   UNL     1      30.528 -22.523 -15.393  0.00  0.00    +0.003 C 
ATOM     27  C   UNL     1      29.663 -24.445 -14.212  0.00  0.00    +0.003 C 
ATOM     28  C   UNL     1      29.423 -22.550 -16.245  0.00  0.00    +0.037 C 
ATOM     29  C   UNL     1      28.559 -24.472 -15.064  0.00  0.00    +0.037 C 
ATOM     30  C   UNL     1      28.440 -23.524 -16.081  0.00  0.00    +0.134 C 
BRANCH  30  31
ATOM     31  O   UNL     1      27.362 -23.549 -16.911  0.00  0.00    -0.506 OA
ATOM     32  H   UNL     1      26.968 -22.747 -17.192  0.00  0.00    +0.292 HD
ENDBRANCH  30  31
ENDBRANCH  24  25
ENDBRANCH  22  23
ENDBRANCH  20  22
ENDBRANCH  15  20
ENDBRANCH   1  15
BRANCH   1  33
ATOM     33  C   UNL     1      38.489 -25.571 -13.904  0.00  0.00    +0.157 C 
BRANCH  33  35
ATOM     34  O   UNL     1      40.376 -24.064 -14.208  0.00  0.00    -0.250 OA
ATOM     35  C   UNL     1      39.629 -24.924 -14.656  0.00  0.00    +0.318 C 
BRANCH  35  36
ATOM     36  O   UNL     1      39.757 -25.436 -15.908  0.00  0.00    -0.480 OA
ATOM     37  H   UNL     1      40.385 -26.110 -16.076  0.00  0.00    +0.295 HD
ENDBRANCH  35  36
ENDBRANCH  33  35
ENDBRANCH   1  33
TORSDOF 16
ENDMDL
MODEL 5
REMARK VINA RESULT:     -10.7      1.803      2.931
REMARK  Name = 11669698
REMARK  16 active torsions:
REMARK  status: ('A' for Active; 'I' for Inactive)
REMARK    1  A    between atoms: C_1  and  O_2
REMARK    2  A    between atoms: C_1  and  C_15
REMARK    3  A    between atoms: C_1  and  C_33
REMARK    4  A    between atoms: O_2  and  C_4
REMARK    5  A    between atoms: C_4  and  C_5
REMARK    6  A    between atoms: C_6  and  C_7
REMARK    7  A    between atoms: C_12  and  O_13
REMARK    8  A    between atoms: C_15  and  C_17
REMARK    9  A    between atoms: C_15  and  O_20
REMARK   10  A    between atoms: C_17  and  O_18
REMARK   11  A    between atoms: O_20  and  C_22
REMARK   12  A    between atoms: C_22  and  C_23
REMARK   13  A    between atoms: C_24  and  C_25
REMARK   14  A    between atoms: C_30  and  O_31
REMARK   15  A    between atoms: C_33  and  C_35
REMARK   16  A    between atoms: C_35  and  O_36
REMARK                            x       y       z     vdW  Elec       q    Type
REMARK                         _______ _______ _______ _____ _____    ______ ____
ROOT
ATOM      1  C   UNL     1      35.411 -23.556 -14.311  0.00  0.00    +0.231 C 
ENDROOT
BRANCH   1   2
ATOM      2  O   UNL     1      34.078 -24.065 -14.221  0.00  0.00    -0.444 OA
BRANCH   2   4
ATOM      3  O   UNL     1      33.746 -23.764 -11.955  0.00  0.00    -0.245 OA
ATOM      4  C   UNL     1      33.379 -23.687 -13.117  0.00  0.00    +0.341 C 
BRANCH   4   5
ATOM      5  C   UNL     1      32.074 -23.158 -13.571  0.00  0.00    +0.082 C 
ATOM      6  C   UNL     1      31.315 -23.891 -14.398  0.00  0.00    +0.007 C 
BRANCH   6   7
ATOM      7  C   UNL     1      29.995 -23.479 -14.910  0.00  0.00    +0.000 C 
ATOM      8  C   UNL     1      29.527 -22.206 -14.629  0.00  0.00    +0.003 C 
ATOM      9  C   UNL     1      29.249 -24.374 -15.660  0.00  0.00    +0.003 C 
ATOM     10  C   UNL     1      28.278 -21.817 -15.113  0.00  0.00    +0.037 C 
ATOM     11  C   UNL     1      28.001 -23.984 -16.144  0.00  0.00    +0.037 C 
ATOM     12  C   UNL     1      27.514 -22.706 -15.871  0.00  0.00    +0.134 C 
BRANCH  12  13
ATOM     13  O   UNL     1      26.295 -22.325 -16.342  0.00  0.00    -0.506 OA
ATOM     14  H   UNL     1      25.959 -22.705 -17.131  0.00  0.00    +0.292 HD
ENDBRANCH  12  13
ENDBRANCH   6   7
ENDBRANCH   4   5
ENDBRANCH   2   4
ENDBRANCH   1   2
BRANCH   1  15
ATOM     15  C   UNL     1      35.667 -23.021 -15.728  0.00  0.00    +0.306 C 
BRANCH  15  17
ATOM     16  O   UNL     1      36.809 -20.887 -15.951  0.00  0.00    -0.246 OA
ATOM     17  C   UNL     1      36.870 -22.103 -15.825  0.00  0.00    +0.358 C 
BRANCH  17  18
ATOM     18  O   UNL     1      38.044 -22.778 -15.740  0.00  0.00    -0.478 OA
ATOM     19  H   UNL     1      38.462 -22.889 -14.909  0.00  0.00    +0.295 HD
ENDBRANCH  17  18
ENDBRANCH  15  17
BRANCH  15  20
ATOM     20  O   UNL     1      34.531 -22.244 -16.103  0.00  0.00    -0.434 OA
BRANCH  20  22
ATOM     21  O   UNL     1      33.383 -23.761 -17.414  0.00  0.00    -0.245 OA
ATOM     22  C   UNL     1      33.876 -22.662 -17.223  0.00  0.00    +0.342 C 
BRANCH  22  23
ATOM     23  C   UNL     1      33.869 -21.537 -18.186  0.00  0.00    +0.082 C 
ATOM     24  C   UNL     1      34.943 -21.322 -18.960  0.00  0.00    +0.007 C 
BRANCH  24  25
ATOM     25  C   UNL     1      35.053 -20.246 -19.960  0.00  0.00    +0.000 C 
ATOM     26  C   UNL     1      36.261 -19.586 -20.116  0.00  0.00    +0.003 C 
ATOM     27  C   UNL     1      33.946 -19.915 -20.724  0.00  0.00    +0.003 C 
ATOM     28  C   UNL     1      36.364 -18.566 -21.063  0.00  0.00    +0.037 C 
ATOM     29  C   UNL     1      34.049 -18.896 -21.671  0.00  0.00    +0.037 C 
ATOM     30  C   UNL     1      35.259 -18.222 -21.840  0.00  0.00    +0.134 C 
BRANCH  30  31
ATOM     31  O   UNL     1      35.359 -17.227 -22.763  0.00  0.00    -0.506 OA
ATOM     32  H   UNL     1      36.165 -16.759 -22.861  0.00  0.00    +0.292 HD
ENDBRANCH  30  31
ENDBRANCH  24  25
ENDBRANCH  22  23
ENDBRANCH  20  22
ENDBRANCH  15  20
ENDBRANCH   1  15
BRANCH   1  33
ATOM     33  C   UNL     1      36.359 -24.664 -13.852  0.00  0.00    +0.157 C 
BRANCH  33  35
ATOM     34  O   UNL     1      35.747 -26.452 -15.386  0.00  0.00    -0.250 OA
ATOM     35  C   UNL     1      36.602 -25.721 -14.905  0.00  0.00    +0.318 C 
BRANCH  35  36
ATOM     36  O   UNL     1      37.905 -25.752 -15.291  0.00  0.00    -0.480 OA
ATOM     37  H   UNL     1      38.122 -25.827 -16.199  0.00  0.00    +0.295 HD
ENDBRANCH  35  36
ENDBRANCH  33  35
ENDBRANCH   1  33
TORSDOF 16
ENDMDL
MODEL 6
REMARK VINA RESULT:     -10.6      3.238      5.600
REMARK  Name = 11669698
REMARK  16 active torsions:
REMARK  status: ('A' for Active; 'I' for Inactive)
REMARK    1  A    between atoms: C_1  and  O_2
REMARK    2  A    between atoms: C_1  and  C_15
REMARK    3  A    between atoms: C_1  and  C_33
REMARK    4  A    between atoms: O_2  and  C_4
REMARK    5  A    between atoms: C_4  and  C_5
REMARK    6  A    between atoms: C_6  and  C_7
REMARK    7  A    between atoms: C_12  and  O_13
REMARK    8  A    between atoms: C_15  and  C_17
REMARK    9  A    between atoms: C_15  and  O_20
REMARK   10  A    between atoms: C_17  and  O_18
REMARK   11  A    between atoms: O_20  and  C_22
REMARK   12  A    between atoms: C_22  and  C_23
REMARK   13  A    between atoms: C_24  and  C_25
REMARK   14  A    between atoms: C_30  and  O_31
REMARK   15  A    between atoms: C_33  and  C_35
REMARK   16  A    between atoms: C_35  and  O_36
REMARK                            x       y       z     vdW  Elec       q    Type
REMARK                         _______ _______ _______ _____ _____    ______ ____
ROOT
ATOM      1  C   UNL     1      34.776 -21.625 -17.538  0.00  0.00    +0.231 C 
ENDROOT
BRANCH   1   2
ATOM      2  O   UNL     1      34.171 -22.901 -17.309  0.00  0.00    -0.444 OA
BRANCH   2   4
ATOM      3  O   UNL     1      34.091 -23.461 -15.068  0.00  0.00    -0.245 OA
ATOM      4  C   UNL     1      33.573 -23.056 -16.097  0.00  0.00    +0.341 C 
BRANCH   4   5
ATOM      5  C   UNL     1      32.158 -22.644 -16.240  0.00  0.00    +0.082 C 
ATOM      6  C   UNL     1      31.220 -23.225 -15.478  0.00  0.00    +0.007 C 
BRANCH   6   7
ATOM      7  C   UNL     1      29.784 -22.894 -15.520  0.00  0.00    +0.000 C 
ATOM      8  C   UNL     1      29.266 -22.006 -14.591  0.00  0.00    +0.003 C 
ATOM      9  C   UNL     1      28.981 -23.479 -16.486  0.00  0.00    +0.003 C 
ATOM     10  C   UNL     1      27.908 -21.693 -14.631  0.00  0.00    +0.037 C 
ATOM     11  C   UNL     1      27.623 -23.166 -16.525  0.00  0.00    +0.037 C 
ATOM     12  C   UNL     1      27.085 -22.273 -15.598  0.00  0.00    +0.134 C 
BRANCH  12  13
ATOM     13  O   UNL     1      25.760 -21.968 -15.636  0.00  0.00    -0.506 OA
ATOM     14  H   UNL     1      25.120 -22.652 -15.593  0.00  0.00    +0.292 HD
ENDBRANCH  12  13
ENDBRANCH   6   7
ENDBRANCH   4   5
ENDBRANCH   2   4
ENDBRANCH   1   2
BRANCH   1  15
ATOM     15  C   UNL     1      34.237 -21.025 -18.845  0.00  0.00    +0.306 C 
BRANCH  15  17
ATOM     16  O   UNL     1      32.035 -21.476 -19.774  0.00  0.00    -0.246 OA
ATOM     17  C   UNL     1      33.164 -21.869 -19.505  0.00  0.00    +0.358 C 
BRANCH  17  18
ATOM     18  O   UNL     1      33.593 -23.124 -19.789  0.00  0.00    -0.478 OA
ATOM     19  H   UNL     1      33.565 -23.790 -19.130  0.00  0.00    +0.295 HD
ENDBRANCH  17  18
ENDBRANCH  15  17
BRANCH  15  20
ATOM     20  O   UNL     1      35.324 -20.957 -19.765  0.00  0.00    -0.434 OA
BRANCH  20  22
ATOM     21  O   UNL     1      36.736 -19.186 -19.308  0.00  0.00    -0.245 OA
ATOM     22  C   UNL     1      35.852 -19.716 -19.961  0.00  0.00    +0.342 C 
BRANCH  22  23
ATOM     23  C   UNL     1      35.157 -19.108 -21.119  0.00  0.00    +0.082 C 
ATOM     24  C   UNL     1      35.289 -17.794 -21.353  0.00  0.00    +0.007 C 
BRANCH  24  25
ATOM     25  C   UNL     1      34.658 -17.077 -22.474  0.00  0.00    +0.000 C 
ATOM     26  C   UNL     1      34.124 -17.800 -23.528  0.00  0.00    +0.003 C 
ATOM     27  C   UNL     1      34.612 -15.692 -22.454  0.00  0.00    +0.003 C 
ATOM     28  C   UNL     1      33.528 -17.121 -24.591  0.00  0.00    +0.037 C 
ATOM     29  C   UNL     1      34.016 -15.013 -23.516  0.00  0.00    +0.037 C 
ATOM     30  C   UNL     1      33.474 -15.727 -24.585  0.00  0.00    +0.134 C 
BRANCH  30  31
ATOM     31  O   UNL     1      32.893 -15.065 -25.622  0.00  0.00    -0.506 OA
ATOM     32  H   UNL     1      32.879 -14.128 -25.630  0.00  0.00    +0.292 HD
ENDBRANCH  30  31
ENDBRANCH  24  25
ENDBRANCH  22  23
ENDBRANCH  20  22
ENDBRANCH  15  20
ENDBRANCH   1  15
BRANCH   1  33
ATOM     33  C   UNL     1      36.291 -21.818 -17.488  0.00  0.00    +0.157 C 
BRANCH  33  35
ATOM     34  O   UNL     1      37.232 -21.615 -15.252  0.00  0.00    -0.250 OA
ATOM     35  C   UNL     1      36.950 -21.107 -16.329  0.00  0.00    +0.318 C 
BRANCH  35  36
ATOM     36  O   UNL     1      37.231 -19.812 -16.632  0.00  0.00    -0.480 OA
ATOM     37  H   UNL     1      37.143 -19.508 -17.513  0.00  0.00    +0.295 HD
ENDBRANCH  35  36
ENDBRANCH  33  35
ENDBRANCH   1  33
TORSDOF 16
ENDMDL
MODEL 7
REMARK VINA RESULT:     -10.3      4.301      7.628
REMARK  Name = 11669698
REMARK  16 active torsions:
REMARK  status: ('A' for Active; 'I' for Inactive)
REMARK    1  A    between atoms: C_1  and  O_2
REMARK    2  A    between atoms: C_1  and  C_15
REMARK    3  A    between atoms: C_1  and  C_33
REMARK    4  A    between atoms: O_2  and  C_4
REMARK    5  A    between atoms: C_4  and  C_5
REMARK    6  A    between atoms: C_6  and  C_7
REMARK    7  A    between atoms: C_12  and  O_13
REMARK    8  A    between atoms: C_15  and  C_17
REMARK    9  A    between atoms: C_15  and  O_20
REMARK   10  A    between atoms: C_17  and  O_18
REMARK   11  A    between atoms: O_20  and  C_22
REMARK   12  A    between atoms: C_22  and  C_23
REMARK   13  A    between atoms: C_24  and  C_25
REMARK   14  A    between atoms: C_30  and  O_31
REMARK   15  A    between atoms: C_33  and  C_35
REMARK   16  A    between atoms: C_35  and  O_36
REMARK                            x       y       z     vdW  Elec       q    Type
REMARK                         _______ _______ _______ _____ _____    ______ ____
ROOT
ATOM      1  C   UNL     1      34.934 -20.410 -19.861  0.00  0.00    +0.231 C 
ENDROOT
BRANCH   1   2
ATOM      2  O   UNL     1      33.827 -21.287 -20.087  0.00  0.00    -0.444 OA
BRANCH   2   4
ATOM      3  O   UNL     1      31.807 -20.263 -19.629  0.00  0.00    -0.245 OA
ATOM      4  C   UNL     1      32.715 -21.030 -19.347  0.00  0.00    +0.341 C 
BRANCH   4   5
ATOM      5  C   UNL     1      32.794 -21.850 -18.118  0.00  0.00    +0.082 C 
ATOM      6  C   UNL     1      31.709 -21.987 -17.343  0.00  0.00    +0.007 C 
BRANCH   6   7
ATOM      7  C   UNL     1      31.659 -22.784 -16.104  0.00  0.00    +0.000 C 
ATOM      8  C   UNL     1      32.838 -23.070 -15.434  0.00  0.00    +0.003 C 
ATOM      9  C   UNL     1      30.435 -23.233 -15.636  0.00  0.00    +0.003 C 
ATOM     10  C   UNL     1      32.790 -23.824 -14.263  0.00  0.00    +0.037 C 
ATOM     11  C   UNL     1      30.388 -23.987 -14.464  0.00  0.00    +0.037 C 
ATOM     12  C   UNL     1      31.565 -24.283 -13.776  0.00  0.00    +0.134 C 
BRANCH  12  13
ATOM     13  O   UNL     1      31.520 -25.020 -12.633  0.00  0.00    -0.506 OA
ATOM     14  H   UNL     1      31.452 -25.954 -12.680  0.00  0.00    +0.292 HD
ENDBRANCH  12  13
ENDBRANCH   6   7
ENDBRANCH   4   5
ENDBRANCH   2   4
ENDBRANCH   1   2
BRANCH   1  15
ATOM     15  C   UNL     1      35.279 -19.667 -21.160  0.00  0.00    +0.306 C 
BRANCH  15  17
ATOM     16  O   UNL     1      35.491 -17.378 -20.366  0.00  0.00    -0.246 OA
ATOM     17  C   UNL     1      35.985 -18.344 -20.935  0.00  0.00    +0.358 C 
BRANCH  17  18
ATOM     18  O   UNL     1      37.251 -18.342 -21.424  0.00  0.00    -0.478 OA
ATOM     19  H   UNL     1      37.637 -17.542 -21.724  0.00  0.00    +0.295 HD
ENDBRANCH  17  18
ENDBRANCH  15  17
BRANCH  15  20
ATOM     20  O   UNL     1      34.050 -19.365 -21.820  0.00  0.00    -0.434 OA
BRANCH  20  22
ATOM     21  O   UNL     1      34.650 -19.708 -24.024  0.00  0.00    -0.245 OA
ATOM     22  C   UNL     1      34.157 -19.032 -23.137  0.00  0.00    +0.342 C 
BRANCH  22  23
ATOM     23  C   UNL     1      33.565 -17.686 -23.310  0.00  0.00    +0.082 C 
ATOM     24  C   UNL     1      34.367 -16.612 -23.360  0.00  0.00    +0.007 C 
BRANCH  24  25
ATOM     25  C   UNL     1      33.901 -15.227 -23.539  0.00  0.00    +0.000 C 
ATOM     26  C   UNL     1      33.303 -14.861 -24.733  0.00  0.00    +0.003 C 
ATOM     27  C   UNL     1      34.071 -14.316 -22.509  0.00  0.00    +0.003 C 
ATOM     28  C   UNL     1      32.862 -13.548 -24.903  0.00  0.00    +0.037 C 
ATOM     29  C   UNL     1      33.631 -13.003 -22.679  0.00  0.00    +0.037 C 
ATOM     30  C   UNL     1      33.026 -12.620 -23.876  0.00  0.00    +0.134 C 
BRANCH  30  31
ATOM     31  O   UNL     1      32.597 -11.339 -24.042  0.00  0.00    -0.506 OA
ATOM     32  H   UNL     1      32.077 -11.112 -24.788  0.00  0.00    +0.292 HD
ENDBRANCH  30  31
ENDBRANCH  24  25
ENDBRANCH  22  23
ENDBRANCH  20  22
ENDBRANCH  15  20
ENDBRANCH   1  15
BRANCH   1  33
ATOM     33  C   UNL     1      36.069 -21.245 -19.267  0.00  0.00    +0.157 C 
BRANCH  33  35
ATOM     34  O   UNL     1      36.828 -20.003 -17.317  0.00  0.00    -0.250 OA
ATOM     35  C   UNL     1      36.293 -20.994 -17.794  0.00  0.00    +0.318 C 
BRANCH  35  36
ATOM     36  O   UNL     1      35.793 -22.004 -17.034  0.00  0.00    -0.480 OA
ATOM     37  H   UNL     1      36.106 -22.131 -16.160  0.00  0.00    +0.295 HD
ENDBRANCH  35  36
ENDBRANCH  33  35
ENDBRANCH   1  33
TORSDOF 16
ENDMDL
MODEL 8
REMARK VINA RESULT:     -10.1      7.429     11.898
REMARK  Name = 11669698
REMARK  16 active torsions:
REMARK  status: ('A' for Active; 'I' for Inactive)
REMARK    1  A    between atoms: C_1  and  O_2
REMARK    2  A    between atoms: C_1  and  C_15
REMARK    3  A    between atoms: C_1  and  C_33
REMARK    4  A    between atoms: O_2  and  C_4
REMARK    5  A    between atoms: C_4  and  C_5
REMARK    6  A    between atoms: C_6  and  C_7
REMARK    7  A    between atoms: C_12  and  O_13
REMARK    8  A    between atoms: C_15  and  C_17
REMARK    9  A    between atoms: C_15  and  O_20
REMARK   10  A    between atoms: C_17  and  O_18
REMARK   11  A    between atoms: O_20  and  C_22
REMARK   12  A    between atoms: C_22  and  C_23
REMARK   13  A    between atoms: C_24  and  C_25
REMARK   14  A    between atoms: C_30  and  O_31
REMARK   15  A    between atoms: C_33  and  C_35
REMARK   16  A    between atoms: C_35  and  O_36
REMARK                            x       y       z     vdW  Elec       q    Type
REMARK                         _______ _______ _______ _____ _____    ______ ____
ROOT
ATOM      1  C   UNL     1      34.648 -15.294 -22.895  0.00  0.00    +0.231 C 
ENDROOT
BRANCH   1   2
ATOM      2  O   UNL     1      34.127 -16.466 -22.261  0.00  0.00    -0.444 OA
BRANCH   2   4
ATOM      3  O   UNL     1      36.149 -17.570 -22.429  0.00  0.00    -0.245 OA
ATOM      4  C   UNL     1      35.047 -17.410 -21.928  0.00  0.00    +0.341 C 
BRANCH   4   5
ATOM      5  C   UNL     1      34.474 -18.229 -20.836  0.00  0.00    +0.082 C 
ATOM      6  C   UNL     1      34.659 -19.557 -20.839  0.00  0.00    +0.007 C 
BRANCH   6   7
ATOM      7  C   UNL     1      34.149 -20.476 -19.805  0.00  0.00    +0.000 C 
ATOM      8  C   UNL     1      35.048 -21.161 -19.004  0.00  0.00    +0.003 C 
ATOM      9  C   UNL     1      32.781 -20.636 -19.656  0.00  0.00    +0.003 C 
ATOM     10  C   UNL     1      34.565 -22.030 -18.026  0.00  0.00    +0.037 C 
ATOM     11  C   UNL     1      32.299 -21.505 -18.677  0.00  0.00    +0.037 C 
ATOM     12  C   UNL     1      33.190 -22.203 -17.862  0.00  0.00    +0.134 C 
BRANCH  12  13
ATOM     13  O   UNL     1      32.720 -23.051 -16.908  0.00  0.00    -0.506 OA
ATOM     14  H   UNL     1      32.332 -22.708 -16.126  0.00  0.00    +0.292 HD
ENDBRANCH  12  13
ENDBRANCH   6   7
ENDBRANCH   4   5
ENDBRANCH   2   4
ENDBRANCH   1   2
BRANCH   1  15
ATOM     15  C   UNL     1      33.874 -14.058 -22.415  0.00  0.00    +0.306 C 
BRANCH  15  17
ATOM     16  O   UNL     1      32.176 -13.861 -20.686  0.00  0.00    -0.246 OA
ATOM     17  C   UNL     1      33.305 -14.201 -21.017  0.00  0.00    +0.358 C 
BRANCH  17  18
ATOM     18  O   UNL     1      34.185 -14.771 -20.155  0.00  0.00    -0.478 OA
ATOM     19  H   UNL     1      34.991 -14.337 -19.953  0.00  0.00    +0.295 HD
ENDBRANCH  17  18
ENDBRANCH  15  17
BRANCH  15  20
ATOM     20  O   UNL     1      32.761 -13.884 -23.291  0.00  0.00    -0.434 OA
BRANCH  20  22
ATOM     21  O   UNL     1      32.734 -12.654 -25.247  0.00  0.00    -0.245 OA
ATOM     22  C   UNL     1      32.769 -12.739 -24.030  0.00  0.00    +0.342 C 
BRANCH  22  23
ATOM     23  C   UNL     1      32.831 -11.596 -23.090  0.00  0.00    +0.082 C 
ATOM     24  C   UNL     1      31.692 -11.043 -22.647  0.00  0.00    +0.007 C 
BRANCH  24  25
ATOM     25  C   UNL     1      31.622  -9.913 -21.705  0.00  0.00    +0.000 C 
ATOM     26  C   UNL     1      31.957  -8.642 -22.144  0.00  0.00    +0.003 C 
ATOM     27  C   UNL     1      31.223 -10.143 -20.398  0.00  0.00    +0.003 C 
ATOM     28  C   UNL     1      31.892  -7.572 -21.251  0.00  0.00    +0.037 C 
ATOM     29  C   UNL     1      31.158  -9.072 -19.506  0.00  0.00    +0.037 C 
ATOM     30  C   UNL     1      31.492  -7.787 -19.933  0.00  0.00    +0.134 C 
BRANCH  30  31
ATOM     31  O   UNL     1      31.428  -6.743 -19.062  0.00  0.00    -0.506 OA
ATOM     32  H   UNL     1      31.091  -5.916 -19.346  0.00  0.00    +0.292 HD
ENDBRANCH  30  31
ENDBRANCH  24  25
ENDBRANCH  22  23
ENDBRANCH  20  22
ENDBRANCH  15  20
ENDBRANCH   1  15
BRANCH   1  33
ATOM     33  C   UNL     1      34.618 -15.535 -24.404  0.00  0.00    +0.157 C 
BRANCH  33  35
ATOM     34  O   UNL     1      33.577 -17.690 -24.848  0.00  0.00    -0.250 OA
ATOM     35  C   UNL     1      33.513 -16.468 -24.842  0.00  0.00    +0.318 C 
BRANCH  35  36
ATOM     36  O   UNL     1      32.398 -15.784 -25.211  0.00  0.00    -0.480 OA
ATOM     37  H   UNL     1      31.723 -16.216 -25.695  0.00  0.00    +0.295 HD
ENDBRANCH  35  36
ENDBRANCH  33  35
ENDBRANCH   1  33
TORSDOF 16
ENDMDL
MODEL 9
REMARK VINA RESULT:      -9.9      3.809      7.600
REMARK  Name = 11669698
REMARK  16 active torsions:
REMARK  status: ('A' for Active; 'I' for Inactive)
REMARK    1  A    between atoms: C_1  and  O_2
REMARK    2  A    between atoms: C_1  and  C_15
REMARK    3  A    between atoms: C_1  and  C_33
REMARK    4  A    between atoms: O_2  and  C_4
REMARK    5  A    between atoms: C_4  and  C_5
REMARK    6  A    between atoms: C_6  and  C_7
REMARK    7  A    between atoms: C_12  and  O_13
REMARK    8  A    between atoms: C_15  and  C_17
REMARK    9  A    between atoms: C_15  and  O_20
REMARK   10  A    between atoms: C_17  and  O_18
REMARK   11  A    between atoms: O_20  and  C_22
REMARK   12  A    between atoms: C_22  and  C_23
REMARK   13  A    between atoms: C_24  and  C_25
REMARK   14  A    between atoms: C_30  and  O_31
REMARK   15  A    between atoms: C_33  and  C_35
REMARK   16  A    between atoms: C_35  and  O_36
REMARK                            x       y       z     vdW  Elec       q    Type
REMARK                         _______ _______ _______ _____ _____    ______ ____
ROOT
ATOM      1  C   UNL     1      34.789 -21.375 -19.066  0.00  0.00    +0.231 C 
ENDROOT
BRANCH   1   2
ATOM      2  O   UNL     1      34.938 -21.174 -17.658  0.00  0.00    -0.444 OA
BRANCH   2   4
ATOM      3  O   UNL     1      36.935 -20.016 -17.550  0.00  0.00    -0.245 OA
ATOM      4  C   UNL     1      36.209 -20.945 -17.231  0.00  0.00    +0.341 C 
BRANCH   4   5
ATOM      5  C   UNL     1      36.572 -22.035 -16.297  0.00  0.00    +0.082 C 
ATOM      6  C   UNL     1      35.877 -22.192 -15.161  0.00  0.00    +0.007 C 
BRANCH   6   7
ATOM      7  C   UNL     1      36.135 -23.242 -14.160  0.00  0.00    +0.000 C 
ATOM      8  C   UNL     1      36.289 -22.888 -12.830  0.00  0.00    +0.003 C 
ATOM      9  C   UNL     1      36.219 -24.563 -14.570  0.00  0.00    +0.003 C 
ATOM     10  C   UNL     1      36.533 -23.883 -11.884  0.00  0.00    +0.037 C 
ATOM     11  C   UNL     1      36.463 -25.557 -13.623  0.00  0.00    +0.037 C 
ATOM     12  C   UNL     1      36.620 -25.218 -12.279  0.00  0.00    +0.134 C 
BRANCH  12  13
ATOM     13  O   UNL     1      36.859 -26.188 -11.355  0.00  0.00    -0.506 OA
ATOM     14  H   UNL     1      36.171 -26.470 -10.784  0.00  0.00    +0.292 HD
ENDBRANCH  12  13
ENDBRANCH   6   7
ENDBRANCH   4   5
ENDBRANCH   2   4
ENDBRANCH   1   2
BRANCH   1  15
ATOM     15  C   UNL     1      34.417 -20.047 -19.741  0.00  0.00    +0.306 C 
BRANCH  15  17
ATOM     16  O   UNL     1      31.993 -20.151 -19.574  0.00  0.00    -0.246 OA
ATOM     17  C   UNL     1      32.994 -20.008 -20.265  0.00  0.00    +0.358 C 
BRANCH  17  18
ATOM     18  O   UNL     1      32.940 -19.777 -21.601  0.00  0.00    -0.478 OA
ATOM     19  H   UNL     1      32.114 -19.778 -22.044  0.00  0.00    +0.295 HD
ENDBRANCH  17  18
ENDBRANCH  15  17
BRANCH  15  20
ATOM     20  O   UNL     1      35.271 -19.888 -20.873  0.00  0.00    -0.434 OA
BRANCH  20  22
ATOM     21  O   UNL     1      36.917 -18.395 -20.239  0.00  0.00    -0.245 OA
ATOM     22  C   UNL     1      35.962 -18.714 -20.928  0.00  0.00    +0.342 C 
BRANCH  22  23
ATOM     23  C   UNL     1      35.344 -17.877 -21.982  0.00  0.00    +0.082 C 
ATOM     24  C   UNL     1      34.884 -16.656 -21.670  0.00  0.00    +0.007 C 
BRANCH  24  25
ATOM     25  C   UNL     1      34.260 -15.727 -22.628  0.00  0.00    +0.000 C 
ATOM     26  C   UNL     1      34.040 -16.143 -23.931  0.00  0.00    +0.003 C 
ATOM     27  C   UNL     1      33.907 -14.456 -22.208  0.00  0.00    +0.003 C 
ATOM     28  C   UNL     1      33.450 -15.263 -24.839  0.00  0.00    +0.037 C 
ATOM     29  C   UNL     1      33.317 -13.575 -23.115  0.00  0.00    +0.037 C 
ATOM     30  C   UNL     1      33.089 -13.979 -24.430  0.00  0.00    +0.134 C 
BRANCH  30  31
ATOM     31  O   UNL     1      32.514 -13.121 -25.316  0.00  0.00    -0.506 OA
ATOM     32  H   UNL     1      32.324 -12.240 -25.059  0.00  0.00    +0.292 HD
ENDBRANCH  30  31
ENDBRANCH  24  25
ENDBRANCH  22  23
ENDBRANCH  20  22
ENDBRANCH  15  20
ENDBRANCH   1  15
BRANCH   1  33
ATOM     33  C   UNL     1      33.785 -22.510 -19.265  0.00  0.00    +0.157 C 
BRANCH  33  35
ATOM     34  O   UNL     1      33.461 -23.760 -17.202  0.00  0.00    -0.250 OA
ATOM     35  C   UNL     1      33.073 -22.913 -17.994  0.00  0.00    +0.318 C 
BRANCH  35  36
ATOM     36  O   UNL     1      31.937 -22.190 -17.807  0.00  0.00    -0.480 OA
ATOM     37  H   UNL     1      31.111 -22.537 -18.078  0.00  0.00    +0.295 HD
ENDBRANCH  35  36
ENDBRANCH  33  35
ENDBRANCH   1  33
TORSDOF 16
ENDMDL
