MODEL 1
REMARK VINA RESULT:     -11.6      0.000      0.000
REMARK  Name = 50902259
REMARK  13 active torsions:
REMARK  status: ('A' for Active; 'I' for Inactive)
REMARK    1  A    between atoms: C_4  and  C_13
REMARK    2  A    between atoms: C_5  and  O_11
REMARK    3  A    between atoms: C_9  and  C_28
REMARK    4  A    between atoms: C_14  and  C_15
REMARK    5  A    between atoms: C_15  and  O_16
REMARK    6  A    between atoms: C_15  and  C_18
REMARK    7  A    between atoms: C_18  and  O_19
REMARK    8  A    between atoms: O_19  and  C_22
REMARK    9  A    between atoms: C_28  and  C_29
REMARK   10  A    between atoms: C_29  and  C_30
REMARK   11  A    between atoms: C_30  and  C_32
REMARK   12  A    between atoms: C_32  and  O_33
REMARK   13  A    between atoms: O_33  and  C_34
REMARK                            x       y       z     vdW  Elec       q    Type
REMARK                         _______ _______ _______ _____ _____    ______ ____
ROOT
ATOM      1  O   UNL     1      34.266 -22.578 -16.085  0.00  0.00    -0.356 OA
ATOM      2  C   UNL     1      35.043 -21.669 -18.287  0.00  0.00    +0.034 C 
ATOM      3  C   UNL     1      34.071 -22.567 -17.489  0.00  0.00    +0.118 C 
ATOM      4  C   UNL     1      34.137 -20.699 -19.090  0.00  0.00    +0.051 C 
ATOM      5  C   UNL     1      32.796 -21.425 -19.175  0.00  0.00    +0.117 C 
ATOM      6  C   UNL     1      32.674 -22.023 -17.785  0.00  0.00    +0.059 C 
ATOM      7  C   UNL     1      36.089 -20.901 -17.474  0.00  0.00    +0.003 C 
ATOM      8  C   UNL     1      37.113 -21.801 -16.784  0.00  0.00    +0.003 C 
ATOM      9  C   UNL     1      36.616 -22.428 -15.474  0.00  0.00    +0.030 C 
ATOM     10  C   UNL     1      35.400 -23.333 -15.671  0.00  0.00    +0.142 C 
ENDROOT
BRANCH   5  11
ATOM     11  O   UNL     1      31.722 -20.534 -19.412  0.00  0.00    -0.384 OA
ATOM     12  H   UNL     1      31.406 -20.643 -20.323  0.00  0.00    +0.210 HD
ENDBRANCH   5  11
BRANCH   4  13
ATOM     13  C   UNL     1      34.687 -20.346 -20.435  0.00  0.00    -0.026 C 
ATOM     14  C   UNL     1      34.313 -19.263 -21.134  0.00  0.00    +0.002 C 
BRANCH  14  15
ATOM     15  C   UNL     1      34.865 -18.911 -22.486  0.00  0.00    +0.176 C 
BRANCH  15  16
ATOM     16  O   UNL     1      33.772 -18.861 -23.399  0.00  0.00    -0.376 OA
ATOM     17  H   UNL     1      33.648 -19.734 -23.803  0.00  0.00    +0.211 HD
ENDBRANCH  15  16
BRANCH  15  18
ATOM     18  C   UNL     1      35.564 -17.554 -22.472  0.00  0.00    +0.239 C 
BRANCH  18  19
ATOM     19  O   UNL     1      34.907 -16.681 -21.564  0.00  0.00    -0.470 OA
BRANCH  19  22
ATOM     20  F   UNL     1      34.006 -14.644 -19.940  0.00  0.00    -0.201 F 
ATOM     21  F   UNL     1      33.302 -14.279 -25.351  0.00  0.00    -0.204 F 
ATOM     22  C   UNL     1      34.287 -15.582 -22.099  0.00  0.00    +0.168 C 
ATOM     23  C   UNL     1      33.836 -14.559 -21.266  0.00  0.00    +0.174 C 
ATOM     24  C   UNL     1      34.106 -15.488 -23.480  0.00  0.00    +0.069 C 
ATOM     25  C   UNL     1      33.475 -14.370 -24.026  0.00  0.00    +0.143 C 
ATOM     26  C   UNL     1      33.204 -13.441 -21.812  0.00  0.00    +0.035 C 
ATOM     27  C   UNL     1      33.024 -13.347 -23.192  0.00  0.00    +0.032 C 
ENDBRANCH  19  22
ENDBRANCH  18  19
ENDBRANCH  15  18
ENDBRANCH  14  15
ENDBRANCH   4  13
BRANCH   9  28
ATOM     28  C   UNL     1      37.750 -23.216 -14.813  0.00  0.00    +0.003 C 
BRANCH  28  29
ATOM     29  C   UNL     1      37.344 -24.666 -14.576  0.00  0.00    +0.012 C 
BRANCH  29  30
ATOM     30  C   UNL     1      37.851 -25.161 -13.222  0.00  0.00    +0.110 C 
BRANCH  30  32
ATOM     31  O   UNL     1      36.825 -26.133 -11.243  0.00  0.00    -0.250 OA
ATOM     32  C   UNL     1      36.716 -25.493 -12.279  0.00  0.00    +0.317 C 
BRANCH  32  33
ATOM     33  O   UNL     1      35.559 -24.966 -12.778  0.00  0.00    -0.452 OA
BRANCH  33  34
ATOM     34  C   UNL     1      34.878 -24.049 -11.915  0.00  0.00    +0.169 C 
ATOM     35  C   UNL     1      33.572 -23.623 -12.567  0.00  0.00    +0.047 C 
ATOM     36  C   UNL     1      35.785 -22.860 -11.632  0.00  0.00    +0.047 C 
ENDBRANCH  33  34
ENDBRANCH  32  33
ENDBRANCH  30  32
ENDBRANCH  29  30
ENDBRANCH  28  29
ENDBRANCH   9  28
TORSDOF 13
ENDMDL
MODEL 2
REMARK VINA RESULT:     -11.5      4.605     12.600
REMARK  Name = 50902259
REMARK  13 active torsions:
REMARK  status: ('A' for Active; 'I' for Inactive)
REMARK    1  A    between atoms: C_4  and  C_13
REMARK    2  A    between atoms: C_5  and  O_11
REMARK    3  A    between atoms: C_9  and  C_28
REMARK    4  A    between atoms: C_14  and  C_15
REMARK    5  A    between atoms: C_15  and  O_16
REMARK    6  A    between atoms: C_15  and  C_18
REMARK    7  A    between atoms: C_18  and  O_19
REMARK    8  A    between atoms: O_19  and  C_22
REMARK    9  A    between atoms: C_28  and  C_29
REMARK   10  A    between atoms: C_29  and  C_30
REMARK   11  A    between atoms: C_30  and  C_32
REMARK   12  A    between atoms: C_32  and  O_33
REMARK   13  A    between atoms: O_33  and  C_34
REMARK                            x       y       z     vdW  Elec       q    Type
REMARK                         _______ _______ _______ _____ _____    ______ ____
ROOT
ATOM      1  O   UNL     1      32.411 -12.151 -23.254  0.00  0.00    -0.356 OA
ATOM      2  C   UNL     1      33.137 -14.292 -22.172  0.00  0.00    +0.034 C 
ATOM      3  C   UNL     1      32.424 -13.565 -23.336  0.00  0.00    +0.118 C 
ATOM      4  C   UNL     1      34.224 -15.172 -22.843  0.00  0.00    +0.051 C 
ATOM      5  C   UNL     1      33.722 -15.356 -24.275  0.00  0.00    +0.117 C 
ATOM      6  C   UNL     1      33.181 -13.976 -24.598  0.00  0.00    +0.059 C 
ATOM      7  C   UNL     1      33.742 -13.404 -21.080  0.00  0.00    +0.003 C 
ATOM      8  C   UNL     1      32.702 -12.629 -20.273  0.00  0.00    +0.003 C 
ATOM      9  C   UNL     1      32.192 -11.357 -20.964  0.00  0.00    +0.030 C 
ATOM     10  C   UNL     1      31.491 -11.643 -22.293  0.00  0.00    +0.142 C 
ENDROOT
BRANCH   5  11
ATOM     11  O   UNL     1      34.770 -15.685 -25.168  0.00  0.00    -0.384 OA
ATOM     12  H   UNL     1      34.522 -16.468 -25.685  0.00  0.00    +0.210 HD
ENDBRANCH   5  11
BRANCH   4  13
ATOM     13  C   UNL     1      34.454 -16.472 -22.142  0.00  0.00    -0.026 C 
ATOM     14  C   UNL     1      35.618 -17.141 -22.174  0.00  0.00    +0.002 C 
BRANCH  14  15
ATOM     15  C   UNL     1      35.848 -18.448 -21.470  0.00  0.00    +0.176 C 
BRANCH  15  16
ATOM     16  O   UNL     1      36.808 -18.220 -20.442  0.00  0.00    -0.376 OA
ATOM     17  H   UNL     1      36.908 -17.266 -20.299  0.00  0.00    +0.211 HD
ENDBRANCH  15  16
BRANCH  15  18
ATOM     18  C   UNL     1      34.563 -18.981 -20.840  0.00  0.00    +0.239 C 
BRANCH  18  19
ATOM     19  O   UNL     1      34.596 -20.401 -20.801  0.00  0.00    -0.470 OA
BRANCH  19  22
ATOM     20  F   UNL     1      32.290 -21.471 -19.737  0.00  0.00    -0.201 F 
ATOM     21  F   UNL     1      36.936 -21.698 -16.860  0.00  0.00    -0.204 F 
ATOM     22  C   UNL     1      34.604 -20.987 -19.562  0.00  0.00    +0.168 C 
ATOM     23  C   UNL     1      33.430 -21.525 -19.035  0.00  0.00    +0.174 C 
ATOM     24  C   UNL     1      35.789 -21.045 -18.827  0.00  0.00    +0.069 C 
ATOM     25  C   UNL     1      35.799 -21.641 -17.566  0.00  0.00    +0.143 C 
ATOM     26  C   UNL     1      33.440 -22.120 -17.774  0.00  0.00    +0.035 C 
ATOM     27  C   UNL     1      34.624 -22.178 -17.040  0.00  0.00    +0.032 C 
ENDBRANCH  19  22
ENDBRANCH  18  19
ENDBRANCH  15  18
ENDBRANCH  14  15
ENDBRANCH   4  13
BRANCH   9  28
ATOM     28  C   UNL     1      31.244 -10.603 -20.027  0.00  0.00    +0.003 C 
BRANCH  28  29
ATOM     29  C   UNL     1      31.056  -9.160 -20.483  0.00  0.00    +0.012 C 
BRANCH  29  30
ATOM     30  C   UNL     1      31.423  -8.182 -19.367  0.00  0.00    +0.110 C 
BRANCH  30  32
ATOM     31  O   UNL     1      32.643  -6.085 -19.199  0.00  0.00    -0.250 OA
ATOM     32  C   UNL     1      32.215  -7.003 -19.885  0.00  0.00    +0.317 C 
BRANCH  32  33
ATOM     33  O   UNL     1      32.370  -7.133 -21.235  0.00  0.00    -0.452 OA
BRANCH  33  34
ATOM     34  C   UNL     1      32.746  -5.940 -21.930  0.00  0.00    +0.169 C 
ATOM     35  C   UNL     1      31.585  -5.477 -22.798  0.00  0.00    +0.047 C 
ATOM     36  C   UNL     1      33.995  -6.214 -22.754  0.00  0.00    +0.047 C 
ENDBRANCH  33  34
ENDBRANCH  32  33
ENDBRANCH  30  32
ENDBRANCH  29  30
ENDBRANCH  28  29
ENDBRANCH   9  28
TORSDOF 13
ENDMDL
MODEL 3
REMARK VINA RESULT:     -11.4      3.513     10.696
REMARK  Name = 50902259
REMARK  13 active torsions:
REMARK  status: ('A' for Active; 'I' for Inactive)
REMARK    1  A    between atoms: C_4  and  C_13
REMARK    2  A    between atoms: C_5  and  O_11
REMARK    3  A    between atoms: C_9  and  C_28
REMARK    4  A    between atoms: C_14  and  C_15
REMARK    5  A    between atoms: C_15  and  O_16
REMARK    6  A    between atoms: C_15  and  C_18
REMARK    7  A    between atoms: C_18  and  O_19
REMARK    8  A    between atoms: O_19  and  C_22
REMARK    9  A    between atoms: C_28  and  C_29
REMARK   10  A    between atoms: C_29  and  C_30
REMARK   11  A    between atoms: C_30  and  C_32
REMARK   12  A    between atoms: C_32  and  O_33
REMARK   13  A    between atoms: O_33  and  C_34
REMARK                            x       y       z     vdW  Elec       q    Type
REMARK                         _______ _______ _______ _____ _____    ______ ____
ROOT
ATOM      1  O   UNL     1      32.627 -22.906 -17.658  0.00  0.00    -0.356 OA
ATOM      2  C   UNL     1      33.664 -22.550 -15.405  0.00  0.00    +0.034 C 
ATOM      3  C   UNL     1      32.399 -22.611 -16.292  0.00  0.00    +0.118 C 
ATOM      4  C   UNL     1      33.414 -23.571 -14.265  0.00  0.00    +0.051 C 
ATOM      5  C   UNL     1      31.893 -23.711 -14.216  0.00  0.00    +0.117 C 
ATOM      6  C   UNL     1      31.531 -23.715 -15.690  0.00  0.00    +0.059 C 
ATOM      7  C   UNL     1      35.001 -22.817 -16.102  0.00  0.00    +0.003 C 
ATOM      8  C   UNL     1      35.382 -21.753 -17.130  0.00  0.00    +0.003 C 
ATOM      9  C   UNL     1      34.689 -21.917 -18.490  0.00  0.00    +0.030 C 
ATOM     10  C   UNL     1      33.166 -21.815 -18.397  0.00  0.00    +0.142 C 
ENDROOT
BRANCH   5  11
ATOM     11  O   UNL     1      31.489 -24.928 -13.616  0.00  0.00    -0.384 OA
ATOM     12  H   UNL     1      31.932 -25.029 -12.759  0.00  0.00    +0.210 HD
ENDBRANCH   5  11
BRANCH   4  13
ATOM     13  C   UNL     1      33.996 -23.153 -12.952  0.00  0.00    -0.026 C 
ATOM     14  C   UNL     1      34.360 -24.014 -11.989  0.00  0.00    +0.002 C 
BRANCH  14  15
ATOM     15  C   UNL     1      34.944 -23.592 -10.671  0.00  0.00    +0.176 C 
BRANCH  15  16
ATOM     16  O   UNL     1      35.013 -24.748  -9.840  0.00  0.00    -0.376 OA
ATOM     17  H   UNL     1      34.149 -24.898  -9.424  0.00  0.00    +0.211 HD
ENDBRANCH  15  16
BRANCH  15  18
ATOM     18  C   UNL     1      36.347 -23.015 -10.836  0.00  0.00    +0.239 C 
BRANCH  18  19
ATOM     19  O   UNL     1      37.286 -24.067 -11.007  0.00  0.00    -0.470 OA
BRANCH  19  22
ATOM     20  F   UNL     1      36.752 -26.684 -11.688  0.00  0.00    -0.201 F 
ATOM     21  F   UNL     1      38.653 -23.250 -15.496  0.00  0.00    -0.204 F 
ATOM     22  C   UNL     1      37.492 -24.513 -12.286  0.00  0.00    +0.168 C 
ATOM     23  C   UNL     1      37.218 -25.839 -12.618  0.00  0.00    +0.174 C 
ATOM     24  C   UNL     1      37.978 -23.638 -13.259  0.00  0.00    +0.069 C 
ATOM     25  C   UNL     1      38.188 -24.090 -14.562  0.00  0.00    +0.143 C 
ATOM     26  C   UNL     1      37.429 -26.291 -13.920  0.00  0.00    +0.035 C 
ATOM     27  C   UNL     1      37.914 -25.417 -14.892  0.00  0.00    +0.032 C 
ENDBRANCH  19  22
ENDBRANCH  18  19
ENDBRANCH  15  18
ENDBRANCH  14  15
ENDBRANCH   4  13
BRANCH   9  28
ATOM     28  C   UNL     1      35.222 -20.871 -19.473  0.00  0.00    +0.003 C 
BRANCH  28  29
ATOM     29  C   UNL     1      34.080 -20.126 -20.154  0.00  0.00    +0.012 C 
BRANCH  29  30
ATOM     30  C   UNL     1      34.583 -19.348 -21.369  0.00  0.00    +0.110 C 
BRANCH  30  32
ATOM     31  O   UNL     1      36.523 -17.997 -20.796  0.00  0.00    -0.250 OA
ATOM     32  C   UNL     1      35.315 -18.086 -20.971  0.00  0.00    +0.317 C 
BRANCH  32  33
ATOM     33  O   UNL     1      34.410 -17.073 -20.839  0.00  0.00    -0.452 OA
BRANCH  33  34
ATOM     34  C   UNL     1      34.670 -15.908 -21.630  0.00  0.00    +0.169 C 
ATOM     35  C   UNL     1      33.900 -14.729 -21.052  0.00  0.00    +0.047 C 
ATOM     36  C   UNL     1      34.280 -16.186 -23.074  0.00  0.00    +0.047 C 
ENDBRANCH  33  34
ENDBRANCH  32  33
ENDBRANCH  30  32
ENDBRANCH  29  30
ENDBRANCH  28  29
ENDBRANCH   9  28
TORSDOF 13
ENDMDL
MODEL 4
REMARK VINA RESULT:     -11.1      0.727      1.568
REMARK  Name = 50902259
REMARK  13 active torsions:
REMARK  status: ('A' for Active; 'I' for Inactive)
REMARK    1  A    between atoms: C_4  and  C_13
REMARK    2  A    between atoms: C_5  and  O_11
REMARK    3  A    between atoms: C_9  and  C_28
REMARK    4  A    between atoms: C_14  and  C_15
REMARK    5  A    between atoms: C_15  and  O_16
REMARK    6  A    between atoms: C_15  and  C_18
REMARK    7  A    between atoms: C_18  and  O_19
REMARK    8  A    between atoms: O_19  and  C_22
REMARK    9  A    between atoms: C_28  and  C_29
REMARK   10  A    between atoms: C_29  and  C_30
REMARK   11  A    between atoms: C_30  and  C_32
REMARK   12  A    between atoms: C_32  and  O_33
REMARK   13  A    between atoms: O_33  and  C_34
REMARK                            x       y       z     vdW  Elec       q    Type
REMARK                         _______ _______ _______ _____ _____    ______ ____
ROOT
ATOM      1  O   UNL     1      34.287 -22.626 -16.190  0.00  0.00    -0.356 OA
ATOM      2  C   UNL     1      35.118 -21.574 -18.308  0.00  0.00    +0.034 C 
ATOM      3  C   UNL     1      34.152 -22.551 -17.599  0.00  0.00    +0.118 C 
ATOM      4  C   UNL     1      34.207 -20.602 -19.102  0.00  0.00    +0.051 C 
ATOM      5  C   UNL     1      32.903 -21.378 -19.282  0.00  0.00    +0.117 C 
ATOM      6  C   UNL     1      32.748 -22.050 -17.931  0.00  0.00    +0.059 C 
ATOM      7  C   UNL     1      36.095 -20.807 -17.411  0.00  0.00    +0.003 C 
ATOM      8  C   UNL     1      37.126 -21.699 -16.721  0.00  0.00    +0.003 C 
ATOM      9  C   UNL     1      36.601 -22.411 -15.467  0.00  0.00    +0.030 C 
ATOM     10  C   UNL     1      35.434 -23.354 -15.763  0.00  0.00    +0.142 C 
ENDROOT
BRANCH   5  11
ATOM     11  O   UNL     1      31.802 -20.520 -19.524  0.00  0.00    -0.384 OA
ATOM     12  H   UNL     1      31.796 -19.808 -18.864  0.00  0.00    +0.210 HD
ENDBRANCH   5  11
BRANCH   4  13
ATOM     13  C   UNL     1      34.798 -20.160 -20.402  0.00  0.00    -0.026 C 
ATOM     14  C   UNL     1      34.381 -19.080 -21.082  0.00  0.00    +0.002 C 
BRANCH  14  15
ATOM     15  C   UNL     1      34.976 -18.638 -22.389  0.00  0.00    +0.176 C 
BRANCH  15  16
ATOM     16  O   UNL     1      34.613 -19.599 -23.376  0.00  0.00    -0.376 OA
ATOM     17  H   UNL     1      35.263 -19.586 -24.095  0.00  0.00    +0.211 HD
ENDBRANCH  15  16
BRANCH  15  18
ATOM     18  C   UNL     1      34.449 -17.269 -22.811  0.00  0.00    +0.239 C 
BRANCH  18  19
ATOM     19  O   UNL     1      34.763 -16.302 -21.818  0.00  0.00    -0.470 OA
BRANCH  19  22
ATOM     20  F   UNL     1      34.726 -14.927 -24.207  0.00  0.00    -0.201 F 
ATOM     21  F   UNL     1      32.270 -12.768 -19.824  0.00  0.00    -0.204 F 
ATOM     22  C   UNL     1      34.137 -15.087 -21.916  0.00  0.00    +0.168 C 
ATOM     23  C   UNL     1      34.126 -14.402 -23.131  0.00  0.00    +0.174 C 
ATOM     24  C   UNL     1      33.510 -14.534 -20.799  0.00  0.00    +0.069 C 
ATOM     25  C   UNL     1      32.872 -13.298 -20.896  0.00  0.00    +0.143 C 
ATOM     26  C   UNL     1      33.489 -13.165 -23.229  0.00  0.00    +0.035 C 
ATOM     27  C   UNL     1      32.862 -12.613 -22.111  0.00  0.00    +0.032 C 
ENDBRANCH  19  22
ENDBRANCH  18  19
ENDBRANCH  15  18
ENDBRANCH  14  15
ENDBRANCH   4  13
BRANCH   9  28
ATOM     28  C   UNL     1      37.738 -23.185 -14.795  0.00  0.00    +0.003 C 
BRANCH  28  29
ATOM     29  C   UNL     1      37.385 -24.660 -14.648  0.00  0.00    +0.012 C 
BRANCH  29  30
ATOM     30  C   UNL     1      37.892 -25.213 -13.317  0.00  0.00    +0.110 C 
BRANCH  30  32
ATOM     31  O   UNL     1      36.873 -26.085 -11.287  0.00  0.00    -0.250 OA
ATOM     32  C   UNL     1      36.762 -25.489 -12.350  0.00  0.00    +0.317 C 
BRANCH  32  33
ATOM     33  O   UNL     1      35.608 -24.969 -12.861  0.00  0.00    -0.452 OA
BRANCH  33  34
ATOM     34  C   UNL     1      34.891 -24.087 -11.990  0.00  0.00    +0.169 C 
ATOM     35  C   UNL     1      33.591 -23.668 -12.660  0.00  0.00    +0.047 C 
ATOM     36  C   UNL     1      35.769 -22.890 -11.658  0.00  0.00    +0.047 C 
ENDBRANCH  33  34
ENDBRANCH  32  33
ENDBRANCH  30  32
ENDBRANCH  29  30
ENDBRANCH  28  29
ENDBRANCH   9  28
TORSDOF 13
ENDMDL
MODEL 5
REMARK VINA RESULT:     -10.9      4.595      8.312
REMARK  Name = 50902259
REMARK  13 active torsions:
REMARK  status: ('A' for Active; 'I' for Inactive)
REMARK    1  A    between atoms: C_4  and  C_13
REMARK    2  A    between atoms: C_5  and  O_11
REMARK    3  A    between atoms: C_9  and  C_28
REMARK    4  A    between atoms: C_14  and  C_15
REMARK    5  A    between atoms: C_15  and  O_16
REMARK    6  A    between atoms: C_15  and  C_18
REMARK    7  A    between atoms: C_18  and  O_19
REMARK    8  A    between atoms: O_19  and  C_22
REMARK    9  A    between atoms: C_28  and  C_29
REMARK   10  A    between atoms: C_29  and  C_30
REMARK   11  A    between atoms: C_30  and  C_32
REMARK   12  A    between atoms: C_32  and  O_33
REMARK   13  A    between atoms: O_33  and  C_34
REMARK                            x       y       z     vdW  Elec       q    Type
REMARK                         _______ _______ _______ _____ _____    ______ ____
ROOT
ATOM      1  O   UNL     1      34.038 -17.563 -23.607  0.00  0.00    -0.356 OA
ATOM      2  C   UNL     1      34.250 -15.169 -22.897  0.00  0.00    +0.034 C 
ATOM      3  C   UNL     1      34.343 -16.239 -24.009  0.00  0.00    +0.118 C 
ATOM      4  C   UNL     1      33.252 -14.109 -23.431  0.00  0.00    +0.051 C 
ATOM      5  C   UNL     1      33.285 -14.297 -24.947  0.00  0.00    +0.117 C 
ATOM      6  C   UNL     1      33.338 -15.808 -25.076  0.00  0.00    +0.059 C 
ATOM      7  C   UNL     1      33.840 -15.662 -21.506  0.00  0.00    +0.003 C 
ATOM      8  C   UNL     1      34.865 -16.590 -20.856  0.00  0.00    +0.003 C 
ATOM      9  C   UNL     1      34.795 -18.043 -21.344  0.00  0.00    +0.030 C 
ATOM     10  C   UNL     1      35.069 -18.180 -22.843  0.00  0.00    +0.142 C 
ENDROOT
BRANCH   5  11
ATOM     11  O   UNL     1      32.115 -13.800 -25.571  0.00  0.00    -0.384 OA
ATOM     12  H   UNL     1      31.349 -13.964 -24.999  0.00  0.00    +0.210 HD
ENDBRANCH   5  11
BRANCH   4  13
ATOM     13  C   UNL     1      33.587 -12.713 -23.016  0.00  0.00    -0.026 C 
ATOM     14  C   UNL     1      32.803 -11.652 -23.264  0.00  0.00    +0.002 C 
BRANCH  14  15
ATOM     15  C   UNL     1      33.142 -10.249 -22.847  0.00  0.00    +0.176 C 
BRANCH  15  16
ATOM     16  O   UNL     1      34.309  -9.856 -23.565  0.00  0.00    -0.376 OA
ATOM     17  H   UNL     1      34.049  -9.349 -24.350  0.00  0.00    +0.211 HD
ENDBRANCH  15  16
BRANCH  15  18
ATOM     18  C   UNL     1      32.009  -9.277 -23.170  0.00  0.00    +0.239 C 
BRANCH  18  19
ATOM     19  O   UNL     1      31.295  -8.956 -21.984  0.00  0.00    -0.470 OA
BRANCH  19  22
ATOM     20  F   UNL     1      32.341  -8.069 -19.593  0.00  0.00    -0.201 F 
ATOM     21  F   UNL     1      29.976  -4.491 -22.986  0.00  0.00    -0.204 F 
ATOM     22  C   UNL     1      31.228  -7.631 -21.640  0.00  0.00    +0.168 C 
ATOM     23  C   UNL     1      31.761  -7.196 -20.427  0.00  0.00    +0.174 C 
ATOM     24  C   UNL     1      30.624  -6.717 -22.505  0.00  0.00    +0.069 C 
ATOM     25  C   UNL     1      30.555  -5.368 -22.156  0.00  0.00    +0.143 C 
ATOM     26  C   UNL     1      31.691  -5.847 -20.079  0.00  0.00    +0.035 C 
ATOM     27  C   UNL     1      31.088  -4.934 -20.943  0.00  0.00    +0.032 C 
ENDBRANCH  19  22
ENDBRANCH  18  19
ENDBRANCH  15  18
ENDBRANCH  14  15
ENDBRANCH   4  13
BRANCH   9  28
ATOM     28  C   UNL     1      35.784 -18.904 -20.554  0.00  0.00    +0.003 C 
BRANCH  28  29
ATOM     29  C   UNL     1      35.230 -20.306 -20.325  0.00  0.00    +0.012 C 
BRANCH  29  30
ATOM     30  C   UNL     1      33.751 -20.253 -19.944  0.00  0.00    +0.110 C 
BRANCH  30  32
ATOM     31  O   UNL     1      32.202 -21.748 -18.812  0.00  0.00    -0.250 OA
ATOM     32  C   UNL     1      33.352 -21.413 -19.059  0.00  0.00    +0.317 C 
BRANCH  32  33
ATOM     33  O   UNL     1      34.481 -22.015 -18.585  0.00  0.00    -0.452 OA
BRANCH  33  34
ATOM     34  C   UNL     1      34.819 -21.710 -17.228  0.00  0.00    +0.169 C 
ATOM     35  C   UNL     1      36.332 -21.609 -17.099  0.00  0.00    +0.047 C 
ATOM     36  C   UNL     1      34.243 -22.782 -16.315  0.00  0.00    +0.047 C 
ENDBRANCH  33  34
ENDBRANCH  32  33
ENDBRANCH  30  32
ENDBRANCH  29  30
ENDBRANCH  28  29
ENDBRANCH   9  28
TORSDOF 13
ENDMDL
MODEL 6
REMARK VINA RESULT:     -10.8      2.256      4.526
REMARK  Name = 50902259
REMARK  13 active torsions:
REMARK  status: ('A' for Active; 'I' for Inactive)
REMARK    1  A    between atoms: C_4  and  C_13
REMARK    2  A    between atoms: C_5  and  O_11
REMARK    3  A    between atoms: C_9  and  C_28
REMARK    4  A    between atoms: C_14  and  C_15
REMARK    5  A    between atoms: C_15  and  O_16
REMARK    6  A    between atoms: C_15  and  C_18
REMARK    7  A    between atoms: C_18  and  O_19
REMARK    8  A    between atoms: O_19  and  C_22
REMARK    9  A    between atoms: C_28  and  C_29
REMARK   10  A    between atoms: C_29  and  C_30
REMARK   11  A    between atoms: C_30  and  C_32
REMARK   12  A    between atoms: C_32  and  O_33
REMARK   13  A    between atoms: O_33  and  C_34
REMARK                            x       y       z     vdW  Elec       q    Type
REMARK                         _______ _______ _______ _____ _____    ______ ____
ROOT
ATOM      1  O   UNL     1      35.362 -21.013 -19.610  0.00  0.00    -0.356 OA
ATOM      2  C   UNL     1      34.425 -18.933 -20.647  0.00  0.00    +0.034 C 
ATOM      3  C   UNL     1      35.566 -19.637 -19.878  0.00  0.00    +0.118 C 
ATOM      4  C   UNL     1      35.095 -18.322 -21.905  0.00  0.00    +0.051 C 
ATOM      5  C   UNL     1      36.568 -18.196 -21.518  0.00  0.00    +0.117 C 
ATOM      6  C   UNL     1      36.805 -19.488 -20.759  0.00  0.00    +0.059 C 
ATOM      7  C   UNL     1      33.221 -19.801 -21.029  0.00  0.00    +0.003 C 
ATOM      8  C   UNL     1      32.421 -20.304 -19.828  0.00  0.00    +0.003 C 
ATOM      9  C   UNL     1      33.031 -21.531 -19.137  0.00  0.00    +0.030 C 
ATOM     10  C   UNL     1      34.424 -21.260 -18.567  0.00  0.00    +0.142 C 
ENDROOT
BRANCH   5  11
ATOM     11  O   UNL     1      37.413 -18.140 -22.653  0.00  0.00    -0.384 OA
ATOM     12  H   UNL     1      37.364 -18.981 -23.135  0.00  0.00    +0.210 HD
ENDBRANCH   5  11
BRANCH   4  13
ATOM     13  C   UNL     1      34.496 -17.019 -22.326  0.00  0.00    -0.026 C 
ATOM     14  C   UNL     1      34.461 -16.589 -23.597  0.00  0.00    +0.002 C 
BRANCH  14  15
ATOM     15  C   UNL     1      33.859 -15.279 -24.019  0.00  0.00    +0.176 C 
BRANCH  15  16
ATOM     16  O   UNL     1      32.876 -15.555 -25.012  0.00  0.00    -0.376 OA
ATOM     17  H   UNL     1      32.737 -14.766 -25.558  0.00  0.00    +0.211 HD
ENDBRANCH  15  16
BRANCH  15  18
ATOM     18  C   UNL     1      33.194 -14.563 -22.846  0.00  0.00    +0.239 C 
BRANCH  18  19
ATOM     19  O   UNL     1      33.758 -13.269 -22.686  0.00  0.00    -0.470 OA
BRANCH  19  22
ATOM     20  F   UNL     1      32.306 -13.348 -20.345  0.00  0.00    -0.201 F 
ATOM     21  F   UNL     1      31.732  -9.085 -23.721  0.00  0.00    -0.204 F 
ATOM     22  C   UNL     1      32.897 -12.253 -22.362  0.00  0.00    +0.168 C 
ATOM     23  C   UNL     1      32.168 -12.306 -21.174  0.00  0.00    +0.174 C 
ATOM     24  C   UNL     1      32.749 -11.164 -23.223  0.00  0.00    +0.069 C 
ATOM     25  C   UNL     1      31.873 -10.130 -22.895  0.00  0.00    +0.143 C 
ATOM     26  C   UNL     1      31.292 -11.271 -20.847  0.00  0.00    +0.035 C 
ATOM     27  C   UNL     1      31.145 -10.183 -21.707  0.00  0.00    +0.032 C 
ENDBRANCH  19  22
ENDBRANCH  18  19
ENDBRANCH  15  18
ENDBRANCH  14  15
ENDBRANCH   4  13
BRANCH   9  28
ATOM     28  C   UNL     1      32.099 -22.016 -18.024  0.00  0.00    +0.003 C 
BRANCH  28  29
ATOM     29  C   UNL     1      32.754 -23.120 -17.202  0.00  0.00    +0.012 C 
BRANCH  29  30
ATOM     30  C   UNL     1      32.488 -22.921 -15.710  0.00  0.00    +0.110 C 
BRANCH  30  32
ATOM     31  O   UNL     1      33.563 -23.691 -13.669  0.00  0.00    -0.250 OA
ATOM     32  C   UNL     1      33.635 -23.418 -14.859  0.00  0.00    +0.317 C 
BRANCH  32  33
ATOM     33  O   UNL     1      34.755 -23.507 -15.635  0.00  0.00    -0.452 OA
BRANCH  33  34
ATOM     34  C   UNL     1      35.969 -23.070 -15.017  0.00  0.00    +0.169 C 
ATOM     35  C   UNL     1      36.700 -22.125 -15.960  0.00  0.00    +0.047 C 
ATOM     36  C   UNL     1      36.816 -24.283 -14.663  0.00  0.00    +0.047 C 
ENDBRANCH  33  34
ENDBRANCH  32  33
ENDBRANCH  30  32
ENDBRANCH  29  30
ENDBRANCH  28  29
ENDBRANCH   9  28
TORSDOF 13
ENDMDL
MODEL 7
REMARK VINA RESULT:     -10.7      2.711      4.404
REMARK  Name = 50902259
REMARK  13 active torsions:
REMARK  status: ('A' for Active; 'I' for Inactive)
REMARK    1  A    between atoms: C_4  and  C_13
REMARK    2  A    between atoms: C_5  and  O_11
REMARK    3  A    between atoms: C_9  and  C_28
REMARK    4  A    between atoms: C_14  and  C_15
REMARK    5  A    between atoms: C_15  and  O_16
REMARK    6  A    between atoms: C_15  and  C_18
REMARK    7  A    between atoms: C_18  and  O_19
REMARK    8  A    between atoms: O_19  and  C_22
REMARK    9  A    between atoms: C_28  and  C_29
REMARK   10  A    between atoms: C_29  and  C_30
REMARK   11  A    between atoms: C_30  and  C_32
REMARK   12  A    between atoms: C_32  and  O_33
REMARK   13  A    between atoms: O_33  and  C_34
REMARK                            x       y       z     vdW  Elec       q    Type
REMARK                         _______ _______ _______ _____ _____    ______ ____
ROOT
ATOM      1  O   UNL     1      33.258 -23.531 -12.248  0.00  0.00    -0.356 OA
ATOM      2  C   UNL     1      33.306 -23.319 -14.745  0.00  0.00    +0.034 C 
ATOM      3  C   UNL     1      32.733 -23.997 -13.479  0.00  0.00    +0.118 C 
ATOM      4  C   UNL     1      32.074 -22.756 -15.501  0.00  0.00    +0.051 C 
ATOM      5  C   UNL     1      30.906 -23.596 -14.986  0.00  0.00    +0.117 C 
ATOM      6  C   UNL     1      31.232 -23.716 -13.509  0.00  0.00    +0.059 C 
ATOM      7  C   UNL     1      34.361 -22.231 -14.520  0.00  0.00    +0.003 C 
ATOM      8  C   UNL     1      35.666 -22.755 -13.922  0.00  0.00    +0.003 C 
ATOM      9  C   UNL     1      35.620 -22.964 -12.402  0.00  0.00    +0.030 C 
ATOM     10  C   UNL     1      34.576 -23.997 -11.976  0.00  0.00    +0.142 C 
ENDROOT
BRANCH   5  11
ATOM     11  O   UNL     1      29.663 -22.938 -15.154  0.00  0.00    -0.384 OA
ATOM     12  H   UNL     1      29.734 -22.291 -15.874  0.00  0.00    +0.210 HD
ENDBRANCH   5  11
BRANCH   4  13
ATOM     13  C   UNL     1      32.212 -22.810 -16.988  0.00  0.00    -0.026 C 
ATOM     14  C   UNL     1      33.244 -22.279 -17.663  0.00  0.00    +0.002 C 
BRANCH  14  15
ATOM     15  C   UNL     1      33.380 -22.334 -19.158  0.00  0.00    +0.176 C 
BRANCH  15  16
ATOM     16  O   UNL     1      32.254 -21.663 -19.718  0.00  0.00    -0.376 OA
ATOM     17  H   UNL     1      31.579 -21.538 -19.033  0.00  0.00    +0.211 HD
ENDBRANCH  15  16
BRANCH  15  18
ATOM     18  C   UNL     1      34.656 -21.645 -19.632  0.00  0.00    +0.239 C 
BRANCH  18  19
ATOM     19  O   UNL     1      34.524 -20.236 -19.498  0.00  0.00    -0.470 OA
BRANCH  19  22
ATOM     20  F   UNL     1      36.901 -18.864 -19.752  0.00  0.00    -0.201 F 
ATOM     21  F   UNL     1      33.179 -18.556 -23.747  0.00  0.00    -0.204 F 
ATOM     22  C   UNL     1      34.779 -19.481 -20.612  0.00  0.00    +0.168 C 
ATOM     23  C   UNL     1      35.986 -18.791 -20.728  0.00  0.00    +0.174 C 
ATOM     24  C   UNL     1      33.831 -19.401 -21.632  0.00  0.00    +0.069 C 
ATOM     25  C   UNL     1      34.089 -18.632 -22.767  0.00  0.00    +0.143 C 
ATOM     26  C   UNL     1      36.244 -18.022 -21.863  0.00  0.00    +0.035 C 
ATOM     27  C   UNL     1      35.296 -17.943 -22.882  0.00  0.00    +0.032 C 
ENDBRANCH  19  22
ENDBRANCH  18  19
ENDBRANCH  15  18
ENDBRANCH  14  15
ENDBRANCH   4  13
BRANCH   9  28
ATOM     28  C   UNL     1      37.002 -23.381 -11.894  0.00  0.00    +0.003 C 
BRANCH  28  29
ATOM     29  C   UNL     1      37.041 -24.869 -11.567  0.00  0.00    +0.012 C 
BRANCH  29  30
ATOM     30  C   UNL     1      37.974 -25.615 -12.520  0.00  0.00    +0.110 C 
BRANCH  30  32
ATOM     31  O   UNL     1      36.253 -26.826 -13.739  0.00  0.00    -0.250 OA
ATOM     32  C   UNL     1      37.249 -26.115 -13.748  0.00  0.00    +0.317 C 
BRANCH  32  33
ATOM     33  O   UNL     1      37.888 -25.647 -14.860  0.00  0.00    -0.452 OA
BRANCH  33  34
ATOM     34  C   UNL     1      38.944 -24.712 -14.616  0.00  0.00    +0.169 C 
ATOM     35  C   UNL     1      38.674 -23.435 -15.398  0.00  0.00    +0.047 C 
ATOM     36  C   UNL     1      40.272 -25.343 -15.004  0.00  0.00    +0.047 C 
ENDBRANCH  33  34
ENDBRANCH  32  33
ENDBRANCH  30  32
ENDBRANCH  29  30
ENDBRANCH  28  29
ENDBRANCH   9  28
TORSDOF 13
ENDMDL
MODEL 8
REMARK VINA RESULT:     -10.7      3.467      5.076
REMARK  Name = 50902259
REMARK  13 active torsions:
REMARK  status: ('A' for Active; 'I' for Inactive)
REMARK    1  A    between atoms: C_4  and  C_13
REMARK    2  A    between atoms: C_5  and  O_11
REMARK    3  A    between atoms: C_9  and  C_28
REMARK    4  A    between atoms: C_14  and  C_15
REMARK    5  A    between atoms: C_15  and  O_16
REMARK    6  A    between atoms: C_15  and  C_18
REMARK    7  A    between atoms: C_18  and  O_19
REMARK    8  A    between atoms: O_19  and  C_22
REMARK    9  A    between atoms: C_28  and  C_29
REMARK   10  A    between atoms: C_29  and  C_30
REMARK   11  A    between atoms: C_30  and  C_32
REMARK   12  A    between atoms: C_32  and  O_33
REMARK   13  A    between atoms: O_33  and  C_34
REMARK                            x       y       z     vdW  Elec       q    Type
REMARK                         _______ _______ _______ _____ _____    ______ ____
ROOT
ATOM      1  O   UNL     1      35.326 -21.009 -19.558  0.00  0.00    -0.356 OA
ATOM      2  C   UNL     1      34.404 -18.936 -20.623  0.00  0.00    +0.034 C 
ATOM      3  C   UNL     1      35.538 -19.636 -19.840  0.00  0.00    +0.118 C 
ATOM      4  C   UNL     1      35.084 -18.342 -21.885  0.00  0.00    +0.051 C 
ATOM      5  C   UNL     1      36.555 -18.218 -21.491  0.00  0.00    +0.117 C 
ATOM      6  C   UNL     1      36.783 -19.503 -20.716  0.00  0.00    +0.059 C 
ATOM      7  C   UNL     1      33.199 -19.802 -21.002  0.00  0.00    +0.003 C 
ATOM      8  C   UNL     1      32.389 -20.288 -19.801  0.00  0.00    +0.003 C 
ATOM      9  C   UNL     1      32.990 -21.510 -19.093  0.00  0.00    +0.030 C 
ATOM     10  C   UNL     1      34.381 -21.240 -18.518  0.00  0.00    +0.142 C 
ENDROOT
BRANCH   5  11
ATOM     11  O   UNL     1      37.408 -18.179 -22.621  0.00  0.00    -0.384 OA
ATOM     12  H   UNL     1      37.653 -17.260 -22.810  0.00  0.00    +0.210 HD
ENDBRANCH   5  11
BRANCH   4  13
ATOM     13  C   UNL     1      34.494 -17.041 -22.324  0.00  0.00    -0.026 C 
ATOM     14  C   UNL     1      34.476 -16.622 -23.598  0.00  0.00    +0.002 C 
BRANCH  14  15
ATOM     15  C   UNL     1      33.883 -15.313 -24.038  0.00  0.00    +0.176 C 
BRANCH  15  16
ATOM     16  O   UNL     1      32.860 -15.601 -24.987  0.00  0.00    -0.376 OA
ATOM     17  H   UNL     1      32.586 -14.780 -25.425  0.00  0.00    +0.211 HD
ENDBRANCH  15  16
BRANCH  15  18
ATOM     18  C   UNL     1      33.272 -14.551 -22.864  0.00  0.00    +0.239 C 
BRANCH  18  19
ATOM     19  O   UNL     1      33.765 -13.218 -22.844  0.00  0.00    -0.470 OA
BRANCH  19  22
ATOM     20  F   UNL     1      32.260 -13.479 -20.550  0.00  0.00    -0.201 F 
ATOM     21  F   UNL     1      31.710  -8.994 -23.630  0.00  0.00    -0.204 F 
ATOM     22  C   UNL     1      32.883 -12.237 -22.471  0.00  0.00    +0.168 C 
ATOM     23  C   UNL     1      32.128 -12.382 -21.307  0.00  0.00    +0.174 C 
ATOM     24  C   UNL     1      32.741 -11.092 -23.256  0.00  0.00    +0.069 C 
ATOM     25  C   UNL     1      31.845 -10.093 -22.877  0.00  0.00    +0.143 C 
ATOM     26  C   UNL     1      31.231 -11.383 -20.929  0.00  0.00    +0.035 C 
ATOM     27  C   UNL     1      31.090 -10.239 -21.714  0.00  0.00    +0.032 C 
ENDBRANCH  19  22
ENDBRANCH  18  19
ENDBRANCH  15  18
ENDBRANCH  14  15
ENDBRANCH   4  13
BRANCH   9  28
ATOM     28  C   UNL     1      32.049 -21.979 -17.980  0.00  0.00    +0.003 C 
BRANCH  28  29
ATOM     29  C   UNL     1      32.654 -23.144 -17.205  0.00  0.00    +0.012 C 
BRANCH  29  30
ATOM     30  C   UNL     1      32.739 -22.823 -15.713  0.00  0.00    +0.110 C 
BRANCH  30  32
ATOM     31  O   UNL     1      31.054 -22.000 -14.164  0.00  0.00    -0.250 OA
ATOM     32  C   UNL     1      31.373 -22.760 -15.068  0.00  0.00    +0.317 C 
BRANCH  32  33
ATOM     33  O   UNL     1      30.563 -23.688 -15.658  0.00  0.00    -0.452 OA
BRANCH  33  34
ATOM     34  C   UNL     1      29.253 -23.810 -15.093  0.00  0.00    +0.169 C 
ATOM     35  C   UNL     1      29.182 -25.082 -14.261  0.00  0.00    +0.047 C 
ATOM     36  C   UNL     1      28.223 -23.807 -16.213  0.00  0.00    +0.047 C 
ENDBRANCH  33  34
ENDBRANCH  32  33
ENDBRANCH  30  32
ENDBRANCH  29  30
ENDBRANCH  28  29
ENDBRANCH   9  28
TORSDOF 13
ENDMDL
MODEL 9
REMARK VINA RESULT:     -10.2      3.286     10.491
REMARK  Name = 50902259
REMARK  13 active torsions:
REMARK  status: ('A' for Active; 'I' for Inactive)
REMARK    1  A    between atoms: C_4  and  C_13
REMARK    2  A    between atoms: C_5  and  O_11
REMARK    3  A    between atoms: C_9  and  C_28
REMARK    4  A    between atoms: C_14  and  C_15
REMARK    5  A    between atoms: C_15  and  O_16
REMARK    6  A    between atoms: C_15  and  C_18
REMARK    7  A    between atoms: C_18  and  O_19
REMARK    8  A    between atoms: O_19  and  C_22
REMARK    9  A    between atoms: C_28  and  C_29
REMARK   10  A    between atoms: C_29  and  C_30
REMARK   11  A    between atoms: C_30  and  C_32
REMARK   12  A    between atoms: C_32  and  O_33
REMARK   13  A    between atoms: O_33  and  C_34
REMARK                            x       y       z     vdW  Elec       q    Type
REMARK                         _______ _______ _______ _____ _____    ______ ____
ROOT
ATOM      1  O   UNL     1      33.427 -19.253 -21.838  0.00  0.00    -0.356 OA
ATOM      2  C   UNL     1      35.028 -19.786 -19.985  0.00  0.00    +0.034 C 
ATOM      3  C   UNL     1      33.572 -19.643 -20.484  0.00  0.00    +0.118 C 
ATOM      4  C   UNL     1      35.136 -21.235 -19.444  0.00  0.00    +0.051 C 
ATOM      5  C   UNL     1      33.692 -21.622 -19.127  0.00  0.00    +0.117 C 
ATOM      6  C   UNL     1      32.941 -21.022 -20.301  0.00  0.00    +0.059 C 
ATOM      7  C   UNL     1      36.132 -19.495 -21.007  0.00  0.00    +0.003 C 
ATOM      8  C   UNL     1      36.180 -18.037 -21.462  0.00  0.00    +0.003 C 
ATOM      9  C   UNL     1      35.148 -17.681 -22.540  0.00  0.00    +0.030 C 
ATOM     10  C   UNL     1      33.706 -17.876 -22.069  0.00  0.00    +0.142 C 
ENDROOT
BRANCH   5  11
ATOM     11  O   UNL     1      33.510 -23.026 -19.104  0.00  0.00    -0.384 OA
ATOM     12  H   UNL     1      32.616 -23.241 -19.413  0.00  0.00    +0.210 HD
ENDBRANCH   5  11
BRANCH   4  13
ATOM     13  C   UNL     1      36.040 -21.364 -18.260  0.00  0.00    -0.026 C 
ATOM     14  C   UNL     1      35.658 -21.881 -17.082  0.00  0.00    +0.002 C 
BRANCH  14  15
ATOM     15  C   UNL     1      36.568 -22.009 -15.893  0.00  0.00    +0.176 C 
BRANCH  15  16
ATOM     16  O   UNL     1      37.192 -20.744 -15.691  0.00  0.00    -0.376 OA
ATOM     17  H   UNL     1      38.083 -20.759 -16.074  0.00  0.00    +0.211 HD
ENDBRANCH  15  16
BRANCH  15  18
ATOM     18  C   UNL     1      35.795 -22.390 -14.633  0.00  0.00    +0.239 C 
BRANCH  18  19
ATOM     19  O   UNL     1      34.950 -23.500 -14.900  0.00  0.00    -0.470 OA
BRANCH  19  22
ATOM     20  F   UNL     1      33.814 -23.841 -12.412  0.00  0.00    -0.201 F 
ATOM     21  F   UNL     1      30.653 -22.409 -16.639  0.00  0.00    -0.204 F 
ATOM     22  C   UNL     1      33.605 -23.314 -14.714  0.00  0.00    +0.168 C 
ATOM     23  C   UNL     1      33.043 -23.490 -13.450  0.00  0.00    +0.174 C 
ATOM     24  C   UNL     1      32.797 -22.950 -15.792  0.00  0.00    +0.069 C 
ATOM     25  C   UNL     1      31.428 -22.760 -15.605  0.00  0.00    +0.143 C 
ATOM     26  C   UNL     1      31.673 -23.301 -13.263  0.00  0.00    +0.035 C 
ATOM     27  C   UNL     1      30.866 -22.936 -14.341  0.00  0.00    +0.032 C 
ENDBRANCH  19  22
ENDBRANCH  18  19
ENDBRANCH  15  18
ENDBRANCH  14  15
ENDBRANCH   4  13
BRANCH   9  28
ATOM     28  C   UNL     1      35.355 -16.236 -23.000  0.00  0.00    +0.003 C 
BRANCH  28  29
ATOM     29  C   UNL     1      34.338 -15.303 -22.352  0.00  0.00    +0.012 C 
BRANCH  29  30
ATOM     30  C   UNL     1      33.756 -14.331 -23.378  0.00  0.00    +0.110 C 
BRANCH  30  32
ATOM     31  O   UNL     1      33.531 -11.911 -23.451  0.00  0.00    -0.250 OA
ATOM     32  C   UNL     1      33.563 -12.947 -22.802  0.00  0.00    +0.317 C 
BRANCH  32  33
ATOM     33  O   UNL     1      33.434 -13.047 -21.446  0.00  0.00    -0.452 OA
BRANCH  33  34
ATOM     34  C   UNL     1      32.091 -13.022 -20.952  0.00  0.00    +0.169 C 
ATOM     35  C   UNL     1      31.755 -11.614 -20.485  0.00  0.00    +0.047 C 
ATOM     36  C   UNL     1      31.952 -14.039 -19.829  0.00  0.00    +0.047 C 
ENDBRANCH  33  34
ENDBRANCH  32  33
ENDBRANCH  30  32
ENDBRANCH  29  30
ENDBRANCH  28  29
ENDBRANCH   9  28
TORSDOF 13
ENDMDL
