MODEL 1
REMARK VINA RESULT:     -11.2      0.000      0.000
REMARK  Name = 119202
REMARK  6 active torsions:
REMARK  status: ('A' for Active; 'I' for Inactive)
REMARK    1  A    between atoms: C_9  and  O_21
REMARK    2  A    between atoms: O_21  and  C_23
REMARK    3  A    between atoms: C_23  and  C_24
REMARK    4  A    between atoms: C_24  and  C_25
REMARK    5  A    between atoms: C_25  and  C_27
REMARK    6  A    between atoms: C_27  and  O_28
REMARK                            x       y       z     vdW  Elec       q    Type
REMARK                         _______ _______ _______ _____ _____    ______ ____
ROOT
ATOM      1  O   UNL     1      39.782 -25.753 -13.775  0.00  0.00    -0.291 OA
ATOM      2  C   UNL     1      32.806 -23.212 -15.568  0.00  0.00    +0.003 C 
ATOM      3  C   UNL     1      31.712 -23.339 -14.491  0.00  0.00    +0.037 C 
ATOM      4  C   UNL     1      34.190 -22.936 -14.975  0.00  0.00    +0.001 C 
ATOM      5  C   UNL     1      34.574 -24.113 -14.023  0.00  0.00    +0.003 C 
ATOM      6  C   UNL     1      36.008 -23.947 -13.390  0.00  0.00    +0.016 C 
ATOM      7  C   UNL     1      32.055 -24.544 -13.607  0.00  0.00    +0.003 C 
ATOM      8  C   UNL     1      33.457 -24.406 -12.983  0.00  0.00    +0.000 C 
ATOM      9  C   UNL     1      30.485 -23.539 -15.403  0.00  0.00    +0.169 C 
ATOM     10  C   UNL     1      32.211 -22.218 -16.563  0.00  0.00    +0.004 C 
ATOM     11  C   UNL     1      35.250 -22.779 -16.073  0.00  0.00    +0.004 C 
ATOM     12  C   UNL     1      30.704 -22.532 -16.549  0.00  0.00    +0.044 C 
ATOM     13  C   UNL     1      37.022 -23.619 -14.495  0.00  0.00    -0.042 C 
ATOM     14  C   UNL     1      31.526 -22.082 -13.605  0.00  0.00    +0.004 C 
ATOM     15  C   UNL     1      36.630 -22.539 -15.476  0.00  0.00    +0.022 C 
ATOM     16  C   UNL     1      36.395 -25.285 -12.695  0.00  0.00    +0.012 C 
ATOM     17  C   UNL     1      36.051 -22.810 -12.345  0.00  0.00    +0.004 C 
ATOM     18  C   UNL     1      37.876 -25.400 -12.372  0.00  0.00    +0.069 C 
ATOM     19  C   UNL     1      38.219 -24.216 -14.617  0.00  0.00    +0.029 C 
ATOM     20  C   UNL     1      38.701 -25.192 -13.614  0.00  0.00    +0.173 C 
ENDROOT
BRANCH   9  21
ATOM     21  O   UNL     1      29.259 -23.314 -14.734  0.00  0.00    -0.452 OA
BRANCH  21  23
ATOM     22  O   UNL     1      27.717 -24.039 -16.290  0.00  0.00    -0.250 OA
ATOM     23  C   UNL     1      28.150 -23.179 -15.535  0.00  0.00    +0.317 C 
BRANCH  23  24
ATOM     24  C   UNL     1      27.551 -21.803 -15.336  0.00  0.00    +0.121 C 
BRANCH  24  25
ATOM     25  C   UNL     1      26.088 -21.720 -15.758  0.00  0.00    +0.121 C 
BRANCH  25  27
ATOM     26  O   UNL     1      25.652 -20.123 -17.518  0.00  0.00    -0.250 OA
ATOM     27  C   UNL     1      25.956 -21.263 -17.189  0.00  0.00    +0.314 C 
BRANCH  27  28
ATOM     28  O   UNL     1      26.233 -22.247 -18.080  0.00  0.00    -0.480 OA
ATOM     29  H   UNL     1      25.536 -22.688 -18.523  0.00  0.00    +0.295 HD
ENDBRANCH  27  28
ENDBRANCH  25  27
ENDBRANCH  24  25
ENDBRANCH  23  24
ENDBRANCH  21  23
ENDBRANCH   9  21
TORSDOF 6
ENDMDL
MODEL 2
REMARK VINA RESULT:     -10.6      5.419      7.018
REMARK  Name = 119202
REMARK  6 active torsions:
REMARK  status: ('A' for Active; 'I' for Inactive)
REMARK    1  A    between atoms: C_9  and  O_21
REMARK    2  A    between atoms: O_21  and  C_23
REMARK    3  A    between atoms: C_23  and  C_24
REMARK    4  A    between atoms: C_24  and  C_25
REMARK    5  A    between atoms: C_25  and  C_27
REMARK    6  A    between atoms: C_27  and  O_28
REMARK                            x       y       z     vdW  Elec       q    Type
REMARK                         _______ _______ _______ _____ _____    ______ ____
ROOT
ATOM      1  O   UNL     1      34.563 -23.608 -10.780  0.00  0.00    -0.291 OA
ATOM      2  C   UNL     1      33.437 -21.347 -17.989  0.00  0.00    +0.003 C 
ATOM      3  C   UNL     1      34.676 -21.249 -18.897  0.00  0.00    +0.037 C 
ATOM      4  C   UNL     1      33.538 -22.488 -16.972  0.00  0.00    +0.001 C 
ATOM      5  C   UNL     1      34.789 -22.248 -16.070  0.00  0.00    +0.003 C 
ATOM      6  C   UNL     1      34.961 -23.350 -14.955  0.00  0.00    +0.016 C 
ATOM      7  C   UNL     1      35.890 -20.938 -18.013  0.00  0.00    +0.003 C 
ATOM      8  C   UNL     1      36.072 -21.999 -16.911  0.00  0.00    +0.000 C 
ATOM      9  C   UNL     1      34.229 -20.088 -19.807  0.00  0.00    +0.169 C 
ATOM     10  C   UNL     1      32.270 -21.330 -18.975  0.00  0.00    +0.004 C 
ATOM     11  C   UNL     1      32.274 -22.581 -16.107  0.00  0.00    +0.004 C 
ATOM     12  C   UNL     1      32.747 -20.392 -20.099  0.00  0.00    +0.044 C 
ATOM     13  C   UNL     1      33.629 -23.545 -14.218  0.00  0.00    -0.042 C 
ATOM     14  C   UNL     1      34.962 -22.516 -19.742  0.00  0.00    +0.004 C 
ATOM     15  C   UNL     1      32.395 -23.695 -15.076  0.00  0.00    +0.022 C 
ATOM     16  C   UNL     1      36.055 -22.870 -13.957  0.00  0.00    +0.012 C 
ATOM     17  C   UNL     1      35.387 -24.712 -15.548  0.00  0.00    +0.004 C 
ATOM     18  C   UNL     1      36.063 -23.639 -12.645  0.00  0.00    +0.069 C 
ATOM     19  C   UNL     1      33.513 -23.610 -12.881  0.00  0.00    +0.029 C 
ATOM     20  C   UNL     1      34.704 -23.591 -12.001  0.00  0.00    +0.173 C 
ENDROOT
BRANCH   9  21
ATOM     21  O   UNL     1      34.989 -19.994 -20.996  0.00  0.00    -0.452 OA
BRANCH  21  23
ATOM     22  O   UNL     1      36.442 -18.351 -20.282  0.00  0.00    -0.250 OA
ATOM     23  C   UNL     1      35.737 -18.851 -21.147  0.00  0.00    +0.317 C 
BRANCH  23  24
ATOM     24  C   UNL     1      35.550 -18.309 -22.548  0.00  0.00    +0.121 C 
BRANCH  24  25
ATOM     25  C   UNL     1      34.315 -17.425 -22.688  0.00  0.00    +0.121 C 
BRANCH  25  27
ATOM     26  O   UNL     1      34.442 -15.679 -21.022  0.00  0.00    -0.250 OA
ATOM     27  C   UNL     1      34.582 -16.027 -22.188  0.00  0.00    +0.314 C 
BRANCH  27  28
ATOM     28  O   UNL     1      35.019 -15.197 -23.167  0.00  0.00    -0.480 OA
ATOM     29  H   UNL     1      34.523 -15.101 -23.955  0.00  0.00    +0.295 HD
ENDBRANCH  27  28
ENDBRANCH  25  27
ENDBRANCH  24  25
ENDBRANCH  23  24
ENDBRANCH  21  23
ENDBRANCH   9  21
TORSDOF 6
ENDMDL
MODEL 3
REMARK VINA RESULT:      -9.4      3.233      5.762
REMARK  Name = 119202
REMARK  6 active torsions:
REMARK  status: ('A' for Active; 'I' for Inactive)
REMARK    1  A    between atoms: C_9  and  O_21
REMARK    2  A    between atoms: O_21  and  C_23
REMARK    3  A    between atoms: C_23  and  C_24
REMARK    4  A    between atoms: C_24  and  C_25
REMARK    5  A    between atoms: C_25  and  C_27
REMARK    6  A    between atoms: C_27  and  O_28
REMARK                            x       y       z     vdW  Elec       q    Type
REMARK                         _______ _______ _______ _____ _____    ______ ____
ROOT
ATOM      1  O   UNL     1      34.779 -18.178 -21.546  0.00  0.00    -0.291 OA
ATOM      2  C   UNL     1      34.362 -22.476 -15.245  0.00  0.00    +0.003 C 
ATOM      3  C   UNL     1      33.108 -23.354 -15.074  0.00  0.00    +0.037 C 
ATOM      4  C   UNL     1      34.787 -22.332 -16.709  0.00  0.00    +0.001 C 
ATOM      5  C   UNL     1      33.617 -21.678 -17.511  0.00  0.00    +0.003 C 
ATOM      6  C   UNL     1      33.971 -21.445 -19.030  0.00  0.00    +0.016 C 
ATOM      7  C   UNL     1      31.945 -22.667 -15.800  0.00  0.00    +0.003 C 
ATOM      8  C   UNL     1      32.272 -22.423 -17.285  0.00  0.00    +0.000 C 
ATOM      9  C   UNL     1      33.002 -23.343 -13.536  0.00  0.00    +0.169 C 
ATOM     10  C   UNL     1      35.348 -23.063 -14.237  0.00  0.00    +0.004 C 
ATOM     11  C   UNL     1      36.057 -21.481 -16.842  0.00  0.00    +0.004 C 
ATOM     12  C   UNL     1      34.459 -23.506 -13.061  0.00  0.00    +0.044 C 
ATOM     13  C   UNL     1      35.333 -20.744 -19.137  0.00  0.00    -0.042 C 
ATOM     14  C   UNL     1      33.259 -24.806 -15.593  0.00  0.00    +0.004 C 
ATOM     15  C   UNL     1      36.456 -21.314 -18.302  0.00  0.00    +0.022 C 
ATOM     16  C   UNL     1      32.863 -20.551 -19.659  0.00  0.00    +0.012 C 
ATOM     17  C   UNL     1      34.049 -22.772 -19.816  0.00  0.00    +0.004 C 
ATOM     18  C   UNL     1      33.256 -19.941 -20.995  0.00  0.00    +0.069 C 
ATOM     19  C   UNL     1      35.574 -19.690 -19.934  0.00  0.00    +0.029 C 
ATOM     20  C   UNL     1      34.543 -19.171 -20.861  0.00  0.00    +0.173 C 
ENDROOT
BRANCH   9  21
ATOM     21  O   UNL     1      32.169 -24.369 -13.033  0.00  0.00    -0.452 OA
BRANCH  21  23
ATOM     22  O   UNL     1      30.294 -23.230 -12.321  0.00  0.00    -0.250 OA
ATOM     23  C   UNL     1      30.822 -24.095 -13.005  0.00  0.00    +0.317 C 
BRANCH  23  24
ATOM     24  C   UNL     1      30.099 -25.029 -13.951  0.00  0.00    +0.121 C 
BRANCH  24  25
ATOM     25  C   UNL     1      28.615 -24.710 -14.090  0.00  0.00    +0.121 C 
BRANCH  25  27
ATOM     26  O   UNL     1      27.972 -24.160 -16.354  0.00  0.00    -0.250 OA
ATOM     27  C   UNL     1      28.361 -23.786 -15.255  0.00  0.00    +0.314 C 
BRANCH  27  28
ATOM     28  O   UNL     1      28.590 -22.485 -14.949  0.00  0.00    -0.480 OA
ATOM     29  H   UNL     1      27.875 -21.924 -14.722  0.00  0.00    +0.295 HD
ENDBRANCH  27  28
ENDBRANCH  25  27
ENDBRANCH  24  25
ENDBRANCH  23  24
ENDBRANCH  21  23
ENDBRANCH   9  21
TORSDOF 6
ENDMDL
MODEL 4
REMARK VINA RESULT:      -9.1      4.414      5.852
REMARK  Name = 119202
REMARK  6 active torsions:
REMARK  status: ('A' for Active; 'I' for Inactive)
REMARK    1  A    between atoms: C_9  and  O_21
REMARK    2  A    between atoms: O_21  and  C_23
REMARK    3  A    between atoms: C_23  and  C_24
REMARK    4  A    between atoms: C_24  and  C_25
REMARK    5  A    between atoms: C_25  and  C_27
REMARK    6  A    between atoms: C_27  and  O_28
REMARK                            x       y       z     vdW  Elec       q    Type
REMARK                         _______ _______ _______ _____ _____    ______ ____
ROOT
ATOM      1  O   UNL     1      36.435 -23.306  -9.669  0.00  0.00    -0.291 OA
ATOM      2  C   UNL     1      32.686 -22.286 -16.245  0.00  0.00    +0.003 C 
ATOM      3  C   UNL     1      33.522 -22.287 -17.539  0.00  0.00    +0.037 C 
ATOM      4  C   UNL     1      33.238 -23.242 -15.185  0.00  0.00    +0.001 C 
ATOM      5  C   UNL     1      34.696 -22.811 -14.827  0.00  0.00    +0.003 C 
ATOM      6  C   UNL     1      35.344 -23.710 -13.706  0.00  0.00    +0.016 C 
ATOM      7  C   UNL     1      34.931 -21.789 -17.195  0.00  0.00    +0.003 C 
ATOM      8  C   UNL     1      35.580 -22.650 -16.095  0.00  0.00    +0.000 C 
ATOM      9  C   UNL     1      32.681 -21.307 -18.381  0.00  0.00    +0.169 C 
ATOM     10  C   UNL     1      31.256 -22.474 -16.745  0.00  0.00    +0.004 C 
ATOM     11  C   UNL     1      32.366 -23.244 -13.923  0.00  0.00    +0.004 C 
ATOM     12  C   UNL     1      31.225 -21.713 -18.083  0.00  0.00    +0.044 C 
ATOM     13  C   UNL     1      34.373 -23.836 -12.525  0.00  0.00    -0.042 C 
ATOM     14  C   UNL     1      33.617 -23.662 -18.248  0.00  0.00    +0.004 C 
ATOM     15  C   UNL     1      32.938 -24.172 -12.860  0.00  0.00    +0.022 C 
ATOM     16  C   UNL     1      36.665 -23.033 -13.238  0.00  0.00    +0.012 C 
ATOM     17  C   UNL     1      35.666 -25.132 -14.219  0.00  0.00    +0.004 C 
ATOM     18  C   UNL     1      37.197 -23.578 -11.922  0.00  0.00    +0.069 C 
ATOM     19  C   UNL     1      34.731 -23.689 -11.238  0.00  0.00    +0.029 C 
ATOM     20  C   UNL     1      36.145 -23.480 -10.850  0.00  0.00    +0.173 C 
ENDROOT
BRANCH   9  21
ATOM     21  O   UNL     1      32.973 -21.376 -19.763  0.00  0.00    -0.452 OA
BRANCH  21  23
ATOM     22  O   UNL     1      31.780 -19.801 -20.954  0.00  0.00    -0.250 OA
ATOM     23  C   UNL     1      32.828 -20.207 -20.471  0.00  0.00    +0.317 C 
BRANCH  23  24
ATOM     24  C   UNL     1      34.166 -19.504 -20.560  0.00  0.00    +0.121 C 
BRANCH  24  25
ATOM     25  C   UNL     1      34.340 -18.709 -21.849  0.00  0.00    +0.121 C 
BRANCH  25  27
ATOM     26  O   UNL     1      35.004 -16.846 -20.461  0.00  0.00    -0.250 OA
ATOM     27  C   UNL     1      34.923 -17.345 -21.576  0.00  0.00    +0.314 C 
BRANCH  27  28
ATOM     28  O   UNL     1      35.371 -16.734 -22.701  0.00  0.00    -0.480 OA
ATOM     29  H   UNL     1      35.551 -15.815 -22.695  0.00  0.00    +0.295 HD
ENDBRANCH  27  28
ENDBRANCH  25  27
ENDBRANCH  24  25
ENDBRANCH  23  24
ENDBRANCH  21  23
ENDBRANCH   9  21
TORSDOF 6
ENDMDL
MODEL 5
REMARK VINA RESULT:      -8.7     14.890     17.837
REMARK  Name = 119202
REMARK  6 active torsions:
REMARK  status: ('A' for Active; 'I' for Inactive)
REMARK    1  A    between atoms: C_9  and  O_21
REMARK    2  A    between atoms: O_21  and  C_23
REMARK    3  A    between atoms: C_23  and  C_24
REMARK    4  A    between atoms: C_24  and  C_25
REMARK    5  A    between atoms: C_25  and  C_27
REMARK    6  A    between atoms: C_27  and  O_28
REMARK                            x       y       z     vdW  Elec       q    Type
REMARK                         _______ _______ _______ _____ _____    ______ ____
ROOT
ATOM      1  O   UNL     1      29.674  -1.786 -22.405  0.00  0.00    -0.291 OA
ATOM      2  C   UNL     1      31.339  -9.126 -21.102  0.00  0.00    +0.003 C 
ATOM      3  C   UNL     1      31.750  -9.981 -22.316  0.00  0.00    +0.037 C 
ATOM      4  C   UNL     1      31.811  -7.674 -21.215  0.00  0.00    +0.001 C 
ATOM      5  C   UNL     1      31.184  -7.039 -22.497  0.00  0.00    +0.003 C 
ATOM      6  C   UNL     1      31.575  -5.523 -22.683  0.00  0.00    +0.016 C 
ATOM      7  C   UNL     1      31.070  -9.397 -23.560  0.00  0.00    +0.003 C 
ATOM      8  C   UNL     1      31.432  -7.913 -23.757  0.00  0.00    +0.000 C 
ATOM      9  C   UNL     1      31.196 -11.345 -21.860  0.00  0.00    +0.169 C 
ATOM     10  C   UNL     1      31.789  -9.964 -19.908  0.00  0.00    +0.004 C 
ATOM     11  C   UNL     1      31.417  -6.858 -19.977  0.00  0.00    +0.004 C 
ATOM     12  C   UNL     1      31.564 -11.417 -20.365  0.00  0.00    +0.044 C 
ATOM     13  C   UNL     1      31.332  -4.765 -21.371  0.00  0.00    -0.042 C 
ATOM     14  C   UNL     1      33.279 -10.072 -22.556  0.00  0.00    +0.004 C 
ATOM     15  C   UNL     1      31.860  -5.408 -20.109  0.00  0.00    +0.022 C 
ATOM     16  C   UNL     1      30.689  -4.924 -23.814  0.00  0.00    +0.012 C 
ATOM     17  C   UNL     1      33.062  -5.352 -23.069  0.00  0.00    +0.004 C 
ATOM     18  C   UNL     1      30.688  -3.404 -23.849  0.00  0.00    +0.069 C 
ATOM     19  C   UNL     1      30.709  -3.578 -21.294  0.00  0.00    +0.029 C 
ATOM     20  C   UNL     1      30.281  -2.849 -22.510  0.00  0.00    +0.173 C 
ENDROOT
BRANCH   9  21
ATOM     21  O   UNL     1      31.739 -12.431 -22.587  0.00  0.00    -0.452 OA
BRANCH  21  23
ATOM     22  O   UNL     1      32.290 -13.775 -20.795  0.00  0.00    -0.250 OA
ATOM     23  C   UNL     1      32.557 -13.281 -21.882  0.00  0.00    +0.317 C 
BRANCH  23  24
ATOM     24  C   UNL     1      33.835 -13.509 -22.659  0.00  0.00    +0.121 C 
BRANCH  24  25
ATOM     25  C   UNL     1      33.970 -14.933 -23.186  0.00  0.00    +0.121 C 
BRANCH  25  27
ATOM     26  O   UNL     1      33.087 -16.175 -25.061  0.00  0.00    -0.250 OA
ATOM     27  C   UNL     1      33.263 -15.097 -24.509  0.00  0.00    +0.314 C 
BRANCH  27  28
ATOM     28  O   UNL     1      32.821 -13.919 -25.014  0.00  0.00    -0.480 OA
ATOM     29  H   UNL     1      33.399 -13.375 -25.511  0.00  0.00    +0.295 HD
ENDBRANCH  27  28
ENDBRANCH  25  27
ENDBRANCH  24  25
ENDBRANCH  23  24
ENDBRANCH  21  23
ENDBRANCH   9  21
TORSDOF 6
ENDMDL
MODEL 6
REMARK VINA RESULT:      -8.7     18.187     20.430
REMARK  Name = 119202
REMARK  6 active torsions:
REMARK  status: ('A' for Active; 'I' for Inactive)
REMARK    1  A    between atoms: C_9  and  O_21
REMARK    2  A    between atoms: O_21  and  C_23
REMARK    3  A    between atoms: C_23  and  C_24
REMARK    4  A    between atoms: C_24  and  C_25
REMARK    5  A    between atoms: C_25  and  C_27
REMARK    6  A    between atoms: C_27  and  O_28
REMARK                            x       y       z     vdW  Elec       q    Type
REMARK                         _______ _______ _______ _____ _____    ______ ____
ROOT
ATOM      1  O   UNL     1      37.578  -4.818 -29.829  0.00  0.00    -0.291 OA
ATOM      2  C   UNL     1      31.979  -6.388 -24.877  0.00  0.00    +0.003 C 
ATOM      3  C   UNL     1      32.077  -5.752 -23.478  0.00  0.00    +0.037 C 
ATOM      4  C   UNL     1      32.541  -5.485 -25.978  0.00  0.00    +0.001 C 
ATOM      5  C   UNL     1      34.046  -5.199 -25.675  0.00  0.00    +0.003 C 
ATOM      6  C   UNL     1      34.735  -4.308 -26.779  0.00  0.00    +0.016 C 
ATOM      7  C   UNL     1      33.562  -5.544 -23.155  0.00  0.00    +0.003 C 
ATOM      8  C   UNL     1      34.257  -4.681 -24.225  0.00  0.00    +0.000 C 
ATOM      9  C   UNL     1      31.388  -6.855 -22.651  0.00  0.00    +0.169 C 
ATOM     10  C   UNL     1      30.523  -6.844 -24.959  0.00  0.00    +0.004 C 
ATOM     11  C   UNL     1      32.396  -6.132 -27.362  0.00  0.00    +0.004 C 
ATOM     12  C   UNL     1      30.186  -7.277 -23.520  0.00  0.00    +0.044 C 
ATOM     13  C   UNL     1      34.427  -4.883 -28.168  0.00  0.00    -0.042 C 
ATOM     14  C   UNL     1      31.320  -4.409 -23.323  0.00  0.00    +0.004 C 
ATOM     15  C   UNL     1      32.987  -5.244 -28.449  0.00  0.00    +0.022 C 
ATOM     16  C   UNL     1      36.271  -4.318 -26.527  0.00  0.00    +0.012 C 
ATOM     17  C   UNL     1      34.231  -2.848 -26.740  0.00  0.00    +0.004 C 
ATOM     18  C   UNL     1      37.086  -3.820 -27.710  0.00  0.00    +0.069 C 
ATOM     19  C   UNL     1      35.349  -5.057 -29.130  0.00  0.00    +0.029 C 
ATOM     20  C   UNL     1      36.748  -4.607 -28.948  0.00  0.00    +0.173 C 
ENDROOT
BRANCH   9  21
ATOM     21  O   UNL     1      30.980  -6.412 -21.372  0.00  0.00    -0.452 OA
BRANCH  21  23
ATOM     22  O   UNL     1      31.915  -6.392 -19.263  0.00  0.00    -0.250 OA
ATOM     23  C   UNL     1      31.633  -6.975 -20.301  0.00  0.00    +0.317 C 
BRANCH  23  24
ATOM     24  C   UNL     1      31.946  -8.423 -20.608  0.00  0.00    +0.121 C 
BRANCH  24  25
ATOM     25  C   UNL     1      31.046  -9.402 -19.861  0.00  0.00    +0.121 C 
BRANCH  25  27
ATOM     26  O   UNL     1      31.754 -11.674 -20.280  0.00  0.00    -0.250 OA
ATOM     27  C   UNL     1      31.006 -10.743 -20.550  0.00  0.00    +0.314 C 
BRANCH  27  28
ATOM     28  O   UNL     1      30.033 -10.818 -21.492  0.00  0.00    -0.480 OA
ATOM     29  H   UNL     1      29.370 -10.157 -21.534  0.00  0.00    +0.295 HD
ENDBRANCH  27  28
ENDBRANCH  25  27
ENDBRANCH  24  25
ENDBRANCH  23  24
ENDBRANCH  21  23
ENDBRANCH   9  21
TORSDOF 6
ENDMDL
MODEL 7
REMARK VINA RESULT:      -8.7      1.374      2.466
REMARK  Name = 119202
REMARK  6 active torsions:
REMARK  status: ('A' for Active; 'I' for Inactive)
REMARK    1  A    between atoms: C_9  and  O_21
REMARK    2  A    between atoms: O_21  and  C_23
REMARK    3  A    between atoms: C_23  and  C_24
REMARK    4  A    between atoms: C_24  and  C_25
REMARK    5  A    between atoms: C_25  and  C_27
REMARK    6  A    between atoms: C_27  and  O_28
REMARK                            x       y       z     vdW  Elec       q    Type
REMARK                         _______ _______ _______ _____ _____    ______ ____
ROOT
ATOM      1  O   UNL     1      40.003 -25.886 -13.655  0.00  0.00    -0.291 OA
ATOM      2  C   UNL     1      33.384 -22.870 -15.986  0.00  0.00    +0.003 C 
ATOM      3  C   UNL     1      32.212 -22.887 -14.987  0.00  0.00    +0.037 C 
ATOM      4  C   UNL     1      34.741 -22.684 -15.303  0.00  0.00    +0.001 C 
ATOM      5  C   UNL     1      34.966 -23.863 -14.303  0.00  0.00    +0.003 C 
ATOM      6  C   UNL     1      36.362 -23.789 -13.574  0.00  0.00    +0.016 C 
ATOM      7  C   UNL     1      32.399 -24.091 -14.056  0.00  0.00    +0.003 C 
ATOM      8  C   UNL     1      33.761 -24.043 -13.338  0.00  0.00    +0.000 C 
ATOM      9  C   UNL     1      31.038 -23.016 -15.978  0.00  0.00    +0.169 C 
ATOM     10  C   UNL     1      32.937 -21.860 -17.041  0.00  0.00    +0.004 C 
ATOM     11  C   UNL     1      35.882 -22.637 -16.327  0.00  0.00    +0.004 C 
ATOM     12  C   UNL     1      31.413 -22.058 -17.126  0.00  0.00    +0.044 C 
ATOM     13  C   UNL     1      37.471 -23.568 -14.611  0.00  0.00    -0.042 C 
ATOM     14  C   UNL     1      32.063 -21.596 -14.141  0.00  0.00    +0.004 C 
ATOM     15  C   UNL     1      37.232 -22.486 -15.639  0.00  0.00    +0.022 C 
ATOM     16  C   UNL     1      36.595 -25.135 -12.826  0.00  0.00    +0.012 C 
ATOM     17  C   UNL     1      36.421 -22.632 -12.552  0.00  0.00    +0.004 C 
ATOM     18  C   UNL     1      38.038 -25.352 -12.397  0.00  0.00    +0.069 C 
ATOM     19  C   UNL     1      38.625 -24.256 -14.636  0.00  0.00    +0.029 C 
ATOM     20  C   UNL     1      38.960 -25.240 -13.582  0.00  0.00    +0.173 C 
ENDROOT
BRANCH   9  21
ATOM     21  O   UNL     1      29.790 -22.682 -15.402  0.00  0.00    -0.452 OA
BRANCH  21  23
ATOM     22  O   UNL     1      28.195 -21.925 -16.887  0.00  0.00    -0.250 OA
ATOM     23  C   UNL     1      28.692 -22.820 -16.217  0.00  0.00    +0.317 C 
BRANCH  23  24
ATOM     24  C   UNL     1      28.196 -24.249 -16.154  0.00  0.00    +0.121 C 
BRANCH  24  25
ATOM     25  C   UNL     1      29.158 -25.185 -15.432  0.00  0.00    +0.121 C 
BRANCH  25  27
ATOM     26  O   UNL     1      29.400 -24.771 -13.063  0.00  0.00    -0.250 OA
ATOM     27  C   UNL     1      28.796 -25.323 -13.973  0.00  0.00    +0.314 C 
BRANCH  27  28
ATOM     28  O   UNL     1      27.709 -26.110 -13.777  0.00  0.00    -0.480 OA
ATOM     29  H   UNL     1      27.738 -27.016 -14.015  0.00  0.00    +0.295 HD
ENDBRANCH  27  28
ENDBRANCH  25  27
ENDBRANCH  24  25
ENDBRANCH  23  24
ENDBRANCH  21  23
ENDBRANCH   9  21
TORSDOF 6
ENDMDL
MODEL 8
REMARK VINA RESULT:      -8.6     17.764     20.298
REMARK  Name = 119202
REMARK  6 active torsions:
REMARK  status: ('A' for Active; 'I' for Inactive)
REMARK    1  A    between atoms: C_9  and  O_21
REMARK    2  A    between atoms: O_21  and  C_23
REMARK    3  A    between atoms: C_23  and  C_24
REMARK    4  A    between atoms: C_24  and  C_25
REMARK    5  A    between atoms: C_25  and  C_27
REMARK    6  A    between atoms: C_27  and  O_28
REMARK                            x       y       z     vdW  Elec       q    Type
REMARK                         _______ _______ _______ _____ _____    ______ ____
ROOT
ATOM      1  O   UNL     1      32.356  -2.796 -29.930  0.00  0.00    -0.291 OA
ATOM      2  C   UNL     1      31.738  -5.228 -22.716  0.00  0.00    +0.003 C 
ATOM      3  C   UNL     1      32.450  -6.545 -22.354  0.00  0.00    +0.037 C 
ATOM      4  C   UNL     1      32.499  -4.413 -23.765  0.00  0.00    +0.001 C 
ATOM      5  C   UNL     1      32.638  -5.269 -25.064  0.00  0.00    +0.003 C 
ATOM      6  C   UNL     1      33.374  -4.501 -26.228  0.00  0.00    +0.016 C 
ATOM      7  C   UNL     1      32.516  -7.412 -23.616  0.00  0.00    +0.003 C 
ATOM      8  C   UNL     1      33.225  -6.678 -24.769  0.00  0.00    +0.000 C 
ATOM      9  C   UNL     1      31.486  -7.061 -21.267  0.00  0.00    +0.169 C 
ATOM     10  C   UNL     1      31.439  -4.599 -21.357  0.00  0.00    +0.004 C 
ATOM     11  C   UNL     1      31.782  -3.094 -24.078  0.00  0.00    +0.004 C 
ATOM     12  C   UNL     1      31.142  -5.804 -20.445  0.00  0.00    +0.044 C 
ATOM     13  C   UNL     1      32.746  -3.112 -26.403  0.00  0.00    -0.042 C 
ATOM     14  C   UNL     1      33.875  -6.370 -21.770  0.00  0.00    +0.004 C 
ATOM     15  C   UNL     1      32.527  -2.303 -25.146  0.00  0.00    +0.022 C 
ATOM     16  C   UNL     1      33.213  -5.326 -27.537  0.00  0.00    +0.012 C 
ATOM     17  C   UNL     1      34.880  -4.314 -25.936  0.00  0.00    +0.004 C 
ATOM     18  C   UNL     1      33.540  -4.541 -28.798  0.00  0.00    +0.069 C 
ATOM     19  C   UNL     1      32.410  -2.584 -27.592  0.00  0.00    +0.029 C 
ATOM     20  C   UNL     1      32.714  -3.284 -28.861  0.00  0.00    +0.173 C 
ENDROOT
BRANCH   9  21
ATOM     21  O   UNL     1      32.054  -8.075 -20.462  0.00  0.00    -0.452 OA
BRANCH  21  23
ATOM     22  O   UNL     1      30.837  -9.259 -18.901  0.00  0.00    -0.250 OA
ATOM     23  C   UNL     1      31.201  -9.072 -20.053  0.00  0.00    +0.317 C 
BRANCH  23  24
ATOM     24  C   UNL     1      30.785  -9.900 -21.250  0.00  0.00    +0.121 C 
BRANCH  24  25
ATOM     25  C   UNL     1      31.165 -11.370 -21.123  0.00  0.00    +0.121 C 
BRANCH  25  27
ATOM     26  O   UNL     1      32.498 -12.941 -22.385  0.00  0.00    -0.250 OA
ATOM     27  C   UNL     1      32.061 -11.805 -22.256  0.00  0.00    +0.314 C 
BRANCH  27  28
ATOM     28  O   UNL     1      32.314 -10.804 -23.135  0.00  0.00    -0.480 OA
ATOM     29  H   UNL     1      32.381  -9.920 -22.832  0.00  0.00    +0.295 HD
ENDBRANCH  27  28
ENDBRANCH  25  27
ENDBRANCH  24  25
ENDBRANCH  23  24
ENDBRANCH  21  23
ENDBRANCH   9  21
TORSDOF 6
ENDMDL
MODEL 9
REMARK VINA RESULT:      -8.5      5.637      8.204
REMARK  Name = 119202
REMARK  6 active torsions:
REMARK  status: ('A' for Active; 'I' for Inactive)
REMARK    1  A    between atoms: C_9  and  O_21
REMARK    2  A    between atoms: O_21  and  C_23
REMARK    3  A    between atoms: C_23  and  C_24
REMARK    4  A    between atoms: C_24  and  C_25
REMARK    5  A    between atoms: C_25  and  C_27
REMARK    6  A    between atoms: C_27  and  O_28
REMARK                            x       y       z     vdW  Elec       q    Type
REMARK                         _______ _______ _______ _____ _____    ______ ____
ROOT
ATOM      1  O   UNL     1      34.677 -14.931 -24.006  0.00  0.00    -0.291 OA
ATOM      2  C   UNL     1      34.855 -20.587 -18.876  0.00  0.00    +0.003 C 
ATOM      3  C   UNL     1      33.704 -21.609 -18.915  0.00  0.00    +0.037 C 
ATOM      4  C   UNL     1      35.229 -20.064 -20.266  0.00  0.00    +0.001 C 
ATOM      5  C   UNL     1      33.979 -19.371 -20.896  0.00  0.00    +0.003 C 
ATOM      6  C   UNL     1      34.271 -18.757 -22.318  0.00  0.00    +0.016 C 
ATOM      7  C   UNL     1      32.459 -20.901 -19.464  0.00  0.00    +0.003 C 
ATOM      8  C   UNL     1      32.724 -20.287 -20.851  0.00  0.00    +0.000 C 
ATOM      9  C   UNL     1      33.634 -21.965 -17.417  0.00  0.00    +0.169 C 
ATOM     10  C   UNL     1      35.920 -21.282 -18.031  0.00  0.00    +0.004 C 
ATOM     11  C   UNL     1      36.400 -19.075 -20.196  0.00  0.00    +0.004 C 
ATOM     12  C   UNL     1      35.110 -22.077 -16.991  0.00  0.00    +0.044 C 
ATOM     13  C   UNL     1      35.550 -17.910 -22.258  0.00  0.00    -0.042 C 
ATOM     14  C   UNL     1      33.992 -22.877 -19.758  0.00  0.00    +0.004 C 
ATOM     15  C   UNL     1      36.745 -18.534 -21.577  0.00  0.00    +0.022 C 
ATOM     16  C   UNL     1      33.062 -17.865 -22.724  0.00  0.00    +0.012 C 
ATOM     17  C   UNL     1      34.469 -19.851 -23.392  0.00  0.00    +0.004 C 
ATOM     18  C   UNL     1      33.358 -16.924 -23.881  0.00  0.00    +0.069 C 
ATOM     19  C   UNL     1      35.662 -16.680 -22.788  0.00  0.00    +0.029 C 
ATOM     20  C   UNL     1      34.561 -16.074 -23.571  0.00  0.00    +0.173 C 
ENDROOT
BRANCH   9  21
ATOM     21  O   UNL     1      32.923 -23.162 -17.167  0.00  0.00    -0.452 OA
BRANCH  21  23
ATOM     22  O   UNL     1      32.245 -23.596 -15.005  0.00  0.00    -0.250 OA
ATOM     23  C   UNL     1      32.037 -23.131 -16.117  0.00  0.00    +0.317 C 
BRANCH  23  24
ATOM     24  C   UNL     1      30.765 -22.435 -16.553  0.00  0.00    +0.121 C 
BRANCH  24  25
ATOM     25  C   UNL     1      29.542 -22.866 -15.753  0.00  0.00    +0.121 C 
BRANCH  25  27
ATOM     26  O   UNL     1      27.805 -23.298 -17.376  0.00  0.00    -0.250 OA
ATOM     27  C   UNL     1      28.266 -22.575 -16.503  0.00  0.00    +0.314 C 
BRANCH  27  28
ATOM     28  O   UNL     1      27.668 -21.429 -16.091  0.00  0.00    -0.480 OA
ATOM     29  H   UNL     1      27.989 -20.979 -15.335  0.00  0.00    +0.295 HD
ENDBRANCH  27  28
ENDBRANCH  25  27
ENDBRANCH  24  25
ENDBRANCH  23  24
ENDBRANCH  21  23
ENDBRANCH   9  21
TORSDOF 6
ENDMDL
