MODEL 1
REMARK VINA RESULT:     -11.9      0.000      0.000
REMARK  Name = 44129630
REMARK  3 active torsions:
REMARK  status: ('A' for Active; 'I' for Inactive)
REMARK    1  A    between atoms: C_5  and  C_14
REMARK    2  A    between atoms: C_11  and  S_19
REMARK    3  A    between atoms: S_19  and  N_22
REMARK                            x       y       z     vdW  Elec       q    Type
REMARK                         _______ _______ _______ _____ _____    ______ ____
ROOT
ATOM      1  S   UNL     1      33.297 -21.924 -18.906  0.00  0.00    +0.060 S 
ATOM      2  O   UNL     1      32.081 -21.598 -18.189  0.00  0.00    -0.153 OA
ATOM      3  O   UNL     1      33.443 -23.175 -19.625  0.00  0.00    -0.153 OA
ATOM      4  N   UNL     1      33.673 -20.627 -19.951  0.00  0.00    -0.180 NA
ATOM      5  C   UNL     1      35.081 -20.555 -20.396  0.00  0.00    +0.080 C 
ATOM      6  C   UNL     1      35.931 -20.164 -19.185  0.00  0.00    +0.045 C 
ATOM      7  C   UNL     1      35.762 -21.067 -17.985  0.00  0.00    -0.002 C 
ATOM      8  C   UNL     1      34.630 -21.861 -17.751  0.00  0.00    +0.119 C 
ATOM      9  C   UNL     1      34.506 -22.642 -16.599  0.00  0.00    +0.039 C 
ATOM     10  C   UNL     1      36.770 -21.066 -17.009  0.00  0.00    -0.002 C 
ATOM     11  C   UNL     1      35.526 -22.633 -15.650  0.00  0.00    +0.124 C 
ATOM     12  C   UNL     1      36.657 -21.845 -15.854  0.00  0.00    +0.020 C 
ATOM     13  H   UNL     1      33.451 -19.758 -19.465  0.00  0.00    +0.149 HD
ENDROOT
BRANCH   5  14
ATOM     14  C   UNL     1      35.194 -19.532 -21.513  0.00  0.00    +0.016 C 
ATOM     15  C   UNL     1      33.846 -19.162 -22.127  0.00  0.00    +0.001 C 
ATOM     16  C   UNL     1      35.718 -18.180 -21.040  0.00  0.00    +0.001 C 
ATOM     17  C   UNL     1      34.118 -17.849 -22.854  0.00  0.00    +0.000 C 
ATOM     18  C   UNL     1      35.331 -17.223 -22.163  0.00  0.00    +0.000 C 
ENDBRANCH   5  14
BRANCH  11  19
ATOM     19  S   UNL     1      35.386 -23.604 -14.207  0.00  0.00    +0.063 S 
ATOM     20  O   UNL     1      35.284 -22.711 -13.060  0.00  0.00    -0.153 OA
ATOM     21  O   UNL     1      34.362 -24.615 -14.428  0.00  0.00    -0.153 OA
BRANCH  19  22
ATOM     22  N   UNL     1      36.918 -24.369 -14.178  0.00  0.00    -0.160 NA
ATOM     23  N   UNL     1      39.203 -25.960 -13.463  0.00  0.00    +0.387 N 
ATOM     24  C   UNL     1      37.821 -23.953 -13.068  0.00  0.00    +0.073 C 
ATOM     25  C   UNL     1      36.898 -25.851 -14.338  0.00  0.00    +0.073 C 
ATOM     26  C   UNL     1      39.226 -24.497 -13.323  0.00  0.00    -0.058 C 
ATOM     27  C   UNL     1      38.320 -26.358 -14.568  0.00  0.00    -0.058 C 
ATOM     28  C   UNL     1      40.555 -26.479 -13.672  0.00  0.00    -0.101 C 
ATOM     29  H   UNL     1      38.837 -26.360 -12.598  0.00  0.00    -0.080 HD
ENDBRANCH  19  22
ENDBRANCH  11  19
TORSDOF 3
ENDMDL
MODEL 2
REMARK VINA RESULT:     -11.1      5.686      8.917
REMARK  Name = 44129630
REMARK  3 active torsions:
REMARK  status: ('A' for Active; 'I' for Inactive)
REMARK    1  A    between atoms: C_5  and  C_14
REMARK    2  A    between atoms: C_11  and  S_19
REMARK    3  A    between atoms: S_19  and  N_22
REMARK                            x       y       z     vdW  Elec       q    Type
REMARK                         _______ _______ _______ _____ _____    ______ ____
ROOT
ATOM      1  S   UNL     1      33.384 -14.674 -24.522  0.00  0.00    +0.060 S 
ATOM      2  O   UNL     1      32.609 -15.708 -25.179  0.00  0.00    -0.153 OA
ATOM      3  O   UNL     1      34.590 -14.135 -25.117  0.00  0.00    -0.153 OA
ATOM      4  N   UNL     1      32.334 -13.391 -24.113  0.00  0.00    -0.180 NA
ATOM      5  C   UNL     1      32.817 -12.489 -23.045  0.00  0.00    +0.080 C 
ATOM      6  C   UNL     1      32.792 -13.271 -21.730  0.00  0.00    +0.045 C 
ATOM      7  C   UNL     1      33.559 -14.573 -21.762  0.00  0.00    -0.002 C 
ATOM      8  C   UNL     1      33.848 -15.287 -22.933  0.00  0.00    +0.119 C 
ATOM      9  C   UNL     1      34.520 -16.512 -22.899  0.00  0.00    +0.039 C 
ATOM     10  C   UNL     1      33.954 -15.139 -20.540  0.00  0.00    -0.002 C 
ATOM     11  C   UNL     1      34.912 -17.047 -21.674  0.00  0.00    +0.124 C 
ATOM     12  C   UNL     1      34.628 -16.361 -20.495  0.00  0.00    +0.020 C 
ATOM     13  H   UNL     1      31.449 -13.794 -23.807  0.00  0.00    +0.149 HD
ENDROOT
BRANCH   5  14
ATOM     14  C   UNL     1      31.918 -11.266 -22.988  0.00  0.00    +0.016 C 
ATOM     15  C   UNL     1      31.356 -10.998 -21.594  0.00  0.00    +0.001 C 
ATOM     16  C   UNL     1      32.651  -9.966 -23.299  0.00  0.00    +0.001 C 
ATOM     17  C   UNL     1      30.899  -9.544 -21.652  0.00  0.00    +0.000 C 
ATOM     18  C   UNL     1      31.723  -8.883 -22.758  0.00  0.00    +0.000 C 
ENDBRANCH   5  14
BRANCH  11  19
ATOM     19  S   UNL     1      35.753 -18.574 -21.616  0.00  0.00    +0.063 S 
ATOM     20  O   UNL     1      35.637 -19.214 -22.920  0.00  0.00    -0.153 OA
ATOM     21  O   UNL     1      37.070 -18.355 -21.035  0.00  0.00    -0.153 OA
BRANCH  19  22
ATOM     22  N   UNL     1      34.791 -19.435 -20.491  0.00  0.00    -0.160 NA
ATOM     23  N   UNL     1      33.216 -21.437 -19.157  0.00  0.00    +0.387 N 
ATOM     24  C   UNL     1      33.399 -19.730 -20.932  0.00  0.00    +0.073 C 
ATOM     25  C   UNL     1      35.435 -20.633 -19.880  0.00  0.00    +0.073 C 
ATOM     26  C   UNL     1      32.587 -20.246 -19.744  0.00  0.00    -0.058 C 
ATOM     27  C   UNL     1      34.584 -21.131 -18.714  0.00  0.00    -0.058 C 
ATOM     28  C   UNL     1      32.416 -21.946 -18.043  0.00  0.00    -0.101 C 
ATOM     29  H   UNL     1      33.265 -22.162 -19.874  0.00  0.00    -0.080 HD
ENDBRANCH  19  22
ENDBRANCH  11  19
TORSDOF 3
ENDMDL
MODEL 3
REMARK VINA RESULT:     -11.0      2.559      4.046
REMARK  Name = 44129630
REMARK  3 active torsions:
REMARK  status: ('A' for Active; 'I' for Inactive)
REMARK    1  A    between atoms: C_5  and  C_14
REMARK    2  A    between atoms: C_11  and  S_19
REMARK    3  A    between atoms: S_19  and  N_22
REMARK                            x       y       z     vdW  Elec       q    Type
REMARK                         _______ _______ _______ _____ _____    ______ ____
ROOT
ATOM      1  S   UNL     1      33.081 -21.628 -19.066  0.00  0.00    +0.060 S 
ATOM      2  O   UNL     1      31.900 -21.193 -18.346  0.00  0.00    -0.153 OA
ATOM      3  O   UNL     1      33.096 -22.862 -19.826  0.00  0.00    -0.153 OA
ATOM      4  N   UNL     1      33.608 -20.346 -20.063  0.00  0.00    -0.180 NA
ATOM      5  C   UNL     1      35.021 -20.414 -20.495  0.00  0.00    +0.080 C 
ATOM      6  C   UNL     1      35.895 -20.161 -19.265  0.00  0.00    +0.045 C 
ATOM      7  C   UNL     1      35.614 -21.079 -18.098  0.00  0.00    -0.002 C 
ATOM      8  C   UNL     1      34.400 -21.751 -17.900  0.00  0.00    +0.119 C 
ATOM      9  C   UNL     1      34.179 -22.551 -16.776  0.00  0.00    +0.039 C 
ATOM     10  C   UNL     1      36.606 -21.221 -17.115  0.00  0.00    -0.002 C 
ATOM     11  C   UNL     1      35.183 -22.686 -15.820  0.00  0.00    +0.124 C 
ATOM     12  C   UNL     1      36.395 -22.021 -15.989  0.00  0.00    +0.020 C 
ATOM     13  H   UNL     1      33.478 -19.475 -19.549  0.00  0.00    +0.149 HD
ENDROOT
BRANCH   5  14
ATOM     14  C   UNL     1      35.257 -19.374 -21.575  0.00  0.00    +0.016 C 
ATOM     15  C   UNL     1      34.028 -19.121 -22.445  0.00  0.00    +0.001 C 
ATOM     16  C   UNL     1      35.553 -17.985 -21.018  0.00  0.00    +0.001 C 
ATOM     17  C   UNL     1      34.317 -17.781 -23.114  0.00  0.00    +0.000 C 
ATOM     18  C   UNL     1      35.309 -17.055 -22.202  0.00  0.00    +0.000 C 
ENDBRANCH   5  14
BRANCH  11  19
ATOM     19  S   UNL     1      34.921 -23.683 -14.412  0.00  0.00    +0.063 S 
ATOM     20  O   UNL     1      35.499 -24.996 -14.664  0.00  0.00    -0.153 OA
ATOM     21  O   UNL     1      35.326 -22.931 -13.232  0.00  0.00    -0.153 OA
BRANCH  19  22
ATOM     22  N   UNL     1      33.214 -23.818 -14.419  0.00  0.00    -0.160 NA
ATOM     23  N   UNL     1      30.417 -23.586 -13.797  0.00  0.00    +0.387 N 
ATOM     24  C   UNL     1      32.625 -24.555 -13.266  0.00  0.00    +0.073 C 
ATOM     25  C   UNL     1      32.471 -22.556 -14.697  0.00  0.00    +0.073 C 
ATOM     26  C   UNL     1      31.148 -24.835 -13.541  0.00  0.00    -0.058 C 
ATOM     27  C   UNL     1      30.998 -22.876 -14.944  0.00  0.00    -0.058 C 
ATOM     28  C   UNL     1      28.998 -23.858 -14.025  0.00  0.00    -0.101 C 
ATOM     29  H   UNL     1      30.501 -22.990 -12.973  0.00  0.00    -0.080 HD
ENDBRANCH  19  22
ENDBRANCH  11  19
TORSDOF 3
ENDMDL
MODEL 4
REMARK VINA RESULT:     -10.4      4.006      9.415
REMARK  Name = 44129630
REMARK  3 active torsions:
REMARK  status: ('A' for Active; 'I' for Inactive)
REMARK    1  A    between atoms: C_5  and  C_14
REMARK    2  A    between atoms: C_11  and  S_19
REMARK    3  A    between atoms: S_19  and  N_22
REMARK                            x       y       z     vdW  Elec       q    Type
REMARK                         _______ _______ _______ _____ _____    ______ ____
ROOT
ATOM      1  S   UNL     1      35.708 -21.228 -18.268  0.00  0.00    +0.060 S 
ATOM      2  O   UNL     1      36.479 -20.116 -17.749  0.00  0.00    -0.153 OA
ATOM      3  O   UNL     1      36.345 -22.361 -18.909  0.00  0.00    -0.153 OA
ATOM      4  N   UNL     1      34.671 -21.790 -17.032  0.00  0.00    -0.180 NA
ATOM      5  C   UNL     1      33.502 -22.573 -17.489  0.00  0.00    +0.080 C 
ATOM      6  C   UNL     1      32.552 -21.612 -18.206  0.00  0.00    +0.045 C 
ATOM      7  C   UNL     1      33.186 -20.830 -19.334  0.00  0.00    -0.002 C 
ATOM      8  C   UNL     1      34.560 -20.578 -19.441  0.00  0.00    +0.119 C 
ATOM      9  C   UNL     1      35.087 -19.808 -20.481  0.00  0.00    +0.039 C 
ATOM     10  C   UNL     1      32.342 -20.265 -20.303  0.00  0.00    -0.002 C 
ATOM     11  C   UNL     1      34.230 -19.267 -21.437  0.00  0.00    +0.124 C 
ATOM     12  C   UNL     1      32.858 -19.495 -21.348  0.00  0.00    +0.020 C 
ATOM     13  H   UNL     1      34.326 -20.979 -16.519  0.00  0.00    +0.149 HD
ENDROOT
BRANCH   5  14
ATOM     14  C   UNL     1      32.842 -23.221 -16.285  0.00  0.00    +0.016 C 
ATOM     15  C   UNL     1      33.474 -22.808 -14.959  0.00  0.00    +0.001 C 
ATOM     16  C   UNL     1      31.388 -22.800 -16.098  0.00  0.00    +0.001 C 
ATOM     17  C   UNL     1      32.420 -23.171 -13.917  0.00  0.00    +0.000 C 
ATOM     18  C   UNL     1      31.079 -23.179 -14.653  0.00  0.00    +0.000 C 
ENDBRANCH   5  14
BRANCH  11  19
ATOM     19  S   UNL     1      34.873 -18.304 -22.742  0.00  0.00    +0.063 S 
ATOM     20  O   UNL     1      36.321 -18.244 -22.600  0.00  0.00    -0.153 OA
ATOM     21  O   UNL     1      34.290 -18.772 -23.992  0.00  0.00    -0.153 OA
BRANCH  19  22
ATOM     22  N   UNL     1      34.216 -16.768 -22.370  0.00  0.00    -0.160 NA
ATOM     23  N   UNL     1      33.869 -13.973 -21.786  0.00  0.00    +0.387 N 
ATOM     24  C   UNL     1      34.600 -16.211 -21.042  0.00  0.00    +0.073 C 
ATOM     25  C   UNL     1      34.333 -15.742 -23.445  0.00  0.00    +0.073 C 
ATOM     26  C   UNL     1      33.736 -14.989 -20.732  0.00  0.00    -0.058 C 
ATOM     27  C   UNL     1      33.475 -14.529 -23.089  0.00  0.00    -0.058 C 
ATOM     28  C   UNL     1      33.067 -12.793 -21.467  0.00  0.00    -0.101 C 
ATOM     29  H   UNL     1      34.848 -13.692 -21.840  0.00  0.00    -0.080 HD
ENDBRANCH  19  22
ENDBRANCH  11  19
TORSDOF 3
ENDMDL
MODEL 5
REMARK VINA RESULT:      -9.9      2.224      2.957
REMARK  Name = 44129630
REMARK  3 active torsions:
REMARK  status: ('A' for Active; 'I' for Inactive)
REMARK    1  A    between atoms: C_5  and  C_14
REMARK    2  A    between atoms: C_11  and  S_19
REMARK    3  A    between atoms: S_19  and  N_22
REMARK                            x       y       z     vdW  Elec       q    Type
REMARK                         _______ _______ _______ _____ _____    ______ ____
ROOT
ATOM      1  S   UNL     1      36.186 -21.435 -17.191  0.00  0.00    +0.060 S 
ATOM      2  O   UNL     1      37.098 -22.537 -16.960  0.00  0.00    -0.153 OA
ATOM      3  O   UNL     1      36.303 -20.187 -16.463  0.00  0.00    -0.153 OA
ATOM      4  N   UNL     1      36.147 -21.108 -18.867  0.00  0.00    -0.180 NA
ATOM      5  C   UNL     1      34.958 -20.369 -19.344  0.00  0.00    +0.080 C 
ATOM      6  C   UNL     1      33.755 -21.309 -19.237  0.00  0.00    +0.045 C 
ATOM      7  C   UNL     1      33.542 -21.897 -17.862  0.00  0.00    -0.002 C 
ATOM      8  C   UNL     1      34.550 -22.026 -16.896  0.00  0.00    +0.119 C 
ATOM      9  C   UNL     1      34.306 -22.623 -15.656  0.00  0.00    +0.039 C 
ATOM     10  C   UNL     1      32.271 -22.406 -17.550  0.00  0.00    -0.002 C 
ATOM     11  C   UNL     1      33.034 -23.110 -15.366  0.00  0.00    +0.124 C 
ATOM     12  C   UNL     1      32.017 -23.002 -16.312  0.00  0.00    +0.020 C 
ATOM     13  H   UNL     1      36.184 -21.999 -19.361  0.00  0.00    +0.149 HD
ENDROOT
BRANCH   5  14
ATOM     14  C   UNL     1      35.196 -19.924 -20.776  0.00  0.00    +0.016 C 
ATOM     15  C   UNL     1      33.952 -19.338 -21.438  0.00  0.00    +0.001 C 
ATOM     16  C   UNL     1      36.197 -18.778 -20.891  0.00  0.00    +0.001 C 
ATOM     17  C   UNL     1      34.499 -18.561 -22.632  0.00  0.00    +0.000 C 
ATOM     18  C   UNL     1      35.948 -18.212 -22.285  0.00  0.00    +0.000 C 
ENDBRANCH   5  14
BRANCH  11  19
ATOM     19  S   UNL     1      32.715 -23.856 -13.821  0.00  0.00    +0.063 S 
ATOM     20  O   UNL     1      32.298 -22.820 -12.887  0.00  0.00    -0.153 OA
ATOM     21  O   UNL     1      31.865 -25.018 -14.036  0.00  0.00    -0.153 OA
BRANCH  19  22
ATOM     22  N   UNL     1      34.282 -24.393 -13.387  0.00  0.00    -0.160 NA
ATOM     23  N   UNL     1      37.127 -24.663 -13.075  0.00  0.00    +0.387 N 
ATOM     24  C   UNL     1      35.133 -24.866 -14.515  0.00  0.00    +0.073 C 
ATOM     25  C   UNL     1      35.040 -23.491 -12.474  0.00  0.00    +0.073 C 
ATOM     26  C   UNL     1      36.375 -25.563 -13.960  0.00  0.00    -0.058 C 
ATOM     27  C   UNL     1      36.283 -24.214 -11.959  0.00  0.00    -0.058 C 
ATOM     28  C   UNL     1      38.333 -25.323 -12.574  0.00  0.00    -0.101 C 
ATOM     29  H   UNL     1      37.411 -23.844 -13.613  0.00  0.00    -0.080 HD
ENDBRANCH  19  22
ENDBRANCH  11  19
TORSDOF 3
ENDMDL
MODEL 6
REMARK VINA RESULT:      -9.6      8.854     14.584
REMARK  Name = 44129630
REMARK  3 active torsions:
REMARK  status: ('A' for Active; 'I' for Inactive)
REMARK    1  A    between atoms: C_5  and  C_14
REMARK    2  A    between atoms: C_11  and  S_19
REMARK    3  A    between atoms: S_19  and  N_22
REMARK                            x       y       z     vdW  Elec       q    Type
REMARK                         _______ _______ _______ _____ _____    ______ ____
ROOT
ATOM      1  S   UNL     1      33.144 -13.796 -20.647  0.00  0.00    +0.060 S 
ATOM      2  O   UNL     1      31.907 -13.938 -19.904  0.00  0.00    -0.153 OA
ATOM      3  O   UNL     1      34.366 -13.348 -20.010  0.00  0.00    -0.153 OA
ATOM      4  N   UNL     1      33.445 -15.258 -21.477  0.00  0.00    -0.180 NA
ATOM      5  C   UNL     1      34.364 -15.157 -22.631  0.00  0.00    +0.080 C 
ATOM      6  C   UNL     1      33.643 -14.379 -23.733  0.00  0.00    +0.045 C 
ATOM      7  C   UNL     1      33.121 -13.027 -23.305  0.00  0.00    -0.002 C 
ATOM      8  C   UNL     1      32.840 -12.676 -21.977  0.00  0.00    +0.119 C 
ATOM      9  C   UNL     1      32.314 -11.426 -21.644  0.00  0.00    +0.039 C 
ATOM     10  C   UNL     1      32.838 -12.081 -24.303  0.00  0.00    -0.002 C 
ATOM     11  C   UNL     1      32.053 -10.500 -22.650  0.00  0.00    +0.124 C 
ATOM     12  C   UNL     1      32.314 -10.827 -23.979  0.00  0.00    +0.020 C 
ATOM     13  H   UNL     1      32.552 -15.616 -21.817  0.00  0.00    +0.149 HD
ENDROOT
BRANCH   5  14
ATOM     14  C   UNL     1      34.740 -16.557 -23.086  0.00  0.00    +0.016 C 
ATOM     15  C   UNL     1      34.824 -17.559 -21.939  0.00  0.00    +0.001 C 
ATOM     16  C   UNL     1      33.695 -17.193 -23.998  0.00  0.00    +0.001 C 
ATOM     17  C   UNL     1      34.745 -18.918 -22.627  0.00  0.00    +0.000 C 
ATOM     18  C   UNL     1      34.030 -18.680 -23.959  0.00  0.00    +0.000 C 
ENDBRANCH   5  14
BRANCH  11  19
ATOM     19  S   UNL     1      31.396  -8.934 -22.249  0.00  0.00    +0.063 S 
ATOM     20  O   UNL     1      29.956  -8.969 -22.466  0.00  0.00    -0.153 OA
ATOM     21  O   UNL     1      31.921  -8.531 -20.952  0.00  0.00    -0.153 OA
BRANCH  19  22
ATOM     22  N   UNL     1      32.113  -7.958 -23.460  0.00  0.00    -0.160 NA
ATOM     23  N   UNL     1      33.210  -5.758 -24.952  0.00  0.00    +0.387 N 
ATOM     24  C   UNL     1      31.224  -6.923 -24.058  0.00  0.00    +0.073 C 
ATOM     25  C   UNL     1      33.453  -7.397 -23.122  0.00  0.00    +0.073 C 
ATOM     26  C   UNL     1      31.898  -6.325 -25.293  0.00  0.00    -0.058 C 
ATOM     27  C   UNL     1      34.082  -6.791 -24.375  0.00  0.00    -0.058 C 
ATOM     28  C   UNL     1      33.834  -5.158 -26.130  0.00  0.00    -0.101 C 
ATOM     29  H   UNL     1      33.073  -5.027 -24.254  0.00  0.00    -0.080 HD
ENDBRANCH  19  22
ENDBRANCH  11  19
TORSDOF 3
ENDMDL
MODEL 7
REMARK VINA RESULT:      -9.4      7.362     12.447
REMARK  Name = 44129630
REMARK  3 active torsions:
REMARK  status: ('A' for Active; 'I' for Inactive)
REMARK    1  A    between atoms: C_5  and  C_14
REMARK    2  A    between atoms: C_11  and  S_19
REMARK    3  A    between atoms: S_19  and  N_22
REMARK                            x       y       z     vdW  Elec       q    Type
REMARK                         _______ _______ _______ _____ _____    ______ ____
ROOT
ATOM      1  S   UNL     1      33.832 -16.472 -24.322  0.00  0.00    +0.060 S 
ATOM      2  O   UNL     1      34.703 -16.099 -25.419  0.00  0.00    -0.153 OA
ATOM      3  O   UNL     1      32.452 -16.856 -24.544  0.00  0.00    -0.153 OA
ATOM      4  N   UNL     1      34.612 -17.681 -23.401  0.00  0.00    -0.180 NA
ATOM      5  C   UNL     1      34.119 -17.843 -22.016  0.00  0.00    +0.080 C 
ATOM      6  C   UNL     1      34.542 -16.604 -21.225  0.00  0.00    +0.045 C 
ATOM      7  C   UNL     1      34.100 -15.293 -21.833  0.00  0.00    -0.002 C 
ATOM      8  C   UNL     1      33.792 -15.119 -23.190  0.00  0.00    +0.119 C 
ATOM      9  C   UNL     1      33.435 -13.871 -23.707  0.00  0.00    +0.039 C 
ATOM     10  C   UNL     1      34.056 -14.161 -21.004  0.00  0.00    -0.002 C 
ATOM     11  C   UNL     1      33.387 -12.765 -22.862  0.00  0.00    +0.124 C 
ATOM     12  C   UNL     1      33.698 -12.909 -21.512  0.00  0.00    +0.020 C 
ATOM     13  H   UNL     1      35.604 -17.451 -23.357  0.00  0.00    +0.149 HD
ENDROOT
BRANCH   5  14
ATOM     14  C   UNL     1      34.710 -19.113 -21.428  0.00  0.00    +0.016 C 
ATOM     15  C   UNL     1      35.956 -18.861 -20.585  0.00  0.00    +0.001 C 
ATOM     16  C   UNL     1      33.780 -19.805 -20.437  0.00  0.00    +0.001 C 
ATOM     17  C   UNL     1      36.100 -20.128 -19.747  0.00  0.00    +0.000 C 
ATOM     18  C   UNL     1      34.701 -20.743 -19.663  0.00  0.00    +0.000 C 
ENDBRANCH   5  14
BRANCH  11  19
ATOM     19  S   UNL     1      32.941 -11.201 -23.494  0.00  0.00    +0.063 S 
ATOM     20  O   UNL     1      34.145 -10.540 -23.979  0.00  0.00    -0.153 OA
ATOM     21  O   UNL     1      31.802 -11.370 -24.386  0.00  0.00    -0.153 OA
BRANCH  19  22
ATOM     22  N   UNL     1      32.412 -10.411 -22.070  0.00  0.00    -0.160 NA
ATOM     23  N   UNL     1      30.852  -9.033 -20.086  0.00  0.00    +0.387 N 
ATOM     24  C   UNL     1      32.092  -8.964 -22.221  0.00  0.00    +0.073 C 
ATOM     25  C   UNL     1      31.357 -11.125 -21.295  0.00  0.00    +0.073 C 
ATOM     26  C   UNL     1      31.905  -8.336 -20.840  0.00  0.00    -0.058 C 
ATOM     27  C   UNL     1      31.185 -10.456 -19.932  0.00  0.00    -0.058 C 
ATOM     28  C   UNL     1      30.655  -8.406 -18.780  0.00  0.00    -0.101 C 
ATOM     29  H   UNL     1      29.980  -8.961 -20.611  0.00  0.00    -0.080 HD
ENDBRANCH  19  22
ENDBRANCH  11  19
TORSDOF 3
ENDMDL
MODEL 8
REMARK VINA RESULT:      -9.4      9.196     13.941
REMARK  Name = 44129630
REMARK  3 active torsions:
REMARK  status: ('A' for Active; 'I' for Inactive)
REMARK    1  A    between atoms: C_5  and  C_14
REMARK    2  A    between atoms: C_11  and  S_19
REMARK    3  A    between atoms: S_19  and  N_22
REMARK                            x       y       z     vdW  Elec       q    Type
REMARK                         _______ _______ _______ _____ _____    ______ ____
ROOT
ATOM      1  S   UNL     1      33.300 -13.243 -24.025  0.00  0.00    +0.060 S 
ATOM      2  O   UNL     1      34.059 -12.143 -24.587  0.00  0.00    -0.153 OA
ATOM      3  O   UNL     1      32.147 -13.797 -24.707  0.00  0.00    -0.153 OA
ATOM      4  N   UNL     1      34.384 -14.503 -23.634  0.00  0.00    -0.180 NA
ATOM      5  C   UNL     1      33.891 -15.481 -22.640  0.00  0.00    +0.080 C 
ATOM      6  C   UNL     1      33.820 -14.773 -21.286  0.00  0.00    +0.045 C 
ATOM      7  C   UNL     1      32.999 -13.504 -21.287  0.00  0.00    -0.002 C 
ATOM      8  C   UNL     1      32.735 -12.738 -22.431  0.00  0.00    +0.119 C 
ATOM      9  C   UNL     1      32.009 -11.546 -22.365  0.00  0.00    +0.039 C 
ATOM     10  C   UNL     1      32.523 -13.023 -20.057  0.00  0.00    -0.002 C 
ATOM     11  C   UNL     1      31.537 -11.096 -21.134  0.00  0.00    +0.124 C 
ATOM     12  C   UNL     1      31.794 -11.834 -19.980  0.00  0.00    +0.020 C 
ATOM     13  H   UNL     1      35.235 -14.081 -23.264  0.00  0.00    +0.149 HD
ENDROOT
BRANCH   5  14
ATOM     14  C   UNL     1      34.839 -16.667 -22.604  0.00  0.00    +0.016 C 
ATOM     15  C   UNL     1      35.177 -17.123 -21.188  0.00  0.00    +0.001 C 
ATOM     16  C   UNL     1      34.245 -17.930 -23.220  0.00  0.00    +0.001 C 
ATOM     17  C   UNL     1      35.723 -18.536 -21.373  0.00  0.00    +0.000 C 
ATOM     18  C   UNL     1      35.133 -19.050 -22.688  0.00  0.00    +0.000 C 
ENDBRANCH   5  14
BRANCH  11  19
ATOM     19  S   UNL     1      30.628  -9.610 -21.036  0.00  0.00    +0.063 S 
ATOM     20  O   UNL     1      29.435  -9.745 -21.861  0.00  0.00    -0.153 OA
ATOM     21  O   UNL     1      30.498  -9.240 -19.634  0.00  0.00    -0.153 OA
BRANCH  19  22
ATOM     22  N   UNL     1      31.705  -8.517 -21.796  0.00  0.00    -0.160 NA
ATOM     23  N   UNL     1      32.903  -6.191 -22.989  0.00  0.00    +0.387 N 
ATOM     24  C   UNL     1      31.304  -8.065 -23.158  0.00  0.00    +0.073 C 
ATOM     25  C   UNL     1      32.159  -7.374 -20.954  0.00  0.00    +0.073 C 
ATOM     26  C   UNL     1      32.471  -7.328 -23.814  0.00  0.00    -0.058 C 
ATOM     27  C   UNL     1      33.308  -6.650 -21.653  0.00  0.00    -0.058 C 
ATOM     28  C   UNL     1      33.997  -5.470 -23.639  0.00  0.00    -0.101 C 
ATOM     29  H   UNL     1      32.115  -5.552 -22.884  0.00  0.00    -0.080 HD
ENDBRANCH  19  22
ENDBRANCH  11  19
TORSDOF 3
ENDMDL
MODEL 9
REMARK VINA RESULT:      -9.3     11.217     16.840
REMARK  Name = 44129630
REMARK  3 active torsions:
REMARK  status: ('A' for Active; 'I' for Inactive)
REMARK    1  A    between atoms: C_5  and  C_14
REMARK    2  A    between atoms: C_11  and  S_19
REMARK    3  A    between atoms: S_19  and  N_22
REMARK                            x       y       z     vdW  Elec       q    Type
REMARK                         _______ _______ _______ _____ _____    ______ ____
ROOT
ATOM      1  S   UNL     1      30.931 -10.756 -21.209  0.00  0.00    +0.060 S 
ATOM      2  O   UNL     1      29.558 -10.551 -21.627  0.00  0.00    -0.153 OA
ATOM      3  O   UNL     1      31.353 -10.513 -19.844  0.00  0.00    -0.153 OA
ATOM      4  N   UNL     1      31.409 -12.327 -21.676  0.00  0.00    -0.180 NA
ATOM      5  C   UNL     1      32.868 -12.547 -21.770  0.00  0.00    +0.080 C 
ATOM      6  C   UNL     1      33.380 -11.754 -22.974  0.00  0.00    +0.045 C 
ATOM      7  C   UNL     1      33.029 -10.284 -22.950  0.00  0.00    -0.002 C 
ATOM      8  C   UNL     1      31.954  -9.744 -22.230  0.00  0.00    +0.119 C 
ATOM      9  C   UNL     1      31.647  -8.382 -22.282  0.00  0.00    +0.039 C 
ATOM     10  C   UNL     1      33.785  -9.410 -23.748  0.00  0.00    -0.002 C 
ATOM     11  C   UNL     1      32.419  -7.533 -23.072  0.00  0.00    +0.124 C 
ATOM     12  C   UNL     1      33.487  -8.047 -23.805  0.00  0.00    +0.020 C 
ATOM     13  H   UNL     1      31.001 -12.521 -22.590  0.00  0.00    +0.149 HD
ENDROOT
BRANCH   5  14
ATOM     14  C   UNL     1      33.134 -14.034 -21.924  0.00  0.00    +0.016 C 
ATOM     15  C   UNL     1      34.069 -14.361 -23.085  0.00  0.00    +0.001 C 
ATOM     16  C   UNL     1      33.870 -14.640 -20.733  0.00  0.00    +0.001 C 
ATOM     17  C   UNL     1      34.555 -15.775 -22.783  0.00  0.00    +0.000 C 
ATOM     18  C   UNL     1      34.415 -15.959 -21.271  0.00  0.00    +0.000 C 
ENDBRANCH   5  14
BRANCH  11  19
ATOM     19  S   UNL     1      32.048  -5.829 -23.146  0.00  0.00    +0.063 S 
ATOM     20  O   UNL     1      30.602  -5.677 -23.232  0.00  0.00    -0.153 OA
ATOM     21  O   UNL     1      32.784  -5.150 -22.089  0.00  0.00    -0.153 OA
BRANCH  19  22
ATOM     22  N   UNL     1      32.739  -5.409 -24.655  0.00  0.00    -0.160 NA
ATOM     23  N   UNL     1      33.285  -4.212 -27.212  0.00  0.00    +0.387 N 
ATOM     24  C   UNL     1      31.926  -5.762 -25.853  0.00  0.00    +0.073 C 
ATOM     25  C   UNL     1      33.277  -4.022 -24.751  0.00  0.00    +0.073 C 
ATOM     26  C   UNL     1      32.772  -5.586 -27.113  0.00  0.00    -0.058 C 
ATOM     27  C   UNL     1      34.096  -3.880 -26.032  0.00  0.00    -0.058 C 
ATOM     28  C   UNL     1      34.065  -4.040 -28.437  0.00  0.00    -0.101 C 
ATOM     29  H   UNL     1      32.490  -3.573 -27.245  0.00  0.00    -0.080 HD
ENDBRANCH  19  22
ENDBRANCH  11  19
TORSDOF 3
ENDMDL
