MODEL 1
REMARK VINA RESULT:     -10.8      0.000      0.000
REMARK  Name = 8593
REMARK  3 active torsions:
REMARK  status: ('A' for Active; 'I' for Inactive)
REMARK    1  A    between atoms: C_4  and  C_11
REMARK    2  A    between atoms: C_5  and  C_18
REMARK    3  A    between atoms: C_18  and  O_19
REMARK                            x       y       z     vdW  Elec       q    Type
REMARK                         _______ _______ _______ _____ _____    ______ ____
ROOT
ATOM      1  N   UNL     1      34.368 -16.569 -20.579  0.00  0.00    -0.406 NA
ATOM      2  C   UNL     1      33.939 -15.236 -22.540  0.00  0.00    +0.032 C 
ATOM      3  C   UNL     1      34.126 -15.373 -21.149  0.00  0.00    +0.113 C 
ATOM      4  C   UNL     1      34.430 -17.658 -21.380  0.00  0.00    +0.131 C 
ATOM      5  C   UNL     1      34.012 -16.389 -23.333  0.00  0.00    +0.080 C 
ATOM      6  C   UNL     1      34.262 -17.623 -22.749  0.00  0.00    +0.039 C 
ATOM      7  C   UNL     1      33.688 -13.972 -23.101  0.00  0.00    +0.002 C 
ATOM      8  C   UNL     1      34.054 -14.227 -20.362  0.00  0.00    +0.085 C 
ATOM      9  C   UNL     1      33.622 -12.843 -22.291  0.00  0.00    -0.004 C 
ATOM     10  C   UNL     1      33.804 -12.971 -20.920  0.00  0.00    -0.019 C 
ENDROOT
BRANCH   4  11
ATOM     11  C   UNL     1      34.693 -18.901 -20.694  0.00  0.00    +0.030 C 
ATOM     12  C   UNL     1      35.999 -19.240 -20.334  0.00  0.00    +0.003 C 
ATOM     13  C   UNL     1      33.641 -19.768 -20.387  0.00  0.00    +0.003 C 
ATOM     14  C   UNL     1      36.252 -20.441 -19.671  0.00  0.00    +0.000 C 
ATOM     15  C   UNL     1      33.895 -20.968 -19.723  0.00  0.00    +0.000 C 
ATOM     16  C   UNL     1      35.201 -21.305 -19.366  0.00  0.00    +0.000 C 
ENDBRANCH   4  11
BRANCH   5  18
ATOM     17  O   UNL     1      34.442 -15.620 -25.558  0.00  0.00    -0.245 OA
ATOM     18  C   UNL     1      33.835 -16.361 -24.783  0.00  0.00    +0.338 C 
BRANCH  18  19
ATOM     19  O   UNL     1      32.909 -17.261 -25.205  0.00  0.00    -0.477 OA
ATOM     20  H   UNL     1      33.017 -18.172 -25.011  0.00  0.00    +0.295 HD
ENDBRANCH  18  19
ENDBRANCH   5  18
TORSDOF 3
ENDMDL
MODEL 2
REMARK VINA RESULT:     -10.8      0.037      1.109
REMARK  Name = 8593
REMARK  3 active torsions:
REMARK  status: ('A' for Active; 'I' for Inactive)
REMARK    1  A    between atoms: C_4  and  C_11
REMARK    2  A    between atoms: C_5  and  C_18
REMARK    3  A    between atoms: C_18  and  O_19
REMARK                            x       y       z     vdW  Elec       q    Type
REMARK                         _______ _______ _______ _____ _____    ______ ____
ROOT
ATOM      1  N   UNL     1      34.364 -16.552 -20.577  0.00  0.00    -0.406 NA
ATOM      2  C   UNL     1      33.943 -15.211 -22.535  0.00  0.00    +0.032 C 
ATOM      3  C   UNL     1      34.121 -15.354 -21.143  0.00  0.00    +0.113 C 
ATOM      4  C   UNL     1      34.434 -17.637 -21.383  0.00  0.00    +0.131 C 
ATOM      5  C   UNL     1      34.023 -16.360 -23.333  0.00  0.00    +0.080 C 
ATOM      6  C   UNL     1      34.273 -17.596 -22.753  0.00  0.00    +0.039 C 
ATOM      7  C   UNL     1      33.691 -13.945 -23.091  0.00  0.00    +0.002 C 
ATOM      8  C   UNL     1      34.042 -14.211 -20.352  0.00  0.00    +0.085 C 
ATOM      9  C   UNL     1      33.617 -12.819 -22.276  0.00  0.00    -0.004 C 
ATOM     10  C   UNL     1      33.791 -12.954 -20.905  0.00  0.00    -0.019 C 
ENDROOT
BRANCH   4  11
ATOM     11  C   UNL     1      34.696 -18.882 -20.701  0.00  0.00    +0.030 C 
ATOM     12  C   UNL     1      33.642 -19.734 -20.367  0.00  0.00    +0.003 C 
ATOM     13  C   UNL     1      36.007 -19.239 -20.373  0.00  0.00    +0.003 C 
ATOM     14  C   UNL     1      33.895 -20.937 -19.708  0.00  0.00    +0.000 C 
ATOM     15  C   UNL     1      36.260 -20.442 -19.714  0.00  0.00    +0.000 C 
ATOM     16  C   UNL     1      35.204 -21.291 -19.381  0.00  0.00    +0.000 C 
ENDBRANCH   4  11
BRANCH   5  18
ATOM     17  O   UNL     1      34.502 -15.618 -25.557  0.00  0.00    -0.245 OA
ATOM     18  C   UNL     1      33.855 -16.326 -24.783  0.00  0.00    +0.338 C 
BRANCH  18  19
ATOM     19  O   UNL     1      32.887 -17.179 -25.208  0.00  0.00    -0.477 OA
ATOM     20  H   UNL     1      32.195 -17.431 -24.628  0.00  0.00    +0.295 HD
ENDBRANCH  18  19
ENDBRANCH   5  18
TORSDOF 3
ENDMDL
MODEL 3
REMARK VINA RESULT:     -10.7      4.521      7.711
REMARK  Name = 8593
REMARK  3 active torsions:
REMARK  status: ('A' for Active; 'I' for Inactive)
REMARK    1  A    between atoms: C_4  and  C_11
REMARK    2  A    between atoms: C_5  and  C_18
REMARK    3  A    between atoms: C_18  and  O_19
REMARK                            x       y       z     vdW  Elec       q    Type
REMARK                         _______ _______ _______ _____ _____    ______ ____
ROOT
ATOM      1  N   UNL     1      36.168 -20.490 -18.507  0.00  0.00    -0.406 NA
ATOM      2  C   UNL     1      35.037 -22.066 -17.077  0.00  0.00    +0.032 C 
ATOM      3  C   UNL     1      36.149 -21.261 -17.404  0.00  0.00    +0.113 C 
ATOM      4  C   UNL     1      35.082 -20.500 -19.314  0.00  0.00    +0.131 C 
ATOM      5  C   UNL     1      33.933 -22.048 -17.940  0.00  0.00    +0.080 C 
ATOM      6  C   UNL     1      33.950 -21.254 -19.078  0.00  0.00    +0.039 C 
ATOM      7  C   UNL     1      35.051 -22.859 -15.917  0.00  0.00    +0.002 C 
ATOM      8  C   UNL     1      37.245 -21.280 -16.545  0.00  0.00    +0.085 C 
ATOM      9  C   UNL     1      36.161 -22.858 -15.077  0.00  0.00    -0.004 C 
ATOM     10  C   UNL     1      37.259 -22.068 -15.393  0.00  0.00    -0.019 C 
ENDROOT
BRANCH   4  11
ATOM     11  C   UNL     1      35.181 -19.649 -20.475  0.00  0.00    +0.030 C 
ATOM     12  C   UNL     1      34.106 -19.542 -21.360  0.00  0.00    +0.003 C 
ATOM     13  C   UNL     1      36.352 -18.926 -20.716  0.00  0.00    +0.003 C 
ATOM     14  C   UNL     1      34.202 -18.719 -22.483  0.00  0.00    +0.000 C 
ATOM     15  C   UNL     1      36.448 -18.102 -21.838  0.00  0.00    +0.000 C 
ATOM     16  C   UNL     1      35.373 -17.999 -22.721  0.00  0.00    +0.000 C 
ENDBRANCH   4  11
BRANCH   5  18
ATOM     17  O   UNL     1      31.737 -22.454 -17.080  0.00  0.00    -0.245 OA
ATOM     18  C   UNL     1      32.731 -22.840 -17.698  0.00  0.00    +0.338 C 
BRANCH  18  19
ATOM     19  O   UNL     1      32.817 -24.084 -18.239  0.00  0.00    -0.477 OA
ATOM     20  H   UNL     1      32.071 -24.466 -18.659  0.00  0.00    +0.295 HD
ENDBRANCH  18  19
ENDBRANCH   5  18
TORSDOF 3
ENDMDL
MODEL 4
REMARK VINA RESULT:     -10.3      6.127      8.813
REMARK  Name = 8593
REMARK  3 active torsions:
REMARK  status: ('A' for Active; 'I' for Inactive)
REMARK    1  A    between atoms: C_4  and  C_11
REMARK    2  A    between atoms: C_5  and  C_18
REMARK    3  A    between atoms: C_18  and  O_19
REMARK                            x       y       z     vdW  Elec       q    Type
REMARK                         _______ _______ _______ _____ _____    ______ ____
ROOT
ATOM      1  N   UNL     1      31.942 -22.152 -17.640  0.00  0.00    -0.406 NA
ATOM      2  C   UNL     1      34.337 -21.879 -17.644  0.00  0.00    +0.032 C 
ATOM      3  C   UNL     1      33.068 -21.718 -18.239  0.00  0.00    +0.113 C 
ATOM      4  C   UNL     1      32.051 -22.758 -16.435  0.00  0.00    +0.131 C 
ATOM      5  C   UNL     1      34.405 -22.513 -16.396  0.00  0.00    +0.080 C 
ATOM      6  C   UNL     1      33.247 -22.961 -15.776  0.00  0.00    +0.039 C 
ATOM      7  C   UNL     1      35.491 -21.413 -18.297  0.00  0.00    +0.002 C 
ATOM      8  C   UNL     1      33.001 -21.088 -19.478  0.00  0.00    +0.085 C 
ATOM      9  C   UNL     1      35.395 -20.788 -19.536  0.00  0.00    -0.004 C 
ATOM     10  C   UNL     1      34.148 -20.626 -20.127  0.00  0.00    -0.019 C 
ENDROOT
BRANCH   4  11
ATOM     11  C   UNL     1      30.801 -23.194 -15.861  0.00  0.00    +0.030 C 
ATOM     12  C   UNL     1      29.597 -22.641 -16.300  0.00  0.00    +0.003 C 
ATOM     13  C   UNL     1      30.792 -24.173 -14.864  0.00  0.00    +0.003 C 
ATOM     14  C   UNL     1      28.389 -23.063 -15.745  0.00  0.00    +0.000 C 
ATOM     15  C   UNL     1      29.583 -24.595 -14.309  0.00  0.00    +0.000 C 
ATOM     16  C   UNL     1      28.382 -24.039 -14.750  0.00  0.00    +0.000 C 
ENDBRANCH   4  11
BRANCH   5  18
ATOM     17  O   UNL     1      36.404 -21.842 -15.265  0.00  0.00    -0.245 OA
ATOM     18  C   UNL     1      35.665 -22.731 -15.691  0.00  0.00    +0.338 C 
BRANCH  18  19
ATOM     19  O   UNL     1      35.951 -24.051 -15.544  0.00  0.00    -0.477 OA
ATOM     20  H   UNL     1      35.777 -24.649 -16.245  0.00  0.00    +0.295 HD
ENDBRANCH  18  19
ENDBRANCH   5  18
TORSDOF 3
ENDMDL
MODEL 5
REMARK VINA RESULT:     -10.3      2.632      6.732
REMARK  Name = 8593
REMARK  3 active torsions:
REMARK  status: ('A' for Active; 'I' for Inactive)
REMARK    1  A    between atoms: C_4  and  C_11
REMARK    2  A    between atoms: C_5  and  C_18
REMARK    3  A    between atoms: C_18  and  O_19
REMARK                            x       y       z     vdW  Elec       q    Type
REMARK                         _______ _______ _______ _____ _____    ______ ____
ROOT
ATOM      1  N   UNL     1      33.039 -13.302 -21.126  0.00  0.00    -0.406 NA
ATOM      2  C   UNL     1      33.588 -14.719 -22.996  0.00  0.00    +0.032 C 
ATOM      3  C   UNL     1      33.576 -14.436 -21.614  0.00  0.00    +0.113 C 
ATOM      4  C   UNL     1      32.502 -12.420 -22.000  0.00  0.00    +0.131 C 
ATOM      5  C   UNL     1      33.021 -13.779 -23.867  0.00  0.00    +0.080 C 
ATOM      6  C   UNL     1      32.468 -12.609 -23.367  0.00  0.00    +0.039 C 
ATOM      7  C   UNL     1      34.156 -15.913 -23.472  0.00  0.00    +0.002 C 
ATOM      8  C   UNL     1      34.138 -15.372 -20.750  0.00  0.00    +0.085 C 
ATOM      9  C   UNL     1      34.712 -16.830 -22.585  0.00  0.00    -0.004 C 
ATOM     10  C   UNL     1      34.703 -16.558 -21.223  0.00  0.00    -0.019 C 
ENDROOT
BRANCH   4  11
ATOM     11  C   UNL     1      31.949 -11.231 -21.398  0.00  0.00    +0.030 C 
ATOM     12  C   UNL     1      31.753 -11.170 -20.017  0.00  0.00    +0.003 C 
ATOM     13  C   UNL     1      31.608 -10.135 -22.196  0.00  0.00    +0.003 C 
ATOM     14  C   UNL     1      31.218 -10.020 -19.435  0.00  0.00    +0.000 C 
ATOM     15  C   UNL     1      31.074  -8.985 -21.614  0.00  0.00    +0.000 C 
ATOM     16  C   UNL     1      30.879  -8.929 -20.233  0.00  0.00    +0.000 C 
ENDBRANCH   4  11
BRANCH   5  18
ATOM     17  O   UNL     1      33.127 -15.048 -25.893  0.00  0.00    -0.245 OA
ATOM     18  C   UNL     1      32.979 -13.970 -25.314  0.00  0.00    +0.338 C 
BRANCH  18  19
ATOM     19  O   UNL     1      32.753 -12.808 -25.981  0.00  0.00    -0.477 OA
ATOM     20  H   UNL     1      32.153 -12.789 -26.701  0.00  0.00    +0.295 HD
ENDBRANCH  18  19
ENDBRANCH   5  18
TORSDOF 3
ENDMDL
MODEL 6
REMARK VINA RESULT:     -10.3      6.460      9.927
REMARK  Name = 8593
REMARK  3 active torsions:
REMARK  status: ('A' for Active; 'I' for Inactive)
REMARK    1  A    between atoms: C_4  and  C_11
REMARK    2  A    between atoms: C_5  and  C_18
REMARK    3  A    between atoms: C_18  and  O_19
REMARK                            x       y       z     vdW  Elec       q    Type
REMARK                         _______ _______ _______ _____ _____    ______ ____
ROOT
ATOM      1  N   UNL     1      31.726 -22.451 -16.909  0.00  0.00    -0.406 NA
ATOM      2  C   UNL     1      32.112 -23.667 -14.864  0.00  0.00    +0.032 C 
ATOM      3  C   UNL     1      31.252 -23.108 -15.833  0.00  0.00    +0.113 C 
ATOM      4  C   UNL     1      33.067 -22.332 -17.047  0.00  0.00    +0.131 C 
ATOM      5  C   UNL     1      33.494 -23.521 -15.045  0.00  0.00    +0.080 C 
ATOM      6  C   UNL     1      33.985 -22.844 -16.153  0.00  0.00    +0.039 C 
ATOM      7  C   UNL     1      31.583 -24.347 -13.754  0.00  0.00    +0.002 C 
ATOM      8  C   UNL     1      29.880 -23.255 -15.653  0.00  0.00    +0.085 C 
ATOM      9  C   UNL     1      30.206 -24.478 -13.599  0.00  0.00    -0.004 C 
ATOM     10  C   UNL     1      29.354 -23.930 -14.549  0.00  0.00    -0.019 C 
ENDROOT
BRANCH   4  11
ATOM     11  C   UNL     1      33.494 -21.615 -18.224  0.00  0.00    +0.030 C 
ATOM     12  C   UNL     1      32.552 -20.994 -19.047  0.00  0.00    +0.003 C 
ATOM     13  C   UNL     1      34.852 -21.538 -18.544  0.00  0.00    +0.003 C 
ATOM     14  C   UNL     1      32.965 -20.301 -20.185  0.00  0.00    +0.000 C 
ATOM     15  C   UNL     1      35.265 -20.844 -19.682  0.00  0.00    +0.000 C 
ATOM     16  C   UNL     1      34.320 -20.226 -20.502  0.00  0.00    +0.000 C 
ENDBRANCH   4  11
BRANCH   5  18
ATOM     17  O   UNL     1      34.880 -23.484 -13.095  0.00  0.00    -0.245 OA
ATOM     18  C   UNL     1      34.473 -24.060 -14.105  0.00  0.00    +0.338 C 
BRANCH  18  19
ATOM     19  O   UNL     1      34.902 -25.299 -14.463  0.00  0.00    -0.477 OA
ATOM     20  H   UNL     1      35.299 -25.860 -13.826  0.00  0.00    +0.295 HD
ENDBRANCH  18  19
ENDBRANCH   5  18
TORSDOF 3
ENDMDL
MODEL 7
REMARK VINA RESULT:     -10.1      6.771     10.371
REMARK  Name = 8593
REMARK  3 active torsions:
REMARK  status: ('A' for Active; 'I' for Inactive)
REMARK    1  A    between atoms: C_4  and  C_11
REMARK    2  A    between atoms: C_5  and  C_18
REMARK    3  A    between atoms: C_18  and  O_19
REMARK                            x       y       z     vdW  Elec       q    Type
REMARK                         _______ _______ _______ _____ _____    ______ ____
ROOT
ATOM      1  N   UNL     1      35.891 -22.833 -15.951  0.00  0.00    -0.406 NA
ATOM      2  C   UNL     1      35.050 -23.751 -13.888  0.00  0.00    +0.032 C 
ATOM      3  C   UNL     1      36.108 -23.432 -14.765  0.00  0.00    +0.113 C 
ATOM      4  C   UNL     1      34.616 -22.539 -16.296  0.00  0.00    +0.131 C 
ATOM      5  C   UNL     1      33.744 -23.429 -14.283  0.00  0.00    +0.080 C 
ATOM      6  C   UNL     1      33.518 -22.813 -15.506  0.00  0.00    +0.039 C 
ATOM      7  C   UNL     1      35.313 -24.376 -12.657  0.00  0.00    +0.002 C 
ATOM      8  C   UNL     1      37.404 -23.751 -14.370  0.00  0.00    +0.085 C 
ATOM      9  C   UNL     1      36.618 -24.685 -12.288  0.00  0.00    -0.004 C 
ATOM     10  C   UNL     1      37.665 -24.373 -13.147  0.00  0.00    -0.019 C 
ENDROOT
BRANCH   4  11
ATOM     11  C   UNL     1      34.468 -21.900 -17.581  0.00  0.00    +0.030 C 
ATOM     12  C   UNL     1      35.578 -21.345 -18.220  0.00  0.00    +0.003 C 
ATOM     13  C   UNL     1      33.212 -21.834 -18.191  0.00  0.00    +0.003 C 
ATOM     14  C   UNL     1      35.435 -20.727 -19.463  0.00  0.00    +0.000 C 
ATOM     15  C   UNL     1      33.069 -21.217 -19.434  0.00  0.00    +0.000 C 
ATOM     16  C   UNL     1      34.181 -20.663 -20.069  0.00  0.00    +0.000 C 
ENDBRANCH   4  11
BRANCH   5  18
ATOM     17  O   UNL     1      31.878 -24.726 -13.535  0.00  0.00    -0.245 OA
ATOM     18  C   UNL     1      32.577 -23.715 -13.454  0.00  0.00    +0.338 C 
BRANCH  18  19
ATOM     19  O   UNL     1      32.332 -22.726 -12.554  0.00  0.00    -0.477 OA
ATOM     20  H   UNL     1      32.864 -21.955 -12.548  0.00  0.00    +0.295 HD
ENDBRANCH  18  19
ENDBRANCH   5  18
TORSDOF 3
ENDMDL
MODEL 8
REMARK VINA RESULT:      -9.7      5.923      9.349
REMARK  Name = 8593
REMARK  3 active torsions:
REMARK  status: ('A' for Active; 'I' for Inactive)
REMARK    1  A    between atoms: C_4  and  C_11
REMARK    2  A    between atoms: C_5  and  C_18
REMARK    3  A    between atoms: C_18  and  O_19
REMARK                            x       y       z     vdW  Elec       q    Type
REMARK                         _______ _______ _______ _____ _____    ______ ____
ROOT
ATOM      1  N   UNL     1      32.896 -22.216 -17.063  0.00  0.00    -0.406 NA
ATOM      2  C   UNL     1      33.860 -23.296 -15.137  0.00  0.00    +0.032 C 
ATOM      3  C   UNL     1      32.751 -22.902 -15.914  0.00  0.00    +0.113 C 
ATOM      4  C   UNL     1      34.150 -21.904 -17.468  0.00  0.00    +0.131 C 
ATOM      5  C   UNL     1      35.140 -22.953 -15.592  0.00  0.00    +0.080 C 
ATOM      6  C   UNL     1      35.294 -22.246 -16.776  0.00  0.00    +0.039 C 
ATOM      7  C   UNL     1      33.671 -24.011 -13.942  0.00  0.00    +0.002 C 
ATOM      8  C   UNL     1      31.480 -23.244 -15.461  0.00  0.00    +0.085 C 
ATOM      9  C   UNL     1      32.389 -24.339 -13.513  0.00  0.00    -0.004 C 
ATOM     10  C   UNL     1      31.292 -23.954 -14.273  0.00  0.00    -0.019 C 
ENDROOT
BRANCH   4  11
ATOM     11  C   UNL     1      34.221 -21.169 -18.708  0.00  0.00    +0.030 C 
ATOM     12  C   UNL     1      35.461 -20.866 -19.273  0.00  0.00    +0.003 C 
ATOM     13  C   UNL     1      33.048 -20.758 -19.347  0.00  0.00    +0.003 C 
ATOM     14  C   UNL     1      35.529 -20.155 -20.472  0.00  0.00    +0.000 C 
ATOM     15  C   UNL     1      33.117 -20.048 -20.546  0.00  0.00    +0.000 C 
ATOM     16  C   UNL     1      34.358 -19.746 -21.108  0.00  0.00    +0.000 C 
ENDBRANCH   4  11
BRANCH   5  18
ATOM     17  O   UNL     1      36.902 -22.616 -14.007  0.00  0.00    -0.245 OA
ATOM     18  C   UNL     1      36.356 -23.310 -14.867  0.00  0.00    +0.338 C 
BRANCH  18  19
ATOM     19  O   UNL     1      36.841 -24.523 -15.242  0.00  0.00    -0.477 OA
ATOM     20  H   UNL     1      37.719 -24.766 -15.022  0.00  0.00    +0.295 HD
ENDBRANCH  18  19
ENDBRANCH   5  18
TORSDOF 3
ENDMDL
MODEL 9
REMARK VINA RESULT:      -9.6      9.616     12.256
REMARK  Name = 8593
REMARK  3 active torsions:
REMARK  status: ('A' for Active; 'I' for Inactive)
REMARK    1  A    between atoms: C_4  and  C_11
REMARK    2  A    between atoms: C_5  and  C_18
REMARK    3  A    between atoms: C_18  and  O_19
REMARK                            x       y       z     vdW  Elec       q    Type
REMARK                         _______ _______ _______ _____ _____    ______ ____
ROOT
ATOM      1  N   UNL     1      35.170 -24.091 -14.760  0.00  0.00    -0.406 NA
ATOM      2  C   UNL     1      36.478 -24.457 -12.770  0.00  0.00    +0.032 C 
ATOM      3  C   UNL     1      36.310 -24.496 -14.170  0.00  0.00    +0.113 C 
ATOM      4  C   UNL     1      34.168 -23.637 -13.972  0.00  0.00    +0.131 C 
ATOM      5  C   UNL     1      35.416 -23.980 -11.990  0.00  0.00    +0.080 C 
ATOM      6  C   UNL     1      34.239 -23.562 -12.596  0.00  0.00    +0.039 C 
ATOM      7  C   UNL     1      37.683 -24.888 -12.187  0.00  0.00    +0.002 C 
ATOM      8  C   UNL     1      37.367 -24.969 -14.943  0.00  0.00    +0.085 C 
ATOM      9  C   UNL     1      38.722 -25.356 -12.985  0.00  0.00    -0.004 C 
ATOM     10  C   UNL     1      38.563 -25.398 -14.364  0.00  0.00    -0.019 C 
ENDROOT
BRANCH   4  11
ATOM     11  C   UNL     1      32.980 -23.223 -14.680  0.00  0.00    +0.030 C 
ATOM     12  C   UNL     1      33.020 -23.029 -16.062  0.00  0.00    +0.003 C 
ATOM     13  C   UNL     1      31.786 -23.015 -13.984  0.00  0.00    +0.003 C 
ATOM     14  C   UNL     1      31.872 -22.628 -16.746  0.00  0.00    +0.000 C 
ATOM     15  C   UNL     1      30.638 -22.615 -14.669  0.00  0.00    +0.000 C 
ATOM     16  C   UNL     1      30.682 -22.421 -16.050  0.00  0.00    +0.000 C 
ENDBRANCH   4  11
BRANCH   5  18
ATOM     17  O   UNL     1      34.956 -24.688  -9.752  0.00  0.00    -0.245 OA
ATOM     18  C   UNL     1      35.483 -23.896 -10.534  0.00  0.00    +0.338 C 
BRANCH  18  19
ATOM     19  O   UNL     1      36.208 -22.826 -10.114  0.00  0.00    -0.477 OA
ATOM     20  H   UNL     1      35.987 -21.964 -10.408  0.00  0.00    +0.295 HD
ENDBRANCH  18  19
ENDBRANCH   5  18
TORSDOF 3
ENDMDL
