MODEL 1
REMARK VINA RESULT:     -10.7      0.000      0.000
REMARK  Name = 11509180
REMARK  11 active torsions:
REMARK  status: ('A' for Active; 'I' for Inactive)
REMARK    1  A    between atoms: N_2  and  C_7
REMARK    2  A    between atoms: N_2  and  O_19
REMARK    3  A    between atoms: C_3  and  O_15
REMARK    4  A    between atoms: C_4  and  O_17
REMARK    5  A    between atoms: C_5  and  N_9
REMARK    6  A    between atoms: C_6  and  C_30
REMARK    7  A    between atoms: C_10  and  C_12
REMARK    8  A    between atoms: C_12  and  C_13
REMARK    9  A    between atoms: O_19  and  C_22
REMARK   10  A    between atoms: N_21  and  C_24
REMARK   11  A    between atoms: C_30  and  O_31
REMARK                            x       y       z     vdW  Elec       q    Type
REMARK                         _______ _______ _______ _____ _____    ______ ____
ROOT
ATOM      1  O   UNL     1      36.869 -22.959 -13.275  0.00  0.00    -0.333 OA
ATOM      2  C   UNL     1      35.897 -25.352 -14.617  0.00  0.00    +0.161 C 
ATOM      3  C   UNL     1      36.767 -25.374 -13.359  0.00  0.00    +0.169 C 
ATOM      4  C   UNL     1      35.650 -23.946 -15.165  0.00  0.00    +0.149 C 
ATOM      5  C   UNL     1      36.501 -24.130 -12.516  0.00  0.00    +0.175 C 
ATOM      6  C   UNL     1      36.533 -22.881 -14.576  0.00  0.00    +0.251 C 
ENDROOT
BRANCH   4   8
ATOM      7  O   UNL     1      33.615 -23.361 -17.104  0.00  0.00    -0.275 OA
ATOM      8  N   UNL     1      34.308 -23.489 -14.893  0.00  0.00    -0.300 N 
ATOM      9  C   UNL     1      33.393 -23.233 -15.903  0.00  0.00    +0.223 C 
ATOM     10  H   UNL     1      34.031 -23.356 -13.957  0.00  0.00    +0.150 HD
BRANCH   9  11
ATOM     11  C   UNL     1      32.058 -22.770 -15.346  0.00  0.00    +0.085 C 
BRANCH  11  12
ATOM     12  C   UNL     1      31.046 -22.459 -16.444  0.00  0.00    +0.010 C 
ATOM     13  C   UNL     1      29.624 -22.748 -15.990  0.00  0.00    +0.001 C 
ENDBRANCH  11  12
ENDBRANCH   9  11
ENDBRANCH   4   8
BRANCH   2  14
ATOM     14  O   UNL     1      36.561 -26.139 -15.611  0.00  0.00    -0.380 OA
ATOM     15  H   UNL     1      37.479 -25.838 -15.702  0.00  0.00    +0.211 HD
ENDBRANCH   2  14
BRANCH   3  16
ATOM     16  O   UNL     1      36.468 -26.564 -12.635  0.00  0.00    -0.379 OA
ATOM     17  H   UNL     1      36.475 -26.374 -11.684  0.00  0.00    +0.211 HD
ENDBRANCH   3  16
BRANCH   6  18
ATOM     18  N   UNL     1      36.944 -21.882 -15.282  0.00  0.00    +0.008 NA
BRANCH  18  19
ATOM     19  O   UNL     1      36.893 -22.245 -16.634  0.00  0.00    -0.330 OA
BRANCH  19  22
ATOM     20  O   UNL     1      36.857 -20.020 -17.190  0.00  0.00    -0.224 OA
ATOM     21  N   UNL     1      35.561 -21.611 -18.312  0.00  0.00    -0.249 N 
ATOM     22  C   UNL     1      36.469 -21.169 -17.370  0.00  0.00    +0.425 C 
ATOM     23  H   UNL     1      35.370 -22.578 -18.307  0.00  0.00    +0.158 HD
BRANCH  21  24
ATOM     24  C   UNL     1      34.871 -20.850 -19.283  0.00  0.00    +0.053 C 
ATOM     25  C   UNL     1      35.582 -20.054 -20.181  0.00  0.00    +0.015 C 
ATOM     26  C   UNL     1      33.478 -20.897 -19.344  0.00  0.00    +0.015 C 
ATOM     27  C   UNL     1      34.901 -19.304 -21.139  0.00  0.00    +0.001 C 
ATOM     28  C   UNL     1      32.797 -20.146 -20.303  0.00  0.00    +0.001 C 
ATOM     29  C   UNL     1      33.508 -19.350 -21.200  0.00  0.00    +0.000 C 
ENDBRANCH  21  24
ENDBRANCH  19  22
ENDBRANCH  18  19
ENDBRANCH   6  18
BRANCH   5  30
ATOM     30  C   UNL     1      37.321 -24.101 -11.231  0.00  0.00    +0.169 C 
BRANCH  30  31
ATOM     31  O   UNL     1      36.442 -23.899 -10.138  0.00  0.00    -0.379 OA
ATOM     32  H   UNL     1      36.474 -24.669  -9.550  0.00  0.00    +0.211 HD
ENDBRANCH  30  31
ENDBRANCH   5  30
TORSDOF 11
ENDMDL
MODEL 2
REMARK VINA RESULT:      -9.6      1.602      2.107
REMARK  Name = 11509180
REMARK  11 active torsions:
REMARK  status: ('A' for Active; 'I' for Inactive)
REMARK    1  A    between atoms: N_2  and  C_7
REMARK    2  A    between atoms: N_2  and  O_19
REMARK    3  A    between atoms: C_3  and  O_15
REMARK    4  A    between atoms: C_4  and  O_17
REMARK    5  A    between atoms: C_5  and  N_9
REMARK    6  A    between atoms: C_6  and  C_30
REMARK    7  A    between atoms: C_10  and  C_12
REMARK    8  A    between atoms: C_12  and  C_13
REMARK    9  A    between atoms: O_19  and  C_22
REMARK   10  A    between atoms: N_21  and  C_24
REMARK   11  A    between atoms: C_30  and  O_31
REMARK                            x       y       z     vdW  Elec       q    Type
REMARK                         _______ _______ _______ _____ _____    ______ ____
ROOT
ATOM      1  O   UNL     1      36.000 -22.164 -14.369  0.00  0.00    -0.333 OA
ATOM      2  C   UNL     1      34.783 -24.805 -14.488  0.00  0.00    +0.161 C 
ATOM      3  C   UNL     1      36.002 -24.467 -13.628  0.00  0.00    +0.169 C 
ATOM      4  C   UNL     1      34.305 -23.642 -15.358  0.00  0.00    +0.149 C 
ATOM      5  C   UNL     1      35.947 -23.004 -13.196  0.00  0.00    +0.175 C 
ATOM      6  C   UNL     1      35.271 -22.494 -15.452  0.00  0.00    +0.251 C 
ENDROOT
BRANCH   4   8
ATOM      7  O   UNL     1      31.776 -23.479 -16.708  0.00  0.00    -0.275 OA
ATOM      8  N   UNL     1      33.093 -23.049 -14.845  0.00  0.00    -0.300 N 
ATOM      9  C   UNL     1      31.915 -23.019 -15.577  0.00  0.00    +0.223 C 
ATOM     10  H   UNL     1      33.102 -22.653 -13.944  0.00  0.00    +0.150 HD
BRANCH   9  11
ATOM     11  C   UNL     1      30.794 -22.343 -14.808  0.00  0.00    +0.085 C 
BRANCH  11  12
ATOM     12  C   UNL     1      29.466 -22.385 -15.557  0.00  0.00    +0.010 C 
ATOM     13  C   UNL     1      28.637 -23.595 -15.156  0.00  0.00    +0.001 C 
ENDBRANCH  11  12
ENDBRANCH   9  11
ENDBRANCH   4   8
BRANCH   2  14
ATOM     14  O   UNL     1      35.144 -25.908 -15.327  0.00  0.00    -0.380 OA
ATOM     15  H   UNL     1      34.436 -26.571 -15.312  0.00  0.00    +0.211 HD
ENDBRANCH   2  14
BRANCH   3  16
ATOM     16  O   UNL     1      36.005 -25.339 -12.502  0.00  0.00    -0.379 OA
ATOM     17  H   UNL     1      36.879 -25.750 -12.414  0.00  0.00    +0.211 HD
ENDBRANCH   3  16
BRANCH   6  18
ATOM     18  N   UNL     1      35.390 -21.802 -16.535  0.00  0.00    +0.008 NA
BRANCH  18  19
ATOM     19  O   UNL     1      34.742 -22.489 -17.571  0.00  0.00    -0.330 OA
BRANCH  19  22
ATOM     20  O   UNL     1      33.066 -21.345 -18.641  0.00  0.00    -0.224 OA
ATOM     21  N   UNL     1      35.327 -20.999 -19.130  0.00  0.00    -0.249 N 
ATOM     22  C   UNL     1      34.258 -21.578 -18.475  0.00  0.00    +0.425 C 
ATOM     23  H   UNL     1      36.220 -21.315 -18.861  0.00  0.00    +0.158 HD
BRANCH  21  24
ATOM     24  C   UNL     1      35.299 -20.010 -20.139  0.00  0.00    +0.053 C 
ATOM     25  C   UNL     1      34.172 -19.870 -20.949  0.00  0.00    +0.015 C 
ATOM     26  C   UNL     1      36.400 -19.172 -20.325  0.00  0.00    +0.015 C 
ATOM     27  C   UNL     1      34.145 -18.893 -21.944  0.00  0.00    +0.001 C 
ATOM     28  C   UNL     1      36.372 -18.195 -21.320  0.00  0.00    +0.001 C 
ATOM     29  C   UNL     1      35.245 -18.056 -22.130  0.00  0.00    +0.000 C 
ENDBRANCH  21  24
ENDBRANCH  19  22
ENDBRANCH  18  19
ENDBRANCH   6  18
BRANCH   5  30
ATOM     30  C   UNL     1      37.125 -22.604 -12.313  0.00  0.00    +0.169 C 
BRANCH  30  31
ATOM     31  O   UNL     1      38.168 -23.545 -12.498  0.00  0.00    -0.379 OA
ATOM     32  H   UNL     1      37.863 -24.424 -12.225  0.00  0.00    +0.211 HD
ENDBRANCH  30  31
ENDBRANCH   5  30
TORSDOF 11
ENDMDL
MODEL 3
REMARK VINA RESULT:      -9.5      2.157      3.381
REMARK  Name = 11509180
REMARK  11 active torsions:
REMARK  status: ('A' for Active; 'I' for Inactive)
REMARK    1  A    between atoms: N_2  and  C_7
REMARK    2  A    between atoms: N_2  and  O_19
REMARK    3  A    between atoms: C_3  and  O_15
REMARK    4  A    between atoms: C_4  and  O_17
REMARK    5  A    between atoms: C_5  and  N_9
REMARK    6  A    between atoms: C_6  and  C_30
REMARK    7  A    between atoms: C_10  and  C_12
REMARK    8  A    between atoms: C_12  and  C_13
REMARK    9  A    between atoms: O_19  and  C_22
REMARK   10  A    between atoms: N_21  and  C_24
REMARK   11  A    between atoms: C_30  and  O_31
REMARK                            x       y       z     vdW  Elec       q    Type
REMARK                         _______ _______ _______ _____ _____    ______ ____
ROOT
ATOM      1  O   UNL     1      35.062 -22.060 -16.955  0.00  0.00    -0.333 OA
ATOM      2  C   UNL     1      34.542 -24.167 -15.016  0.00  0.00    +0.161 C 
ATOM      3  C   UNL     1      35.905 -23.500 -15.204  0.00  0.00    +0.169 C 
ATOM      4  C   UNL     1      33.482 -23.685 -16.007  0.00  0.00    +0.149 C 
ATOM      5  C   UNL     1      35.722 -22.059 -15.671  0.00  0.00    +0.175 C 
ATOM      6  C   UNL     1      34.023 -22.891 -17.163  0.00  0.00    +0.251 C 
ENDROOT
BRANCH   4   8
ATOM      7  O   UNL     1      31.264 -24.460 -14.356  0.00  0.00    -0.275 OA
ATOM      8  N   UNL     1      32.523 -22.803 -15.384  0.00  0.00    -0.300 N 
ATOM      9  C   UNL     1      31.481 -23.276 -14.601  0.00  0.00    +0.223 C 
ATOM     10  H   UNL     1      32.613 -21.832 -15.520  0.00  0.00    +0.150 HD
BRANCH   9  11
ATOM     11  C   UNL     1      30.624 -22.143 -14.065  0.00  0.00    +0.085 C 
BRANCH  11  12
ATOM     12  C   UNL     1      29.184 -22.216 -14.565  0.00  0.00    +0.010 C 
ATOM     13  C   UNL     1      29.125 -22.337 -16.079  0.00  0.00    +0.001 C 
ENDBRANCH  11  12
ENDBRANCH   9  11
ENDBRANCH   4   8
BRANCH   2  14
ATOM     14  O   UNL     1      34.730 -25.578 -15.171  0.00  0.00    -0.380 OA
ATOM     15  H   UNL     1      35.338 -25.900 -14.487  0.00  0.00    +0.211 HD
ENDBRANCH   2  14
BRANCH   3  16
ATOM     16  O   UNL     1      36.601 -23.556 -13.962  0.00  0.00    -0.379 OA
ATOM     17  H   UNL     1      36.004 -23.292 -13.245  0.00  0.00    +0.211 HD
ENDBRANCH   3  16
BRANCH   6  18
ATOM     18  N   UNL     1      33.493 -22.966 -18.337  0.00  0.00    +0.008 NA
BRANCH  18  19
ATOM     19  O   UNL     1      32.320 -22.199 -18.342  0.00  0.00    -0.330 OA
BRANCH  19  22
ATOM     20  O   UNL     1      31.655 -20.247 -19.347  0.00  0.00    -0.224 OA
ATOM     21  N   UNL     1      33.842 -21.060 -19.516  0.00  0.00    -0.249 N 
ATOM     22  C   UNL     1      32.524 -21.076 -19.101  0.00  0.00    +0.425 C 
ATOM     23  H   UNL     1      34.397 -21.817 -19.217  0.00  0.00    +0.158 HD
BRANCH  21  24
ATOM     24  C   UNL     1      34.493 -20.092 -20.314  0.00  0.00    +0.053 C 
ATOM     25  C   UNL     1      35.817 -19.743 -20.046  0.00  0.00    +0.015 C 
ATOM     26  C   UNL     1      33.812 -19.487 -21.370  0.00  0.00    +0.015 C 
ATOM     27  C   UNL     1      36.460 -18.789 -20.834  0.00  0.00    +0.001 C 
ATOM     28  C   UNL     1      34.456 -18.533 -22.159  0.00  0.00    +0.001 C 
ATOM     29  C   UNL     1      35.778 -18.184 -21.890  0.00  0.00    +0.000 C 
ENDBRANCH  21  24
ENDBRANCH  19  22
ENDBRANCH  18  19
ENDBRANCH   6  18
BRANCH   5  30
ATOM     30  C   UNL     1      37.047 -21.325 -15.857  0.00  0.00    +0.169 C 
BRANCH  30  31
ATOM     31  O   UNL     1      38.078 -22.285 -16.003  0.00  0.00    -0.379 OA
ATOM     32  H   UNL     1      38.228 -22.731 -15.155  0.00  0.00    +0.211 HD
ENDBRANCH  30  31
ENDBRANCH   5  30
TORSDOF 11
ENDMDL
MODEL 4
REMARK VINA RESULT:      -9.5      2.590      5.104
REMARK  Name = 11509180
REMARK  11 active torsions:
REMARK  status: ('A' for Active; 'I' for Inactive)
REMARK    1  A    between atoms: N_2  and  C_7
REMARK    2  A    between atoms: N_2  and  O_19
REMARK    3  A    between atoms: C_3  and  O_15
REMARK    4  A    between atoms: C_4  and  O_17
REMARK    5  A    between atoms: C_5  and  N_9
REMARK    6  A    between atoms: C_6  and  C_30
REMARK    7  A    between atoms: C_10  and  C_12
REMARK    8  A    between atoms: C_12  and  C_13
REMARK    9  A    between atoms: O_19  and  C_22
REMARK   10  A    between atoms: N_21  and  C_24
REMARK   11  A    between atoms: C_30  and  O_31
REMARK                            x       y       z     vdW  Elec       q    Type
REMARK                         _______ _______ _______ _____ _____    ______ ____
ROOT
ATOM      1  O   UNL     1      30.733 -23.851 -15.698  0.00  0.00    -0.333 OA
ATOM      2  C   UNL     1      31.863 -23.488 -13.040  0.00  0.00    +0.161 C 
ATOM      3  C   UNL     1      30.387 -23.789 -13.304  0.00  0.00    +0.169 C 
ATOM      4  C   UNL     1      32.689 -23.307 -14.315  0.00  0.00    +0.149 C 
ATOM      5  C   UNL     1      30.241 -24.617 -14.577  0.00  0.00    +0.175 C 
ATOM      6  C   UNL     1      31.875 -23.150 -15.569  0.00  0.00    +0.251 C 
ENDROOT
BRANCH   4   8
ATOM      7  O   UNL     1      35.559 -23.353 -14.283  0.00  0.00    -0.275 OA
ATOM      8  N   UNL     1      33.534 -24.448 -14.575  0.00  0.00    -0.300 N 
ATOM      9  C   UNL     1      34.918 -24.369 -14.536  0.00  0.00    +0.223 C 
ATOM     10  H   UNL     1      33.113 -25.312 -14.788  0.00  0.00    +0.150 HD
BRANCH   9  11
ATOM     11  C   UNL     1      35.564 -25.708 -14.844  0.00  0.00    +0.085 C 
BRANCH  11  12
ATOM     12  C   UNL     1      36.999 -25.793 -14.334  0.00  0.00    +0.010 C 
ATOM     13  C   UNL     1      37.045 -26.042 -12.835  0.00  0.00    +0.001 C 
ENDBRANCH  11  12
ENDBRANCH   9  11
ENDBRANCH   4   8
BRANCH   2  14
ATOM     14  O   UNL     1      31.923 -22.288 -12.262  0.00  0.00    -0.380 OA
ATOM     15  H   UNL     1      31.081 -22.162 -11.797  0.00  0.00    +0.211 HD
ENDBRANCH   2  14
BRANCH   3  16
ATOM     16  O   UNL     1      29.867 -24.481 -12.174  0.00  0.00    -0.379 OA
ATOM     17  H   UNL     1      30.048 -25.430 -12.265  0.00  0.00    +0.211 HD
ENDBRANCH   3  16
BRANCH   6  18
ATOM     18  N   UNL     1      32.266 -22.387 -16.533  0.00  0.00    +0.008 NA
BRANCH  18  19
ATOM     19  O   UNL     1      33.206 -23.090 -17.300  0.00  0.00    -0.330 OA
BRANCH  19  22
ATOM     20  O   UNL     1      35.248 -22.046 -17.251  0.00  0.00    -0.224 OA
ATOM     21  N   UNL     1      33.641 -21.576 -18.885  0.00  0.00    -0.249 N 
ATOM     22  C   UNL     1      34.148 -22.211 -17.767  0.00  0.00    +0.425 C 
ATOM     23  H   UNL     1      32.731 -21.841 -19.155  0.00  0.00    +0.158 HD
BRANCH  21  24
ATOM     24  C   UNL     1      34.264 -20.596 -19.690  0.00  0.00    +0.053 C 
ATOM     25  C   UNL     1      33.498 -19.805 -20.546  0.00  0.00    +0.015 C 
ATOM     26  C   UNL     1      35.647 -20.419 -19.627  0.00  0.00    +0.015 C 
ATOM     27  C   UNL     1      34.113 -18.838 -21.339  0.00  0.00    +0.001 C 
ATOM     28  C   UNL     1      36.262 -19.450 -20.420  0.00  0.00    +0.001 C 
ATOM     29  C   UNL     1      35.496 -18.661 -21.276  0.00  0.00    +0.000 C 
ENDBRANCH  21  24
ENDBRANCH  19  22
ENDBRANCH  18  19
ENDBRANCH   6  18
BRANCH   5  30
ATOM     30  C   UNL     1      28.791 -24.974 -14.888  0.00  0.00    +0.169 C 
BRANCH  30  31
ATOM     31  O   UNL     1      28.335 -25.897 -13.915  0.00  0.00    -0.379 OA
ATOM     32  H   UNL     1      29.094 -26.358 -13.526  0.00  0.00    +0.211 HD
ENDBRANCH  30  31
ENDBRANCH   5  30
TORSDOF 11
ENDMDL
MODEL 5
REMARK VINA RESULT:      -9.2      2.291      3.242
REMARK  Name = 11509180
REMARK  11 active torsions:
REMARK  status: ('A' for Active; 'I' for Inactive)
REMARK    1  A    between atoms: N_2  and  C_7
REMARK    2  A    between atoms: N_2  and  O_19
REMARK    3  A    between atoms: C_3  and  O_15
REMARK    4  A    between atoms: C_4  and  O_17
REMARK    5  A    between atoms: C_5  and  N_9
REMARK    6  A    between atoms: C_6  and  C_30
REMARK    7  A    between atoms: C_10  and  C_12
REMARK    8  A    between atoms: C_12  and  C_13
REMARK    9  A    between atoms: O_19  and  C_22
REMARK   10  A    between atoms: N_21  and  C_24
REMARK   11  A    between atoms: C_30  and  O_31
REMARK                            x       y       z     vdW  Elec       q    Type
REMARK                         _______ _______ _______ _____ _____    ______ ____
ROOT
ATOM      1  O   UNL     1      38.321 -23.405 -14.636  0.00  0.00    -0.333 OA
ATOM      2  C   UNL     1      36.372 -25.565 -14.742  0.00  0.00    +0.161 C 
ATOM      3  C   UNL     1      37.881 -25.771 -14.881  0.00  0.00    +0.169 C 
ATOM      4  C   UNL     1      35.963 -24.095 -14.627  0.00  0.00    +0.149 C 
ATOM      5  C   UNL     1      38.631 -24.704 -14.089  0.00  0.00    +0.175 C 
ATOM      6  C   UNL     1      37.050 -23.116 -14.973  0.00  0.00    +0.251 C 
ENDROOT
BRANCH   4   8
ATOM      7  O   UNL     1      33.288 -23.873 -13.609  0.00  0.00    -0.275 OA
ATOM      8  N   UNL     1      35.582 -23.747 -13.279  0.00  0.00    -0.300 N 
ATOM      9  C   UNL     1      34.255 -23.664 -12.882  0.00  0.00    +0.223 C 
ATOM     10  H   UNL     1      36.288 -23.561 -12.618  0.00  0.00    +0.150 HD
BRANCH   9  11
ATOM     11  C   UNL     1      34.131 -23.283 -11.417  0.00  0.00    +0.085 C 
BRANCH  11  12
ATOM     12  C   UNL     1      35.480 -23.265 -10.704  0.00  0.00    +0.010 C 
ATOM     13  C   UNL     1      35.437 -24.061  -9.410  0.00  0.00    +0.001 C 
ENDBRANCH  11  12
ENDBRANCH   9  11
ENDBRANCH   4   8
BRANCH   2  14
ATOM     14  O   UNL     1      35.753 -26.140 -15.897  0.00  0.00    -0.380 OA
ATOM     15  H   UNL     1      36.396 -26.695 -16.366  0.00  0.00    +0.211 HD
ENDBRANCH   2  14
BRANCH   3  16
ATOM     16  O   UNL     1      38.194 -27.079 -14.412  0.00  0.00    -0.379 OA
ATOM     17  H   UNL     1      37.703 -27.256 -13.595  0.00  0.00    +0.211 HD
ENDBRANCH   3  16
BRANCH   6  18
ATOM     18  N   UNL     1      36.784 -21.994 -15.553  0.00  0.00    +0.008 NA
BRANCH  18  19
ATOM     19  O   UNL     1      36.389 -22.260 -16.871  0.00  0.00    -0.330 OA
BRANCH  19  22
ATOM     20  O   UNL     1      36.845 -20.035 -17.188  0.00  0.00    -0.224 OA
ATOM     21  N   UNL     1      35.603 -21.289 -18.723  0.00  0.00    -0.249 N 
ATOM     22  C   UNL     1      36.327 -21.080 -17.565  0.00  0.00    +0.425 C 
ATOM     23  H   UNL     1      35.262 -22.203 -18.859  0.00  0.00    +0.158 HD
BRANCH  21  24
ATOM     24  C   UNL     1      35.290 -20.355 -19.737  0.00  0.00    +0.053 C 
ATOM     25  C   UNL     1      33.985 -20.263 -20.222  0.00  0.00    +0.015 C 
ATOM     26  C   UNL     1      36.286 -19.526 -20.252  0.00  0.00    +0.015 C 
ATOM     27  C   UNL     1      33.676 -19.341 -21.221  0.00  0.00    +0.001 C 
ATOM     28  C   UNL     1      35.977 -18.603 -21.252  0.00  0.00    +0.001 C 
ATOM     29  C   UNL     1      34.673 -18.511 -21.736  0.00  0.00    +0.000 C 
ENDBRANCH  21  24
ENDBRANCH  19  22
ENDBRANCH  18  19
ENDBRANCH   6  18
BRANCH   5  30
ATOM     30  C   UNL     1      40.146 -24.866 -14.166  0.00  0.00    +0.169 C 
BRANCH  30  31
ATOM     31  O   UNL     1      40.509 -26.049 -13.476  0.00  0.00    -0.379 OA
ATOM     32  H   UNL     1      39.710 -26.548 -13.247  0.00  0.00    +0.211 HD
ENDBRANCH  30  31
ENDBRANCH   5  30
TORSDOF 11
ENDMDL
MODEL 6
REMARK VINA RESULT:      -9.1      2.039      5.665
REMARK  Name = 11509180
REMARK  11 active torsions:
REMARK  status: ('A' for Active; 'I' for Inactive)
REMARK    1  A    between atoms: N_2  and  C_7
REMARK    2  A    between atoms: N_2  and  O_19
REMARK    3  A    between atoms: C_3  and  O_15
REMARK    4  A    between atoms: C_4  and  O_17
REMARK    5  A    between atoms: C_5  and  N_9
REMARK    6  A    between atoms: C_6  and  C_30
REMARK    7  A    between atoms: C_10  and  C_12
REMARK    8  A    between atoms: C_12  and  C_13
REMARK    9  A    between atoms: O_19  and  C_22
REMARK   10  A    between atoms: N_21  and  C_24
REMARK   11  A    between atoms: C_30  and  O_31
REMARK                            x       y       z     vdW  Elec       q    Type
REMARK                         _______ _______ _______ _____ _____    ______ ____
ROOT
ATOM      1  O   UNL     1      34.860 -24.810 -14.854  0.00  0.00    -0.333 OA
ATOM      2  C   UNL     1      36.986 -22.860 -14.465  0.00  0.00    +0.161 C 
ATOM      3  C   UNL     1      37.141 -24.356 -14.189  0.00  0.00    +0.169 C 
ATOM      4  C   UNL     1      35.572 -22.459 -14.888  0.00  0.00    +0.149 C 
ATOM      5  C   UNL     1      36.236 -25.158 -15.120  0.00  0.00    +0.175 C 
ATOM      6  C   UNL     1      34.529 -23.518 -14.665  0.00  0.00    +0.251 C 
ENDROOT
BRANCH   4   8
ATOM      7  O   UNL     1      37.146 -20.541 -16.332  0.00  0.00    -0.275 OA
ATOM      8  N   UNL     1      35.493 -22.170 -16.300  0.00  0.00    -0.300 N 
ATOM      9  C   UNL     1      36.301 -21.220 -16.908  0.00  0.00    +0.223 C 
ATOM     10  H   UNL     1      34.844 -22.664 -16.851  0.00  0.00    +0.150 HD
BRANCH   9  11
ATOM     11  C   UNL     1      36.019 -21.115 -18.397  0.00  0.00    +0.085 C 
BRANCH  11  12
ATOM     12  C   UNL     1      34.605 -21.561 -18.754  0.00  0.00    +0.010 C 
ATOM     13  C   UNL     1      33.966 -20.627 -19.769  0.00  0.00    +0.001 C 
ENDBRANCH  11  12
ENDBRANCH   9  11
ENDBRANCH   4   8
BRANCH   2  14
ATOM     14  O   UNL     1      37.338 -22.164 -13.265  0.00  0.00    -0.380 OA
ATOM     15  H   UNL     1      38.111 -21.601 -13.433  0.00  0.00    +0.211 HD
ENDBRANCH   2  14
BRANCH   3  16
ATOM     16  O   UNL     1      38.510 -24.702 -14.375  0.00  0.00    -0.379 OA
ATOM     17  H   UNL     1      39.067 -23.930 -14.186  0.00  0.00    +0.211 HD
ENDBRANCH   3  16
BRANCH   6  18
ATOM     18  N   UNL     1      33.320 -23.213 -14.331  0.00  0.00    +0.008 NA
BRANCH  18  19
ATOM     19  O   UNL     1      32.818 -24.232 -13.510  0.00  0.00    -0.330 OA
BRANCH  19  22
ATOM     20  O   UNL     1      30.728 -24.702 -12.692  0.00  0.00    -0.224 OA
ATOM     21  N   UNL     1      31.055 -23.518 -14.683  0.00  0.00    -0.249 N 
ATOM     22  C   UNL     1      31.448 -24.200 -13.547  0.00  0.00    +0.425 C 
ATOM     23  H   UNL     1      31.782 -23.182 -15.257  0.00  0.00    +0.158 HD
BRANCH  21  24
ATOM     24  C   UNL     1      29.741 -23.243 -15.124  0.00  0.00    +0.053 C 
ATOM     25  C   UNL     1      29.067 -24.164 -15.926  0.00  0.00    +0.015 C 
ATOM     26  C   UNL     1      29.118 -22.050 -14.757  0.00  0.00    +0.015 C 
ATOM     27  C   UNL     1      27.770 -23.892 -16.361  0.00  0.00    +0.001 C 
ATOM     28  C   UNL     1      27.821 -21.778 -15.192  0.00  0.00    +0.001 C 
ATOM     29  C   UNL     1      27.147 -22.699 -15.994  0.00  0.00    +0.000 C 
ENDBRANCH  21  24
ENDBRANCH  19  22
ENDBRANCH  18  19
ENDBRANCH   6  18
BRANCH   5  30
ATOM     30  C   UNL     1      36.359 -26.663 -14.912  0.00  0.00    +0.169 C 
BRANCH  30  31
ATOM     31  O   UNL     1      36.439 -27.289 -16.181  0.00  0.00    -0.379 OA
ATOM     32  H   UNL     1      36.015 -28.160 -16.140  0.00  0.00    +0.211 HD
ENDBRANCH  30  31
ENDBRANCH   5  30
TORSDOF 11
ENDMDL
MODEL 7
REMARK VINA RESULT:      -9.0      1.696      4.694
REMARK  Name = 11509180
REMARK  11 active torsions:
REMARK  status: ('A' for Active; 'I' for Inactive)
REMARK    1  A    between atoms: N_2  and  C_7
REMARK    2  A    between atoms: N_2  and  O_19
REMARK    3  A    between atoms: C_3  and  O_15
REMARK    4  A    between atoms: C_4  and  O_17
REMARK    5  A    between atoms: C_5  and  N_9
REMARK    6  A    between atoms: C_6  and  C_30
REMARK    7  A    between atoms: C_10  and  C_12
REMARK    8  A    between atoms: C_12  and  C_13
REMARK    9  A    between atoms: O_19  and  C_22
REMARK   10  A    between atoms: N_21  and  C_24
REMARK   11  A    between atoms: C_30  and  O_31
REMARK                            x       y       z     vdW  Elec       q    Type
REMARK                         _______ _______ _______ _____ _____    ______ ____
ROOT
ATOM      1  O   UNL     1      34.668 -22.594 -15.936  0.00  0.00    -0.333 OA
ATOM      2  C   UNL     1      34.165 -23.639 -13.266  0.00  0.00    +0.161 C 
ATOM      3  C   UNL     1      33.063 -23.319 -14.277  0.00  0.00    +0.169 C 
ATOM      4  C   UNL     1      35.569 -23.277 -13.755  0.00  0.00    +0.149 C 
ATOM      5  C   UNL     1      33.583 -23.516 -15.698  0.00  0.00    +0.175 C 
ATOM      6  C   UNL     1      35.598 -22.408 -14.981  0.00  0.00    +0.251 C 
ENDROOT
BRANCH   4   8
ATOM      7  O   UNL     1      37.655 -24.521 -12.224  0.00  0.00    -0.275 OA
ATOM      8  N   UNL     1      36.328 -24.447 -14.127  0.00  0.00    -0.300 N 
ATOM      9  C   UNL     1      37.321 -24.975 -13.316  0.00  0.00    +0.223 C 
ATOM     10  H   UNL     1      36.134 -24.886 -14.987  0.00  0.00    +0.150 HD
BRANCH   9  11
ATOM     11  C   UNL     1      37.960 -26.204 -13.939  0.00  0.00    +0.085 C 
BRANCH  11  12
ATOM     12  C   UNL     1      39.471 -26.061 -14.091  0.00  0.00    +0.010 C 
ATOM     13  C   UNL     1      39.834 -24.846 -14.929  0.00  0.00    +0.001 C 
ENDBRANCH  11  12
ENDBRANCH   9  11
ENDBRANCH   4   8
BRANCH   2  14
ATOM     14  O   UNL     1      33.876 -22.907 -12.071  0.00  0.00    -0.380 OA
ATOM     15  H   UNL     1      33.191 -23.372 -11.565  0.00  0.00    +0.211 HD
ENDBRANCH   2  14
BRANCH   3  16
ATOM     16  O   UNL     1      31.955 -24.172 -14.009  0.00  0.00    -0.379 OA
ATOM     17  H   UNL     1      31.593 -24.505 -14.845  0.00  0.00    +0.211 HD
ENDBRANCH   3  16
BRANCH   6  18
ATOM     18  N   UNL     1      36.514 -21.513 -15.149  0.00  0.00    +0.008 NA
BRANCH  18  19
ATOM     19  O   UNL     1      37.115 -21.726 -16.397  0.00  0.00    -0.330 OA
BRANCH  19  22
ATOM     20  O   UNL     1      37.125 -19.550 -17.121  0.00  0.00    -0.224 OA
ATOM     21  N   UNL     1      35.928 -21.230 -18.224  0.00  0.00    -0.249 N 
ATOM     22  C   UNL     1      36.754 -20.711 -17.245  0.00  0.00    +0.425 C 
ATOM     23  H   UNL     1      35.739 -22.194 -18.162  0.00  0.00    +0.158 HD
BRANCH  21  24
ATOM     24  C   UNL     1      35.322 -20.549 -19.304  0.00  0.00    +0.053 C 
ATOM     25  C   UNL     1      33.954 -20.688 -19.537  0.00  0.00    +0.015 C 
ATOM     26  C   UNL     1      36.093 -19.738 -20.138  0.00  0.00    +0.015 C 
ATOM     27  C   UNL     1      33.356 -20.016 -20.603  0.00  0.00    +0.001 C 
ATOM     28  C   UNL     1      35.494 -19.066 -21.204  0.00  0.00    +0.001 C 
ATOM     29  C   UNL     1      34.127 -19.205 -21.436  0.00  0.00    +0.000 C 
ENDBRANCH  21  24
ENDBRANCH  19  22
ENDBRANCH  18  19
ENDBRANCH   6  18
BRANCH   5  30
ATOM     30  C   UNL     1      32.524 -23.235 -16.759  0.00  0.00    +0.169 C 
BRANCH  30  31
ATOM     31  O   UNL     1      33.064 -23.550 -18.031  0.00  0.00    -0.379 OA
ATOM     32  H   UNL     1      33.264 -22.730 -18.509  0.00  0.00    +0.211 HD
ENDBRANCH  30  31
ENDBRANCH   5  30
TORSDOF 11
ENDMDL
MODEL 8
REMARK VINA RESULT:      -8.3     12.724     17.194
REMARK  Name = 11509180
REMARK  11 active torsions:
REMARK  status: ('A' for Active; 'I' for Inactive)
REMARK    1  A    between atoms: N_2  and  C_7
REMARK    2  A    between atoms: N_2  and  O_19
REMARK    3  A    between atoms: C_3  and  O_15
REMARK    4  A    between atoms: C_4  and  O_17
REMARK    5  A    between atoms: C_5  and  N_9
REMARK    6  A    between atoms: C_6  and  C_30
REMARK    7  A    between atoms: C_10  and  C_12
REMARK    8  A    between atoms: C_12  and  C_13
REMARK    9  A    between atoms: O_19  and  C_22
REMARK   10  A    between atoms: N_21  and  C_24
REMARK   11  A    between atoms: C_30  and  O_31
REMARK                            x       y       z     vdW  Elec       q    Type
REMARK                         _______ _______ _______ _____ _____    ______ ____
ROOT
ATOM      1  O   UNL     1      32.020  -7.680 -21.521  0.00  0.00    -0.333 OA
ATOM      2  C   UNL     1      31.185  -5.351 -23.054  0.00  0.00    +0.161 C 
ATOM      3  C   UNL     1      31.178  -5.412 -21.526  0.00  0.00    +0.169 C 
ATOM      4  C   UNL     1      31.593  -6.667 -23.718  0.00  0.00    +0.149 C 
ATOM      5  C   UNL     1      32.280  -6.346 -21.034  0.00  0.00    +0.175 C 
ATOM      6  C   UNL     1      31.615  -7.852 -22.794  0.00  0.00    +0.251 C 
ENDROOT
BRANCH   4   8
ATOM      7  O   UNL     1      32.412  -5.332 -26.125  0.00  0.00    -0.275 OA
ATOM      8  N   UNL     1      32.932  -6.607 -24.256  0.00  0.00    -0.300 N 
ATOM      9  C   UNL     1      33.228  -5.933 -25.432  0.00  0.00    +0.223 C 
ATOM     10  H   UNL     1      33.659  -7.059 -23.771  0.00  0.00    +0.150 HD
BRANCH   9  11
ATOM     11  C   UNL     1      34.706  -6.022 -25.771  0.00  0.00    +0.085 C 
BRANCH  11  12
ATOM     12  C   UNL     1      35.085  -5.141 -26.957  0.00  0.00    +0.010 C 
ATOM     13  C   UNL     1      35.969  -3.981 -26.529  0.00  0.00    +0.001 C 
ENDBRANCH  11  12
ENDBRANCH   9  11
ENDBRANCH   4   8
BRANCH   2  14
ATOM     14  O   UNL     1      29.864  -4.997 -23.475  0.00  0.00    -0.380 OA
ATOM     15  H   UNL     1      29.500  -4.330 -22.871  0.00  0.00    +0.211 HD
ENDBRANCH   2  14
BRANCH   3  16
ATOM     16  O   UNL     1      31.361  -4.090 -21.029  0.00  0.00    -0.379 OA
ATOM     17  H   UNL     1      31.664  -4.130 -20.109  0.00  0.00    +0.211 HD
ENDBRANCH   3  16
BRANCH   6  18
ATOM     18  N   UNL     1      31.287  -9.031 -23.204  0.00  0.00    +0.008 NA
BRANCH  18  19
ATOM     19  O   UNL     1      32.458  -9.785 -23.362  0.00  0.00    -0.330 OA
BRANCH  19  22
ATOM     20  O   UNL     1      31.308 -11.298 -22.077  0.00  0.00    -0.224 OA
ATOM     21  N   UNL     1      33.432 -11.753 -22.947  0.00  0.00    -0.249 N 
ATOM     22  C   UNL     1      32.302 -10.989 -22.725  0.00  0.00    +0.425 C 
ATOM     23  H   UNL     1      34.133 -11.335 -23.498  0.00  0.00    +0.158 HD
BRANCH  21  24
ATOM     24  C   UNL     1      33.706 -13.060 -22.484  0.00  0.00    +0.053 C 
ATOM     25  C   UNL     1      33.683 -13.335 -21.117  0.00  0.00    +0.015 C 
ATOM     26  C   UNL     1      34.000 -14.075 -23.395  0.00  0.00    +0.015 C 
ATOM     27  C   UNL     1      33.953 -14.625 -20.660  0.00  0.00    +0.001 C 
ATOM     28  C   UNL     1      34.269 -15.365 -22.938  0.00  0.00    +0.001 C 
ATOM     29  C   UNL     1      34.246 -15.639 -21.571  0.00  0.00    +0.000 C 
ENDBRANCH  21  24
ENDBRANCH  19  22
ENDBRANCH  18  19
ENDBRANCH   6  18
BRANCH   5  30
ATOM     30  C   UNL     1      32.344  -6.435 -19.513  0.00  0.00    +0.169 C 
BRANCH  30  31
ATOM     31  O   UNL     1      32.311  -7.801 -19.139  0.00  0.00    -0.379 OA
ATOM     32  H   UNL     1      31.437  -8.018 -18.782  0.00  0.00    +0.211 HD
ENDBRANCH  30  31
ENDBRANCH   5  30
TORSDOF 11
ENDMDL
MODEL 9
REMARK VINA RESULT:      -7.8      5.519     10.431
REMARK  Name = 11509180
REMARK  11 active torsions:
REMARK  status: ('A' for Active; 'I' for Inactive)
REMARK    1  A    between atoms: N_2  and  C_7
REMARK    2  A    between atoms: N_2  and  O_19
REMARK    3  A    between atoms: C_3  and  O_15
REMARK    4  A    between atoms: C_4  and  O_17
REMARK    5  A    between atoms: C_5  and  N_9
REMARK    6  A    between atoms: C_6  and  C_30
REMARK    7  A    between atoms: C_10  and  C_12
REMARK    8  A    between atoms: C_12  and  C_13
REMARK    9  A    between atoms: O_19  and  C_22
REMARK   10  A    between atoms: N_21  and  C_24
REMARK   11  A    between atoms: C_30  and  O_31
REMARK                            x       y       z     vdW  Elec       q    Type
REMARK                         _______ _______ _______ _____ _____    ______ ____
ROOT
ATOM      1  O   UNL     1      34.074 -18.003 -23.147  0.00  0.00    -0.333 OA
ATOM      2  C   UNL     1      34.276 -15.266 -24.116  0.00  0.00    +0.161 C 
ATOM      3  C   UNL     1      33.679 -16.416 -24.930  0.00  0.00    +0.169 C 
ATOM      4  C   UNL     1      34.843 -15.702 -22.764  0.00  0.00    +0.149 C 
ATOM      5  C   UNL     1      33.049 -17.445 -23.996  0.00  0.00    +0.175 C 
ATOM      6  C   UNL     1      34.996 -17.188 -22.601  0.00  0.00    +0.251 C 
ENDROOT
BRANCH   4   8
ATOM      7  O   UNL     1      34.141 -13.018 -22.024  0.00  0.00    -0.275 OA
ATOM      8  N   UNL     1      33.990 -15.307 -21.670  0.00  0.00    -0.300 N 
ATOM      9  C   UNL     1      33.709 -13.977 -21.391  0.00  0.00    +0.223 C 
ATOM     10  H   UNL     1      33.592 -16.005 -21.101  0.00  0.00    +0.150 HD
BRANCH   9  11
ATOM     11  C   UNL     1      32.786 -13.838 -20.193  0.00  0.00    +0.085 C 
BRANCH  11  12
ATOM     12  C   UNL     1      31.540 -13.019 -20.510  0.00  0.00    +0.010 C 
ATOM     13  C   UNL     1      31.735 -11.551 -20.166  0.00  0.00    +0.001 C 
ENDBRANCH  11  12
ENDBRANCH   9  11
ENDBRANCH   4   8
BRANCH   2  14
ATOM     14  O   UNL     1      35.319 -14.682 -24.903  0.00  0.00    -0.380 OA
ATOM     15  H   UNL     1      35.069 -13.778 -25.151  0.00  0.00    +0.211 HD
ENDBRANCH   2  14
BRANCH   3  16
ATOM     16  O   UNL     1      32.716 -15.872 -25.826  0.00  0.00    -0.379 OA
ATOM     17  H   UNL     1      32.565 -16.493 -26.554  0.00  0.00    +0.211 HD
ENDBRANCH   3  16
BRANCH   6  18
ATOM     18  N   UNL     1      35.971 -17.693 -21.923  0.00  0.00    +0.008 NA
BRANCH  18  19
ATOM     19  O   UNL     1      35.740 -19.067 -21.773  0.00  0.00    -0.330 OA
BRANCH  19  22
ATOM     20  O   UNL     1      36.634 -18.820 -19.675  0.00  0.00    -0.224 OA
ATOM     21  N   UNL     1      35.062 -20.478 -20.178  0.00  0.00    -0.249 N 
ATOM     22  C   UNL     1      35.886 -19.403 -20.452  0.00  0.00    +0.425 C 
ATOM     23  H   UNL     1      34.529 -20.816 -20.934  0.00  0.00    +0.158 HD
BRANCH  21  24
ATOM     24  C   UNL     1      34.889 -21.153 -18.949  0.00  0.00    +0.053 C 
ATOM     25  C   UNL     1      35.951 -21.250 -18.049  0.00  0.00    +0.015 C 
ATOM     26  C   UNL     1      33.654 -21.722 -18.634  0.00  0.00    +0.015 C 
ATOM     27  C   UNL     1      35.779 -21.915 -16.836  0.00  0.00    +0.001 C 
ATOM     28  C   UNL     1      33.483 -22.387 -17.420  0.00  0.00    +0.001 C 
ATOM     29  C   UNL     1      34.545 -22.484 -16.522  0.00  0.00    +0.000 C 
ENDBRANCH  21  24
ENDBRANCH  19  22
ENDBRANCH  18  19
ENDBRANCH   6  18
BRANCH   5  30
ATOM     30  C   UNL     1      32.412 -18.611 -24.745  0.00  0.00    +0.169 C 
BRANCH  30  31
ATOM     31  O   UNL     1      31.272 -18.134 -25.437  0.00  0.00    -0.379 OA
ATOM     32  H   UNL     1      30.481 -18.280 -24.896  0.00  0.00    +0.211 HD
ENDBRANCH  30  31
ENDBRANCH   5  30
TORSDOF 11
ENDMDL
