MODEL 1
REMARK VINA RESULT:     -10.7      0.000      0.000
REMARK  Name = 2059510
REMARK  7 active torsions:
REMARK  status: ('A' for Active; 'I' for Inactive)
REMARK    1  A    between atoms: C_4  and  C_10
REMARK    2  A    between atoms: C_6  and  C_18
REMARK    3  A    between atoms: C_15  and  O_16
REMARK    4  A    between atoms: C_23  and  O_24
REMARK    5  A    between atoms: N_26  and  C_28
REMARK    6  A    between atoms: C_28  and  C_29
REMARK    7  A    between atoms: C_29  and  O_30
REMARK                            x       y       z     vdW  Elec       q    Type
REMARK                         _______ _______ _______ _____ _____    ______ ____
ROOT
ATOM      1  O   UNL     1      32.959 -24.054 -12.598  0.00  0.00    -0.440 OA
ATOM      2  N   UNL     1      34.875 -24.587 -11.276  0.00  0.00    -0.214 NA
ATOM      3  N   UNL     1      36.993 -24.207 -12.417  0.00  0.00    -0.233 NA
ATOM      4  C   UNL     1      33.966 -23.371 -14.492  0.00  0.00    +0.028 C 
ATOM      5  C   UNL     1      34.971 -23.737 -13.565  0.00  0.00    +0.155 C 
ATOM      6  C   UNL     1      32.764 -23.582 -13.856  0.00  0.00    +0.144 C 
ATOM      7  C   UNL     1      34.307 -24.151 -12.414  0.00  0.00    +0.214 C 
ATOM      8  C   UNL     1      36.363 -23.777 -13.535  0.00  0.00    +0.115 C 
ATOM      9  C   UNL     1      36.220 -24.581 -11.372  0.00  0.00    +0.254 C 
ATOM     10  N   UNL     1      37.125 -23.379 -14.649  0.00  0.00    -0.319 N 
ATOM     11  H   UNL     1      36.652 -23.069 -15.454  0.00  0.00    +0.148 HD
ENDROOT
BRANCH   4  12
ATOM     12  C   UNL     1      34.074 -22.873 -15.834  0.00  0.00    +0.000 C 
ATOM     13  C   UNL     1      35.179 -22.108 -16.207  0.00  0.00    +0.003 C 
ATOM     14  C   UNL     1      33.074 -23.155 -16.766  0.00  0.00    +0.003 C 
ATOM     15  C   UNL     1      35.284 -21.624 -17.512  0.00  0.00    +0.037 C 
ATOM     16  C   UNL     1      33.179 -22.671 -18.070  0.00  0.00    +0.037 C 
ATOM     17  C   UNL     1      34.284 -21.905 -18.443  0.00  0.00    +0.139 C 
BRANCH  17  18
ATOM     18  O   UNL     1      34.388 -21.435 -19.715  0.00  0.00    -0.471 OA
ATOM     19  C   UNL     1      33.549 -20.337 -20.072  0.00  0.00    +0.252 C 
ENDBRANCH  17  18
ENDBRANCH   4  12
BRANCH   6  20
ATOM     20  C   UNL     1      31.384 -23.414 -14.226  0.00  0.00    +0.035 C 
ATOM     21  C   UNL     1      30.567 -24.532 -14.415  0.00  0.00    +0.006 C 
ATOM     22  C   UNL     1      30.854 -22.133 -14.397  0.00  0.00    +0.006 C 
ATOM     23  C   UNL     1      29.229 -24.369 -14.774  0.00  0.00    +0.037 C 
ATOM     24  C   UNL     1      29.516 -21.971 -14.756  0.00  0.00    +0.037 C 
ATOM     25  C   UNL     1      28.704 -23.088 -14.944  0.00  0.00    +0.139 C 
BRANCH  25  26
ATOM     26  O   UNL     1      27.398 -22.929 -15.294  0.00  0.00    -0.471 OA
ATOM     27  C   UNL     1      27.119 -22.052 -16.383  0.00  0.00    +0.252 C 
ENDBRANCH  25  26
ENDBRANCH   6  20
BRANCH  10  28
ATOM     28  C   UNL     1      38.557 -23.404 -14.663  0.00  0.00    +0.120 C 
BRANCH  28  29
ATOM     29  C   UNL     1      39.049 -24.800 -15.007  0.00  0.00    +0.158 C 
BRANCH  29  30
ATOM     30  O   UNL     1      40.424 -24.914 -14.663  0.00  0.00    -0.380 OA
ATOM     31  H   UNL     1      40.969 -24.757 -15.451  0.00  0.00    +0.211 HD
ENDBRANCH  29  30
ENDBRANCH  28  29
ENDBRANCH  10  28
TORSDOF 7
ENDMDL
MODEL 2
REMARK VINA RESULT:     -10.5      2.229      6.656
REMARK  Name = 2059510
REMARK  7 active torsions:
REMARK  status: ('A' for Active; 'I' for Inactive)
REMARK    1  A    between atoms: C_4  and  C_10
REMARK    2  A    between atoms: C_6  and  C_18
REMARK    3  A    between atoms: C_15  and  O_16
REMARK    4  A    between atoms: C_23  and  O_24
REMARK    5  A    between atoms: N_26  and  C_28
REMARK    6  A    between atoms: C_28  and  C_29
REMARK    7  A    between atoms: C_29  and  O_30
REMARK                            x       y       z     vdW  Elec       q    Type
REMARK                         _______ _______ _______ _____ _____    ______ ____
ROOT
ATOM      1  O   UNL     1      33.183 -24.508 -12.978  0.00  0.00    -0.440 OA
ATOM      2  N   UNL     1      30.854 -24.565 -12.447  0.00  0.00    -0.214 NA
ATOM      3  N   UNL     1      29.437 -23.518 -14.128  0.00  0.00    -0.233 NA
ATOM      4  C   UNL     1      33.108 -23.434 -14.955  0.00  0.00    +0.028 C 
ATOM      5  C   UNL     1      31.783 -23.563 -14.473  0.00  0.00    +0.155 C 
ATOM      6  C   UNL     1      33.918 -24.023 -14.011  0.00  0.00    +0.144 C 
ATOM      7  C   UNL     1      31.876 -24.230 -13.255  0.00  0.00    +0.214 C 
ATOM      8  C   UNL     1      30.505 -23.208 -14.899  0.00  0.00    +0.115 C 
ATOM      9  C   UNL     1      29.675 -24.168 -12.966  0.00  0.00    +0.254 C 
ATOM     10  N   UNL     1      30.307 -22.532 -16.117  0.00  0.00    -0.319 N 
ATOM     11  H   UNL     1      31.094 -22.314 -16.666  0.00  0.00    +0.148 HD
ENDROOT
BRANCH   4  12
ATOM     12  C   UNL     1      33.606 -22.834 -16.161  0.00  0.00    +0.000 C 
ATOM     13  C   UNL     1      34.852 -22.206 -16.164  0.00  0.00    +0.003 C 
ATOM     14  C   UNL     1      32.845 -22.880 -17.329  0.00  0.00    +0.003 C 
ATOM     15  C   UNL     1      35.336 -21.623 -17.335  0.00  0.00    +0.037 C 
ATOM     16  C   UNL     1      33.330 -22.297 -18.501  0.00  0.00    +0.037 C 
ATOM     17  C   UNL     1      34.575 -21.669 -18.504  0.00  0.00    +0.139 C 
BRANCH  17  18
ATOM     18  O   UNL     1      35.048 -21.102 -19.647  0.00  0.00    -0.471 OA
ATOM     19  C   UNL     1      34.216 -20.134 -20.284  0.00  0.00    +0.252 C 
ENDBRANCH  17  18
ENDBRANCH   4  12
BRANCH   6  20
ATOM     20  C   UNL     1      35.336 -24.231 -13.887  0.00  0.00    +0.035 C 
ATOM     21  C   UNL     1      35.966 -25.232 -14.630  0.00  0.00    +0.006 C 
ATOM     22  C   UNL     1      36.089 -23.434 -13.022  0.00  0.00    +0.006 C 
ATOM     23  C   UNL     1      37.340 -25.435 -14.509  0.00  0.00    +0.037 C 
ATOM     24  C   UNL     1      37.464 -23.637 -12.901  0.00  0.00    +0.037 C 
ATOM     25  C   UNL     1      38.089 -24.637 -13.644  0.00  0.00    +0.139 C 
BRANCH  25  26
ATOM     26  O   UNL     1      39.431 -24.834 -13.526  0.00  0.00    -0.471 OA
ATOM     27  C   UNL     1      40.082 -25.526 -14.590  0.00  0.00    +0.252 C 
ENDBRANCH  25  26
ENDBRANCH   6  20
BRANCH  10  28
ATOM     28  C   UNL     1      29.013 -22.147 -16.593  0.00  0.00    +0.120 C 
BRANCH  28  29
ATOM     29  C   UNL     1      28.127 -23.373 -16.742  0.00  0.00    +0.158 C 
BRANCH  29  30
ATOM     30  O   UNL     1      27.047 -23.072 -17.617  0.00  0.00    -0.380 OA
ATOM     31  H   UNL     1      26.223 -23.023 -17.107  0.00  0.00    +0.211 HD
ENDBRANCH  29  30
ENDBRANCH  28  29
ENDBRANCH  10  28
TORSDOF 7
ENDMDL
MODEL 3
REMARK VINA RESULT:     -10.3      1.780      5.527
REMARK  Name = 2059510
REMARK  7 active torsions:
REMARK  status: ('A' for Active; 'I' for Inactive)
REMARK    1  A    between atoms: C_4  and  C_10
REMARK    2  A    between atoms: C_6  and  C_18
REMARK    3  A    between atoms: C_15  and  O_16
REMARK    4  A    between atoms: C_23  and  O_24
REMARK    5  A    between atoms: N_26  and  C_28
REMARK    6  A    between atoms: C_28  and  C_29
REMARK    7  A    between atoms: C_29  and  O_30
REMARK                            x       y       z     vdW  Elec       q    Type
REMARK                         _______ _______ _______ _____ _____    ______ ____
ROOT
ATOM      1  O   UNL     1      36.717 -22.158 -16.895  0.00  0.00    -0.440 OA
ATOM      2  N   UNL     1      38.306 -23.037 -15.343  0.00  0.00    -0.214 NA
ATOM      3  N   UNL     1      37.300 -23.978 -13.335  0.00  0.00    -0.233 NA
ATOM      4  C   UNL     1      34.806 -22.590 -15.787  0.00  0.00    +0.028 C 
ATOM      5  C   UNL     1      35.887 -23.054 -14.999  0.00  0.00    +0.155 C 
ATOM      6  C   UNL     1      35.363 -22.055 -16.926  0.00  0.00    +0.144 C 
ATOM      7  C   UNL     1      37.043 -22.768 -15.719  0.00  0.00    +0.214 C 
ATOM      8  C   UNL     1      36.053 -23.682 -13.767  0.00  0.00    +0.115 C 
ATOM      9  C   UNL     1      38.335 -23.641 -14.138  0.00  0.00    +0.254 C 
ATOM     10  N   UNL     1      34.946 -24.013 -12.965  0.00  0.00    -0.319 N 
ATOM     11  H   UNL     1      34.045 -23.791 -13.294  0.00  0.00    +0.148 HD
ENDROOT
BRANCH   4  12
ATOM     12  C   UNL     1      33.392 -22.624 -15.540  0.00  0.00    +0.000 C 
ATOM     13  C   UNL     1      32.874 -22.061 -14.373  0.00  0.00    +0.003 C 
ATOM     14  C   UNL     1      32.535 -23.218 -16.467  0.00  0.00    +0.003 C 
ATOM     15  C   UNL     1      31.500 -22.093 -14.133  0.00  0.00    +0.037 C 
ATOM     16  C   UNL     1      31.161 -23.251 -16.228  0.00  0.00    +0.037 C 
ATOM     17  C   UNL     1      30.643 -22.689 -15.060  0.00  0.00    +0.139 C 
BRANCH  17  18
ATOM     18  O   UNL     1      29.303 -22.719 -14.827  0.00  0.00    -0.471 OA
ATOM     19  C   UNL     1      28.448 -22.349 -15.908  0.00  0.00    +0.252 C 
ENDBRANCH  17  18
ENDBRANCH   4  12
BRANCH   6  20
ATOM     20  C   UNL     1      34.837 -21.430 -18.109  0.00  0.00    +0.035 C 
ATOM     21  C   UNL     1      33.467 -21.480 -18.379  0.00  0.00    +0.006 C 
ATOM     22  C   UNL     1      35.693 -20.772 -18.995  0.00  0.00    +0.006 C 
ATOM     23  C   UNL     1      32.956 -20.874 -19.527  0.00  0.00    +0.037 C 
ATOM     24  C   UNL     1      35.182 -20.166 -20.143  0.00  0.00    +0.037 C 
ATOM     25  C   UNL     1      33.814 -20.217 -20.409  0.00  0.00    +0.139 C 
BRANCH  25  26
ATOM     26  O   UNL     1      33.316 -19.625 -21.529  0.00  0.00    -0.471 OA
ATOM     27  C   UNL     1      34.251 -18.992 -22.400  0.00  0.00    +0.252 C 
ENDBRANCH  25  26
ENDBRANCH   6  20
BRANCH  10  28
ATOM     28  C   UNL     1      35.069 -24.658 -11.693  0.00  0.00    +0.120 C 
BRANCH  28  29
ATOM     29  C   UNL     1      35.350 -23.627 -10.612  0.00  0.00    +0.158 C 
BRANCH  29  30
ATOM     30  O   UNL     1      35.057 -24.187  -9.338  0.00  0.00    -0.380 OA
ATOM     31  H   UNL     1      35.443 -25.075  -9.279  0.00  0.00    +0.211 HD
ENDBRANCH  29  30
ENDBRANCH  28  29
ENDBRANCH  10  28
TORSDOF 7
ENDMDL
MODEL 4
REMARK VINA RESULT:      -9.6      2.820      6.982
REMARK  Name = 2059510
REMARK  7 active torsions:
REMARK  status: ('A' for Active; 'I' for Inactive)
REMARK    1  A    between atoms: C_4  and  C_10
REMARK    2  A    between atoms: C_6  and  C_18
REMARK    3  A    between atoms: C_15  and  O_16
REMARK    4  A    between atoms: C_23  and  O_24
REMARK    5  A    between atoms: N_26  and  C_28
REMARK    6  A    between atoms: C_28  and  C_29
REMARK    7  A    between atoms: C_29  and  O_30
REMARK                            x       y       z     vdW  Elec       q    Type
REMARK                         _______ _______ _______ _____ _____    ______ ____
ROOT
ATOM      1  O   UNL     1      31.242 -21.746 -17.866  0.00  0.00    -0.440 OA
ATOM      2  N   UNL     1      29.133 -22.361 -16.930  0.00  0.00    -0.214 NA
ATOM      3  N   UNL     1      29.310 -23.667 -14.882  0.00  0.00    -0.233 NA
ATOM      4  C   UNL     1      32.628 -22.692 -16.365  0.00  0.00    +0.028 C 
ATOM      5  C   UNL     1      31.297 -22.959 -15.965  0.00  0.00    +0.155 C 
ATOM      6  C   UNL     1      32.540 -21.954 -17.523  0.00  0.00    +0.144 C 
ATOM      7  C   UNL     1      30.477 -22.358 -16.916  0.00  0.00    +0.214 C 
ATOM      8  C   UNL     1      30.662 -23.629 -14.922  0.00  0.00    +0.115 C 
ATOM      9  C   UNL     1      28.639 -23.040 -15.875  0.00  0.00    +0.254 C 
ATOM     10  N   UNL     1      31.403 -24.268 -13.912  0.00  0.00    -0.319 N 
ATOM     11  H   UNL     1      32.385 -24.231 -13.955  0.00  0.00    +0.148 HD
ENDROOT
BRANCH   4  12
ATOM     12  C   UNL     1      33.875 -23.066 -15.760  0.00  0.00    +0.000 C 
ATOM     13  C   UNL     1      34.697 -22.090 -15.197  0.00  0.00    +0.003 C 
ATOM     14  C   UNL     1      34.264 -24.406 -15.735  0.00  0.00    +0.003 C 
ATOM     15  C   UNL     1      35.909 -22.454 -14.608  0.00  0.00    +0.037 C 
ATOM     16  C   UNL     1      35.476 -24.770 -15.146  0.00  0.00    +0.037 C 
ATOM     17  C   UNL     1      36.299 -23.794 -14.583  0.00  0.00    +0.139 C 
BRANCH  17  18
ATOM     18  O   UNL     1      37.479 -24.148 -14.007  0.00  0.00    -0.471 OA
ATOM     19  C   UNL     1      37.958 -25.467 -14.268  0.00  0.00    +0.252 C 
ENDBRANCH  17  18
ENDBRANCH   4  12
BRANCH   6  20
ATOM     20  C   UNL     1      33.498 -21.370 -18.424  0.00  0.00    +0.035 C 
ATOM     21  C   UNL     1      33.068 -20.544 -19.466  0.00  0.00    +0.006 C 
ATOM     22  C   UNL     1      34.861 -21.626 -18.261  0.00  0.00    +0.006 C 
ATOM     23  C   UNL     1      33.996 -19.978 -20.339  0.00  0.00    +0.037 C 
ATOM     24  C   UNL     1      35.789 -21.059 -19.134  0.00  0.00    +0.037 C 
ATOM     25  C   UNL     1      35.357 -20.236 -20.173  0.00  0.00    +0.139 C 
BRANCH  25  26
ATOM     26  O   UNL     1      36.264 -19.683 -21.025  0.00  0.00    -0.471 OA
ATOM     27  C   UNL     1      36.207 -18.269 -21.206  0.00  0.00    +0.252 C 
ENDBRANCH  25  26
ENDBRANCH   6  20
BRANCH  10  28
ATOM     28  C   UNL     1      30.793 -24.969 -12.822  0.00  0.00    +0.120 C 
BRANCH  28  29
ATOM     29  C   UNL     1      29.887 -24.031 -12.042  0.00  0.00    +0.158 C 
BRANCH  29  30
ATOM     30  O   UNL     1      30.510 -22.758 -11.928  0.00  0.00    -0.380 OA
ATOM     31  H   UNL     1      31.400 -22.799 -12.313  0.00  0.00    +0.211 HD
ENDBRANCH  29  30
ENDBRANCH  28  29
ENDBRANCH  10  28
TORSDOF 7
ENDMDL
