MODEL 1
REMARK VINA RESULT:     -13.1      0.000      0.000
REMARK  Name = 3478
REMARK  7 active torsions:
REMARK  status: ('A' for Active; 'I' for Inactive)
REMARK    1  A    between atoms: C_1  and  S_7
REMARK    2  A    between atoms: C_2  and  C_22
REMARK    3  A    between atoms: S_7  and  N_12
REMARK    4  A    between atoms: N_11  and  C_16
REMARK    5  A    between atoms: C_22  and  C_23
REMARK    6  A    between atoms: C_23  and  N_25
REMARK    7  A    between atoms: C_26  and  C_30
REMARK                            x       y       z     vdW  Elec       q    Type
REMARK                         _______ _______ _______ _____ _____    ______ ____
ROOT
ATOM      1  C   UNL     1      33.917 -21.482 -18.769  0.00  0.00    +0.125 C 
ATOM      2  C   UNL     1      35.157 -19.628 -20.443  0.00  0.00    -0.020 C 
ATOM      3  C   UNL     1      35.302 -21.324 -18.731  0.00  0.00    +0.020 C 
ATOM      4  C   UNL     1      33.151 -20.712 -19.644  0.00  0.00    +0.020 C 
ATOM      5  C   UNL     1      35.923 -20.398 -19.569  0.00  0.00    -0.003 C 
ATOM      6  C   UNL     1      33.772 -19.785 -20.482  0.00  0.00    -0.003 C 
ENDROOT
BRANCH   1   7
ATOM      7  S   UNL     1      33.131 -22.657 -17.707  0.00  0.00    +0.077 S 
ATOM      8  O   UNL     1      33.064 -23.924 -18.408  0.00  0.00    -0.150 OA
ATOM      9  O   UNL     1      31.923 -22.028 -17.208  0.00  0.00    -0.150 OA
BRANCH   7  12
ATOM     10  O   UNL     1      33.086 -24.165 -14.993  0.00  0.00    -0.251 OA
ATOM     11  N   UNL     1      35.190 -23.421 -14.390  0.00  0.00    -0.289 N 
ATOM     12  N   UNL     1      34.273 -22.769 -16.441  0.00  0.00    -0.169 N 
ATOM     13  C   UNL     1      34.100 -23.515 -15.232  0.00  0.00    +0.319 C 
ATOM     14  H   UNL     1      35.958 -22.873 -14.674  0.00  0.00    +0.151 HD
ATOM     15  H   UNL     1      35.120 -22.279 -16.552  0.00  0.00    +0.178 HD
BRANCH  11  16
ATOM     16  C   UNL     1      35.256 -24.091 -13.111  0.00  0.00    +0.073 C 
ATOM     17  C   UNL     1      35.430 -23.085 -11.968  0.00  0.00    +0.020 C 
ATOM     18  C   UNL     1      36.370 -25.144 -13.097  0.00  0.00    +0.020 C 
ATOM     19  C   UNL     1      36.827 -22.464 -11.945  0.00  0.00    +0.002 C 
ATOM     20  C   UNL     1      37.765 -24.521 -13.072  0.00  0.00    +0.002 C 
ATOM     21  C   UNL     1      37.917 -23.531 -11.920  0.00  0.00    +0.000 C 
ENDBRANCH  11  16
ENDBRANCH   7  12
ENDBRANCH   1   7
BRANCH   2  22
ATOM     22  C   UNL     1      35.820 -18.636 -21.339  0.00  0.00    +0.048 C 
BRANCH  22  23
ATOM     23  C   UNL     1      35.003 -18.304 -22.595  0.00  0.00    +0.094 C 
BRANCH  23  25
ATOM     24  O   UNL     1      33.865 -16.913 -24.834  0.00  0.00    -0.269 OA
ATOM     25  N   UNL     1      34.594 -16.926 -22.632  0.00  0.00    -0.300 N 
ATOM     26  C   UNL     1      34.050 -16.335 -23.767  0.00  0.00    +0.261 C 
ATOM     27  H   UNL     1      34.703 -16.379 -21.821  0.00  0.00    +0.150 HD
BRANCH  26  30
ATOM     28  N   UNL     1      34.035 -14.286 -22.496  0.00  0.00    -0.262 NA
ATOM     29  N   UNL     1      32.754 -12.918 -24.583  0.00  0.00    -0.270 NA
ATOM     30  C   UNL     1      33.703 -14.895 -23.651  0.00  0.00    +0.132 C 
ATOM     31  C   UNL     1      33.074 -14.224 -24.676  0.00  0.00    +0.174 C 
ATOM     32  C   UNL     1      33.085 -12.307 -23.428  0.00  0.00    +0.057 C 
ATOM     33  C   UNL     1      33.715 -12.979 -22.403  0.00  0.00    +0.166 C 
ATOM     34  C   UNL     1      32.748 -10.864 -23.291  0.00  0.00    +0.049 C 
ENDBRANCH  26  30
ENDBRANCH  23  25
ENDBRANCH  22  23
ENDBRANCH   2  22
TORSDOF 7
ENDMDL
MODEL 2
REMARK VINA RESULT:     -12.5      1.383      1.743
REMARK  Name = 3478
REMARK  7 active torsions:
REMARK  status: ('A' for Active; 'I' for Inactive)
REMARK    1  A    between atoms: C_1  and  S_7
REMARK    2  A    between atoms: C_2  and  C_22
REMARK    3  A    between atoms: S_7  and  N_12
REMARK    4  A    between atoms: N_11  and  C_16
REMARK    5  A    between atoms: C_22  and  C_23
REMARK    6  A    between atoms: C_23  and  N_25
REMARK    7  A    between atoms: C_26  and  C_30
REMARK                            x       y       z     vdW  Elec       q    Type
REMARK                         _______ _______ _______ _____ _____    ______ ____
ROOT
ATOM      1  C   UNL     1      33.559 -21.406 -18.944  0.00  0.00    +0.125 C 
ATOM      2  C   UNL     1      34.239 -19.490 -20.852  0.00  0.00    -0.020 C 
ATOM      3  C   UNL     1      34.899 -21.106 -19.184  0.00  0.00    +0.020 C 
ATOM      4  C   UNL     1      32.558 -20.748 -19.657  0.00  0.00    +0.020 C 
ATOM      5  C   UNL     1      35.240 -20.149 -20.139  0.00  0.00    -0.003 C 
ATOM      6  C   UNL     1      32.898 -19.790 -20.612  0.00  0.00    -0.003 C 
ENDROOT
BRANCH   1   7
ATOM      7  S   UNL     1      33.128 -22.621 -17.733  0.00  0.00    +0.077 S 
ATOM      8  O   UNL     1      33.074 -23.913 -18.390  0.00  0.00    -0.150 OA
ATOM      9  O   UNL     1      31.974 -22.110 -17.019  0.00  0.00    -0.150 OA
BRANCH   7  12
ATOM     10  O   UNL     1      33.754 -23.993 -15.018  0.00  0.00    -0.251 OA
ATOM     11  N   UNL     1      35.847 -23.024 -14.857  0.00  0.00    -0.289 N 
ATOM     12  N   UNL     1      34.495 -22.562 -16.710  0.00  0.00    -0.169 N 
ATOM     13  C   UNL     1      34.632 -23.262 -15.469  0.00  0.00    +0.319 C 
ATOM     14  H   UNL     1      36.486 -22.420 -15.301  0.00  0.00    +0.151 HD
ATOM     15  H   UNL     1      35.251 -22.000 -16.997  0.00  0.00    +0.178 HD
BRANCH  11  16
ATOM     16  C   UNL     1      36.223 -23.622 -13.596  0.00  0.00    +0.073 C 
ATOM     17  C   UNL     1      37.716 -23.420 -13.312  0.00  0.00    +0.020 C 
ATOM     18  C   UNL     1      35.846 -25.107 -13.556  0.00  0.00    +0.020 C 
ATOM     19  C   UNL     1      38.603 -24.277 -14.215  0.00  0.00    +0.002 C 
ATOM     20  C   UNL     1      36.736 -25.961 -14.458  0.00  0.00    +0.002 C 
ATOM     21  C   UNL     1      38.216 -25.752 -14.150  0.00  0.00    +0.000 C 
ENDBRANCH  11  16
ENDBRANCH   7  12
ENDBRANCH   1   7
BRANCH   2  22
ATOM     22  C   UNL     1      34.602 -18.465 -21.873  0.00  0.00    +0.048 C 
BRANCH  22  23
ATOM     23  C   UNL     1      35.331 -17.248 -21.288  0.00  0.00    +0.094 C 
BRANCH  23  25
ATOM     24  O   UNL     1      34.780 -15.349 -23.369  0.00  0.00    -0.269 OA
ATOM     25  N   UNL     1      34.478 -16.094 -21.193  0.00  0.00    -0.300 N 
ATOM     26  C   UNL     1      34.270 -15.226 -22.259  0.00  0.00    +0.261 C 
ATOM     27  H   UNL     1      34.023 -15.911 -20.339  0.00  0.00    +0.150 HD
BRANCH  26  30
ATOM     28  N   UNL     1      32.803 -14.015 -20.776  0.00  0.00    -0.262 NA
ATOM     29  N   UNL     1      32.364 -12.034 -22.713  0.00  0.00    -0.270 NA
ATOM     30  C   UNL     1      33.382 -14.065 -21.992  0.00  0.00    +0.132 C 
ATOM     31  C   UNL     1      33.167 -13.092 -22.943  0.00  0.00    +0.174 C 
ATOM     32  C   UNL     1      31.784 -11.984 -21.497  0.00  0.00    +0.057 C 
ATOM     33  C   UNL     1      32.000 -12.958 -20.546  0.00  0.00    +0.166 C 
ATOM     34  C   UNL     1      30.891 -10.829 -21.207  0.00  0.00    +0.049 C 
ENDBRANCH  26  30
ENDBRANCH  23  25
ENDBRANCH  22  23
ENDBRANCH   2  22
TORSDOF 7
ENDMDL
MODEL 3
REMARK VINA RESULT:     -12.1      3.052      4.534
REMARK  Name = 3478
REMARK  7 active torsions:
REMARK  status: ('A' for Active; 'I' for Inactive)
REMARK    1  A    between atoms: C_1  and  S_7
REMARK    2  A    between atoms: C_2  and  C_22
REMARK    3  A    between atoms: S_7  and  N_12
REMARK    4  A    between atoms: N_11  and  C_16
REMARK    5  A    between atoms: C_22  and  C_23
REMARK    6  A    between atoms: C_23  and  N_25
REMARK    7  A    between atoms: C_26  and  C_30
REMARK                            x       y       z     vdW  Elec       q    Type
REMARK                         _______ _______ _______ _____ _____    ______ ____
ROOT
ATOM      1  C   UNL     1      34.863 -21.983 -17.225  0.00  0.00    +0.125 C 
ATOM      2  C   UNL     1      35.019 -20.726 -19.710  0.00  0.00    -0.020 C 
ATOM      3  C   UNL     1      36.041 -21.343 -17.611  0.00  0.00    +0.020 C 
ATOM      4  C   UNL     1      33.763 -21.994 -18.081  0.00  0.00    +0.020 C 
ATOM      5  C   UNL     1      36.119 -20.715 -18.853  0.00  0.00    -0.003 C 
ATOM      6  C   UNL     1      33.841 -21.366 -19.325  0.00  0.00    -0.003 C 
ENDROOT
BRANCH   1   7
ATOM      7  S   UNL     1      34.763 -22.779 -15.649  0.00  0.00    +0.077 S 
ATOM      8  O   UNL     1      34.816 -21.757 -14.623  0.00  0.00    -0.150 OA
ATOM      9  O   UNL     1      35.732 -23.858 -15.664  0.00  0.00    -0.150 OA
BRANCH   7  12
ATOM     10  O   UNL     1      32.233 -22.291 -13.916  0.00  0.00    -0.251 OA
ATOM     11  N   UNL     1      30.953 -23.794 -15.118  0.00  0.00    -0.289 N 
ATOM     12  N   UNL     1      33.187 -23.436 -15.714  0.00  0.00    -0.169 N 
ATOM     13  C   UNL     1      32.114 -23.105 -14.827  0.00  0.00    +0.319 C 
ATOM     14  H   UNL     1      30.959 -24.428 -15.872  0.00  0.00    +0.151 HD
ATOM     15  H   UNL     1      33.002 -24.098 -16.419  0.00  0.00    +0.178 HD
BRANCH  11  16
ATOM     16  C   UNL     1      29.729 -23.626 -14.367  0.00  0.00    +0.073 C 
ATOM     17  C   UNL     1      28.697 -24.692 -14.749  0.00  0.00    +0.020 C 
ATOM     18  C   UNL     1      29.162 -22.214 -14.546  0.00  0.00    +0.020 C 
ATOM     19  C   UNL     1      28.112 -24.466 -16.143  0.00  0.00    +0.002 C 
ATOM     20  C   UNL     1      28.576 -21.992 -15.941  0.00  0.00    +0.002 C 
ATOM     21  C   UNL     1      27.543 -23.058 -16.294  0.00  0.00    +0.000 C 
ENDBRANCH  11  16
ENDBRANCH   7  12
ENDBRANCH   1   7
BRANCH   2  22
ATOM     22  C   UNL     1      35.102 -20.054 -21.039  0.00  0.00    +0.048 C 
BRANCH  22  23
ATOM     23  C   UNL     1      35.845 -18.712 -21.002  0.00  0.00    +0.094 C 
BRANCH  23  25
ATOM     24  O   UNL     1      34.594 -16.196 -20.417  0.00  0.00    -0.269 OA
ATOM     25  N   UNL     1      35.322 -17.772 -21.956  0.00  0.00    -0.300 N 
ATOM     26  C   UNL     1      34.729 -16.572 -21.578  0.00  0.00    +0.261 C 
ATOM     27  H   UNL     1      35.385 -17.987 -22.915  0.00  0.00    +0.150 HD
BRANCH  26  30
ATOM     28  N   UNL     1      33.799 -14.485 -22.349  0.00  0.00    -0.262 NA
ATOM     29  N   UNL     1      33.705 -15.421 -24.991  0.00  0.00    -0.270 NA
ATOM     30  C   UNL     1      34.215 -15.722 -22.683  0.00  0.00    +0.132 C 
ATOM     31  C   UNL     1      34.170 -16.182 -23.981  0.00  0.00    +0.174 C 
ATOM     32  C   UNL     1      33.288 -14.183 -24.658  0.00  0.00    +0.057 C 
ATOM     33  C   UNL     1      33.335 -13.723 -23.359  0.00  0.00    +0.166 C 
ATOM     34  C   UNL     1      32.770 -13.313 -25.749  0.00  0.00    +0.049 C 
ENDBRANCH  26  30
ENDBRANCH  23  25
ENDBRANCH  22  23
ENDBRANCH   2  22
TORSDOF 7
ENDMDL
MODEL 4
REMARK VINA RESULT:     -12.1      3.120      4.808
REMARK  Name = 3478
REMARK  7 active torsions:
REMARK  status: ('A' for Active; 'I' for Inactive)
REMARK    1  A    between atoms: C_1  and  S_7
REMARK    2  A    between atoms: C_2  and  C_22
REMARK    3  A    between atoms: S_7  and  N_12
REMARK    4  A    between atoms: N_11  and  C_16
REMARK    5  A    between atoms: C_22  and  C_23
REMARK    6  A    between atoms: C_23  and  N_25
REMARK    7  A    between atoms: C_26  and  C_30
REMARK                            x       y       z     vdW  Elec       q    Type
REMARK                         _______ _______ _______ _____ _____    ______ ____
ROOT
ATOM      1  C   UNL     1      35.664 -22.894 -15.397  0.00  0.00    +0.125 C 
ATOM      2  C   UNL     1      35.867 -21.369 -17.723  0.00  0.00    -0.020 C 
ATOM      3  C   UNL     1      36.844 -22.206 -15.679  0.00  0.00    +0.020 C 
ATOM      4  C   UNL     1      34.586 -22.821 -16.277  0.00  0.00    +0.020 C 
ATOM      5  C   UNL     1      36.946 -21.444 -16.842  0.00  0.00    -0.003 C 
ATOM      6  C   UNL     1      34.687 -22.058 -17.441  0.00  0.00    -0.003 C 
ENDROOT
BRANCH   1   7
ATOM      7  S   UNL     1      35.536 -23.861 -13.922  0.00  0.00    +0.077 S 
ATOM      8  O   UNL     1      35.564 -22.958 -12.787  0.00  0.00    -0.150 OA
ATOM      9  O   UNL     1      36.509 -24.930 -14.035  0.00  0.00    -0.150 OA
BRANCH   7  12
ATOM     10  O   UNL     1      32.822 -23.108 -12.612  0.00  0.00    -0.251 OA
ATOM     11  N   UNL     1      31.664 -24.760 -13.740  0.00  0.00    -0.289 N 
ATOM     12  N   UNL     1      33.964 -24.509 -14.092  0.00  0.00    -0.169 N 
ATOM     13  C   UNL     1      32.797 -24.045 -13.405  0.00  0.00    +0.319 C 
ATOM     14  H   UNL     1      31.748 -25.497 -14.389  0.00  0.00    +0.151 HD
ATOM     15  H   UNL     1      33.851 -25.265 -14.713  0.00  0.00    +0.178 HD
BRANCH  11  16
ATOM     16  C   UNL     1      30.361 -24.477 -13.182  0.00  0.00    +0.073 C 
ATOM     17  C   UNL     1      29.266 -25.267 -13.907  0.00  0.00    +0.020 C 
ATOM     18  C   UNL     1      30.067 -22.973 -13.205  0.00  0.00    +0.020 C 
ATOM     19  C   UNL     1      29.002 -24.741 -15.317  0.00  0.00    +0.002 C 
ATOM     20  C   UNL     1      29.802 -22.450 -14.616  0.00  0.00    +0.002 C 
ATOM     21  C   UNL     1      28.701 -23.245 -15.313  0.00  0.00    +0.000 C 
ENDBRANCH  11  16
ENDBRANCH   7  12
ENDBRANCH   1   7
BRANCH   2  22
ATOM     22  C   UNL     1      35.975 -20.554 -18.968  0.00  0.00    +0.048 C 
BRANCH  22  23
ATOM     23  C   UNL     1      34.725 -20.622 -19.854  0.00  0.00    +0.094 C 
BRANCH  23  25
ATOM     24  O   UNL     1      36.558 -18.801 -21.105  0.00  0.00    -0.269 OA
ATOM     25  N   UNL     1      34.404 -19.350 -20.445  0.00  0.00    -0.300 N 
ATOM     26  C   UNL     1      35.363 -18.532 -21.030  0.00  0.00    +0.261 C 
ATOM     27  H   UNL     1      33.467 -19.047 -20.433  0.00  0.00    +0.150 HD
BRANCH  26  30
ATOM     28  N   UNL     1      34.590 -16.276 -20.671  0.00  0.00    -0.262 NA
ATOM     29  N   UNL     1      34.281 -15.868 -23.429  0.00  0.00    -0.270 NA
ATOM     30  C   UNL     1      34.874 -17.237 -21.571  0.00  0.00    +0.132 C 
ATOM     31  C   UNL     1      34.723 -17.038 -22.926  0.00  0.00    +0.174 C 
ATOM     32  C   UNL     1      33.996 -14.905 -22.530  0.00  0.00    +0.057 C 
ATOM     33  C   UNL     1      34.148 -15.106 -21.175  0.00  0.00    +0.166 C 
ATOM     34  C   UNL     1      33.507 -13.599 -23.050  0.00  0.00    +0.049 C 
ENDBRANCH  26  30
ENDBRANCH  23  25
ENDBRANCH  22  23
ENDBRANCH   2  22
TORSDOF 7
ENDMDL
MODEL 5
REMARK VINA RESULT:     -12.0      2.406     11.474
REMARK  Name = 3478
REMARK  7 active torsions:
REMARK  status: ('A' for Active; 'I' for Inactive)
REMARK    1  A    between atoms: C_1  and  S_7
REMARK    2  A    between atoms: C_2  and  C_22
REMARK    3  A    between atoms: S_7  and  N_12
REMARK    4  A    between atoms: N_11  and  C_16
REMARK    5  A    between atoms: C_22  and  C_23
REMARK    6  A    between atoms: C_23  and  N_25
REMARK    7  A    between atoms: C_26  and  C_30
REMARK                            x       y       z     vdW  Elec       q    Type
REMARK                         _______ _______ _______ _____ _____    ______ ____
ROOT
ATOM      1  C   UNL     1      34.300 -19.814 -20.624  0.00  0.00    +0.125 C 
ATOM      2  C   UNL     1      33.421 -21.677 -18.743  0.00  0.00    -0.020 C 
ATOM      3  C   UNL     1      35.224 -20.600 -19.935  0.00  0.00    +0.020 C 
ATOM      4  C   UNL     1      32.936 -19.959 -20.372  0.00  0.00    +0.020 C 
ATOM      5  C   UNL     1      34.785 -21.531 -18.994  0.00  0.00    -0.003 C 
ATOM      6  C   UNL     1      32.496 -20.891 -19.431  0.00  0.00    -0.003 C 
ENDROOT
BRANCH   1   7
ATOM      7  S   UNL     1      34.857 -18.634 -21.816  0.00  0.00    +0.077 S 
ATOM      8  O   UNL     1      34.157 -18.885 -23.061  0.00  0.00    -0.150 OA
ATOM      9  O   UNL     1      36.306 -18.645 -21.772  0.00  0.00    -0.150 OA
BRANCH   7  12
ATOM     10  O   UNL     1      35.223 -15.660 -22.634  0.00  0.00    -0.251 OA
ATOM     11  N   UNL     1      33.953 -14.876 -20.869  0.00  0.00    -0.289 N 
ATOM     12  N   UNL     1      34.284 -17.178 -21.128  0.00  0.00    -0.169 N 
ATOM     13  C   UNL     1      34.546 -15.864 -21.631  0.00  0.00    +0.319 C 
ATOM     14  H   UNL     1      33.428 -15.144 -20.079  0.00  0.00    +0.151 HD
ATOM     15  H   UNL     1      33.728 -17.249 -20.318  0.00  0.00    +0.178 HD
BRANCH  11  16
ATOM     16  C   UNL     1      34.069 -13.469 -21.177  0.00  0.00    +0.073 C 
ATOM     17  C   UNL     1      33.120 -12.634 -20.310  0.00  0.00    +0.020 C 
ATOM     18  C   UNL     1      33.829 -13.211 -22.669  0.00  0.00    +0.020 C 
ATOM     19  C   UNL     1      31.655 -12.810 -20.709  0.00  0.00    +0.002 C 
ATOM     20  C   UNL     1      32.363 -13.386 -23.065  0.00  0.00    +0.002 C 
ATOM     21  C   UNL     1      31.440 -12.537 -22.195  0.00  0.00    +0.000 C 
ENDBRANCH  11  16
ENDBRANCH   7  12
ENDBRANCH   1   7
BRANCH   2  22
ATOM     22  C   UNL     1      32.950 -22.672 -17.737  0.00  0.00    +0.048 C 
BRANCH  22  23
ATOM     23  C   UNL     1      33.378 -22.342 -16.302  0.00  0.00    +0.094 C 
BRANCH  23  25
ATOM     24  O   UNL     1      33.929 -24.297 -14.271  0.00  0.00    -0.269 OA
ATOM     25  N   UNL     1      34.662 -22.901 -15.973  0.00  0.00    -0.300 N 
ATOM     26  C   UNL     1      34.834 -23.847 -14.968  0.00  0.00    +0.261 C 
ATOM     27  H   UNL     1      35.452 -22.600 -16.479  0.00  0.00    +0.150 HD
BRANCH  26  30
ATOM     28  N   UNL     1      36.407 -25.629 -14.562  0.00  0.00    -0.262 NA
ATOM     29  N   UNL     1      38.547 -23.818 -14.485  0.00  0.00    -0.270 NA
ATOM     30  C   UNL     1      36.228 -24.305 -14.734  0.00  0.00    +0.132 C 
ATOM     31  C   UNL     1      37.279 -23.415 -14.697  0.00  0.00    +0.174 C 
ATOM     32  C   UNL     1      38.727 -25.142 -14.312  0.00  0.00    +0.057 C 
ATOM     33  C   UNL     1      37.675 -26.032 -14.350  0.00  0.00    +0.166 C 
ATOM     34  C   UNL     1      40.116 -25.624 -14.077  0.00  0.00    +0.049 C 
ENDBRANCH  26  30
ENDBRANCH  23  25
ENDBRANCH  22  23
ENDBRANCH   2  22
TORSDOF 7
ENDMDL
MODEL 6
REMARK VINA RESULT:     -11.8      4.855     13.254
REMARK  Name = 3478
REMARK  7 active torsions:
REMARK  status: ('A' for Active; 'I' for Inactive)
REMARK    1  A    between atoms: C_1  and  S_7
REMARK    2  A    between atoms: C_2  and  C_22
REMARK    3  A    between atoms: S_7  and  N_12
REMARK    4  A    between atoms: N_11  and  C_16
REMARK    5  A    between atoms: C_22  and  C_23
REMARK    6  A    between atoms: C_23  and  N_25
REMARK    7  A    between atoms: C_26  and  C_30
REMARK                            x       y       z     vdW  Elec       q    Type
REMARK                         _______ _______ _______ _____ _____    ______ ____
ROOT
ATOM      1  C   UNL     1      32.452 -12.560 -21.743  0.00  0.00    +0.125 C 
ATOM      2  C   UNL     1      34.080 -14.729 -22.394  0.00  0.00    -0.020 C 
ATOM      3  C   UNL     1      32.998 -13.351 -20.732  0.00  0.00    +0.020 C 
ATOM      4  C   UNL     1      32.720 -12.852 -23.079  0.00  0.00    +0.020 C 
ATOM      5  C   UNL     1      33.811 -14.436 -21.058  0.00  0.00    -0.003 C 
ATOM      6  C   UNL     1      33.534 -13.938 -23.405  0.00  0.00    -0.003 C 
ENDROOT
BRANCH   1   7
ATOM      7  S   UNL     1      31.421 -11.184 -21.330  0.00  0.00    +0.077 S 
ATOM      8  O   UNL     1      31.656 -10.846 -19.939  0.00  0.00    -0.150 OA
ATOM      9  O   UNL     1      30.086 -11.507 -21.794  0.00  0.00    -0.150 OA
BRANCH   7  12
ATOM     10  O   UNL     1      31.022  -8.105 -21.400  0.00  0.00    -0.251 OA
ATOM     11  N   UNL     1      32.478  -7.820 -23.174  0.00  0.00    -0.289 N 
ATOM     12  N   UNL     1      32.085  -9.967 -22.328  0.00  0.00    -0.169 N 
ATOM     13  C   UNL     1      31.795  -8.568 -22.235  0.00  0.00    +0.319 C 
ATOM     14  H   UNL     1      33.076  -8.287 -23.802  0.00  0.00    +0.151 HD
ATOM     15  H   UNL     1      32.719 -10.250 -23.026  0.00  0.00    +0.178 HD
BRANCH  11  16
ATOM     16  C   UNL     1      32.354  -6.384 -23.276  0.00  0.00    +0.073 C 
ATOM     17  C   UNL     1      31.221  -5.993 -24.232  0.00  0.00    +0.020 C 
ATOM     18  C   UNL     1      33.682  -5.746 -23.699  0.00  0.00    +0.020 C 
ATOM     19  C   UNL     1      31.568  -6.273 -25.694  0.00  0.00    +0.002 C 
ATOM     20  C   UNL     1      34.025  -6.025 -25.162  0.00  0.00    +0.002 C 
ATOM     21  C   UNL     1      32.888  -5.618 -26.095  0.00  0.00    +0.000 C 
ENDBRANCH  11  16
ENDBRANCH   7  12
ENDBRANCH   1   7
BRANCH   2  22
ATOM     22  C   UNL     1      34.950 -15.889 -22.744  0.00  0.00    +0.048 C 
BRANCH  22  23
ATOM     23  C   UNL     1      34.176 -17.084 -23.316  0.00  0.00    +0.094 C 
BRANCH  23  25
ATOM     24  O   UNL     1      36.028 -18.558 -21.691  0.00  0.00    -0.269 OA
ATOM     25  N   UNL     1      33.849 -18.057 -22.308  0.00  0.00    -0.300 N 
ATOM     26  C   UNL     1      34.817 -18.724 -21.567  0.00  0.00    +0.261 C 
ATOM     27  H   UNL     1      32.900 -18.258 -22.137  0.00  0.00    +0.150 HD
BRANCH  26  30
ATOM     28  N   UNL     1      35.246 -20.362 -19.850  0.00  0.00    -0.262 NA
ATOM     29  N   UNL     1      32.503 -20.862 -19.543  0.00  0.00    -0.270 NA
ATOM     30  C   UNL     1      34.317 -19.718 -20.583  0.00  0.00    +0.132 C 
ATOM     31  C   UNL     1      32.969 -19.963 -20.433  0.00  0.00    +0.174 C 
ATOM     32  C   UNL     1      33.431 -21.507 -18.810  0.00  0.00    +0.057 C 
ATOM     33  C   UNL     1      34.779 -21.261 -18.960  0.00  0.00    +0.166 C 
ATOM     34  C   UNL     1      32.952 -22.506 -17.816  0.00  0.00    +0.049 C 
ENDBRANCH  26  30
ENDBRANCH  23  25
ENDBRANCH  22  23
ENDBRANCH   2  22
TORSDOF 7
ENDMDL
MODEL 7
REMARK VINA RESULT:     -11.6      3.335      4.652
REMARK  Name = 3478
REMARK  7 active torsions:
REMARK  status: ('A' for Active; 'I' for Inactive)
REMARK    1  A    between atoms: C_1  and  S_7
REMARK    2  A    between atoms: C_2  and  C_22
REMARK    3  A    between atoms: S_7  and  N_12
REMARK    4  A    between atoms: N_11  and  C_16
REMARK    5  A    between atoms: C_22  and  C_23
REMARK    6  A    between atoms: C_23  and  N_25
REMARK    7  A    between atoms: C_26  and  C_30
REMARK                            x       y       z     vdW  Elec       q    Type
REMARK                         _______ _______ _______ _____ _____    ______ ____
ROOT
ATOM      1  C   UNL     1      33.946 -21.235 -19.326  0.00  0.00    +0.125 C 
ATOM      2  C   UNL     1      34.316 -19.166 -21.160  0.00  0.00    -0.020 C 
ATOM      3  C   UNL     1      35.235 -20.837 -19.678  0.00  0.00    +0.020 C 
ATOM      4  C   UNL     1      32.841 -20.599 -19.890  0.00  0.00    +0.020 C 
ATOM      5  C   UNL     1      35.421 -19.803 -20.595  0.00  0.00    -0.003 C 
ATOM      6  C   UNL     1      33.026 -19.564 -20.808  0.00  0.00    -0.003 C 
ENDROOT
BRANCH   1   7
ATOM      7  S   UNL     1      33.711 -22.546 -18.163  0.00  0.00    +0.077 S 
ATOM      8  O   UNL     1      34.738 -22.435 -17.145  0.00  0.00    -0.150 OA
ATOM      9  O   UNL     1      33.567 -23.767 -18.932  0.00  0.00    -0.150 OA
BRANCH   7  12
ATOM     10  O   UNL     1      32.043 -23.775 -15.850  0.00  0.00    -0.251 OA
ATOM     11  N   UNL     1      30.336 -22.233 -16.079  0.00  0.00    -0.289 N 
ATOM     12  N   UNL     1      32.199 -22.121 -17.491  0.00  0.00    -0.169 N 
ATOM     13  C   UNL     1      31.551 -22.800 -16.410  0.00  0.00    +0.319 C 
ATOM     14  H   UNL     1      30.029 -21.449 -16.591  0.00  0.00    +0.151 HD
ATOM     15  H   UNL     1      31.734 -21.345 -17.880  0.00  0.00    +0.178 HD
BRANCH  11  16
ATOM     16  C   UNL     1      29.497 -22.737 -15.016  0.00  0.00    +0.073 C 
ATOM     17  C   UNL     1      28.870 -24.082 -15.398  0.00  0.00    +0.020 C 
ATOM     18  C   UNL     1      28.422 -21.714 -14.631  0.00  0.00    +0.020 C 
ATOM     19  C   UNL     1      27.784 -23.939 -16.465  0.00  0.00    +0.002 C 
ATOM     20  C   UNL     1      27.337 -21.575 -15.698  0.00  0.00    +0.002 C 
ATOM     21  C   UNL     1      26.721 -22.925 -16.054  0.00  0.00    +0.000 C 
ENDBRANCH  11  16
ENDBRANCH   7  12
ENDBRANCH   1   7
BRANCH   2  22
ATOM     22  C   UNL     1      34.513 -18.060 -22.140  0.00  0.00    +0.048 C 
BRANCH  22  23
ATOM     23  C   UNL     1      35.257 -16.851 -21.559  0.00  0.00    +0.094 C 
BRANCH  23  25
ATOM     24  O   UNL     1      34.508 -14.951 -23.576  0.00  0.00    -0.269 OA
ATOM     25  N   UNL     1      34.397 -15.711 -21.388  0.00  0.00    -0.300 N 
ATOM     26  C   UNL     1      34.089 -14.841 -22.427  0.00  0.00    +0.261 C 
ATOM     27  H   UNL     1      34.012 -15.539 -20.498  0.00  0.00    +0.150 HD
BRANCH  26  30
ATOM     28  N   UNL     1      32.571 -13.761 -20.895  0.00  0.00    -0.262 NA
ATOM     29  N   UNL     1      32.260 -11.580 -22.631  0.00  0.00    -0.270 NA
ATOM     30  C   UNL     1      33.208 -13.696 -22.081  0.00  0.00    +0.132 C 
ATOM     31  C   UNL     1      33.056 -12.624 -22.934  0.00  0.00    +0.174 C 
ATOM     32  C   UNL     1      31.622 -11.645 -21.445  0.00  0.00    +0.057 C 
ATOM     33  C   UNL     1      31.775 -12.717 -20.592  0.00  0.00    +0.166 C 
ATOM     34  C   UNL     1      30.735 -10.507 -21.077  0.00  0.00    +0.049 C 
ENDBRANCH  26  30
ENDBRANCH  23  25
ENDBRANCH  22  23
ENDBRANCH   2  22
TORSDOF 7
ENDMDL
MODEL 8
REMARK VINA RESULT:     -11.5      2.403      3.614
REMARK  Name = 3478
REMARK  7 active torsions:
REMARK  status: ('A' for Active; 'I' for Inactive)
REMARK    1  A    between atoms: C_1  and  S_7
REMARK    2  A    between atoms: C_2  and  C_22
REMARK    3  A    between atoms: S_7  and  N_12
REMARK    4  A    between atoms: N_11  and  C_16
REMARK    5  A    between atoms: C_22  and  C_23
REMARK    6  A    between atoms: C_23  and  N_25
REMARK    7  A    between atoms: C_26  and  C_30
REMARK                            x       y       z     vdW  Elec       q    Type
REMARK                         _______ _______ _______ _____ _____    ______ ____
ROOT
ATOM      1  C   UNL     1      32.217 -23.130 -15.488  0.00  0.00    +0.125 C 
ATOM      2  C   UNL     1      32.626 -22.060 -18.031  0.00  0.00    -0.020 C 
ATOM      3  C   UNL     1      33.487 -23.166 -16.065  0.00  0.00    +0.020 C 
ATOM      4  C   UNL     1      31.152 -22.558 -16.182  0.00  0.00    +0.020 C 
ATOM      5  C   UNL     1      33.691 -22.632 -17.336  0.00  0.00    -0.003 C 
ATOM      6  C   UNL     1      31.356 -22.023 -17.455  0.00  0.00    -0.003 C 
ENDROOT
BRANCH   1   7
ATOM      7  S   UNL     1      31.958 -23.808 -13.876  0.00  0.00    +0.077 S 
ATOM      8  O   UNL     1      30.906 -24.802 -13.968  0.00  0.00    -0.150 OA
ATOM      9  O   UNL     1      31.833 -22.687 -12.965  0.00  0.00    -0.150 OA
BRANCH   7  12
ATOM     10  O   UNL     1      34.676 -22.778 -12.780  0.00  0.00    -0.251 OA
ATOM     11  N   UNL     1      35.693 -24.844 -12.977  0.00  0.00    -0.289 N 
ATOM     12  N   UNL     1      33.453 -24.589 -13.605  0.00  0.00    -0.169 N 
ATOM     13  C   UNL     1      34.633 -23.966 -13.088  0.00  0.00    +0.319 C 
ATOM     14  H   UNL     1      35.558 -25.781 -13.252  0.00  0.00    +0.151 HD
ATOM     15  H   UNL     1      33.508 -25.548 -13.824  0.00  0.00    +0.178 HD
BRANCH  11  16
ATOM     16  C   UNL     1      36.991 -24.452 -12.475  0.00  0.00    +0.073 C 
ATOM     17  C   UNL     1      37.507 -23.202 -13.196  0.00  0.00    +0.020 C 
ATOM     18  C   UNL     1      37.993 -25.607 -12.579  0.00  0.00    +0.020 C 
ATOM     19  C   UNL     1      37.925 -23.490 -14.638  0.00  0.00    +0.002 C 
ATOM     20  C   UNL     1      38.411 -25.891 -14.022  0.00  0.00    +0.002 C 
ATOM     21  C   UNL     1      38.931 -24.635 -14.715  0.00  0.00    +0.000 C 
ENDBRANCH  11  16
ENDBRANCH   7  12
ENDBRANCH   1   7
BRANCH   2  22
ATOM     22  C   UNL     1      32.844 -21.487 -19.391  0.00  0.00    +0.048 C 
BRANCH  22  23
ATOM     23  C   UNL     1      34.166 -20.721 -19.529  0.00  0.00    +0.094 C 
BRANCH  23  25
ATOM     24  O   UNL     1      36.272 -19.016 -20.476  0.00  0.00    -0.269 OA
ATOM     25  N   UNL     1      34.013 -19.494 -20.262  0.00  0.00    -0.300 N 
ATOM     26  C   UNL     1      35.095 -18.730 -20.682  0.00  0.00    +0.261 C 
ATOM     27  H   UNL     1      33.103 -19.181 -20.475  0.00  0.00    +0.150 HD
BRANCH  26  30
ATOM     28  N   UNL     1      34.559 -16.379 -20.649  0.00  0.00    -0.262 NA
ATOM     29  N   UNL     1      34.390 -16.307 -23.448  0.00  0.00    -0.270 NA
ATOM     30  C   UNL     1      34.768 -17.475 -21.405  0.00  0.00    +0.132 C 
ATOM     31  C   UNL     1      34.686 -17.440 -22.780  0.00  0.00    +0.174 C 
ATOM     32  C   UNL     1      34.180 -15.211 -22.693  0.00  0.00    +0.057 C 
ATOM     33  C   UNL     1      34.263 -15.246 -21.317  0.00  0.00    +0.166 C 
ATOM     34  C   UNL     1      33.852 -13.941 -23.398  0.00  0.00    +0.049 C 
ENDBRANCH  26  30
ENDBRANCH  23  25
ENDBRANCH  22  23
ENDBRANCH   2  22
TORSDOF 7
ENDMDL
MODEL 9
REMARK VINA RESULT:     -11.4      3.460     11.331
REMARK  Name = 3478
REMARK  7 active torsions:
REMARK  status: ('A' for Active; 'I' for Inactive)
REMARK    1  A    between atoms: C_1  and  S_7
REMARK    2  A    between atoms: C_2  and  C_22
REMARK    3  A    between atoms: S_7  and  N_12
REMARK    4  A    between atoms: N_11  and  C_16
REMARK    5  A    between atoms: C_22  and  C_23
REMARK    6  A    between atoms: C_23  and  N_25
REMARK    7  A    between atoms: C_26  and  C_30
REMARK                            x       y       z     vdW  Elec       q    Type
REMARK                         _______ _______ _______ _____ _____    ______ ____
ROOT
ATOM      1  C   UNL     1      34.096 -17.255 -23.240  0.00  0.00    +0.125 C 
ATOM      2  C   UNL     1      35.061 -18.843 -21.160  0.00  0.00    -0.020 C 
ATOM      3  C   UNL     1      33.791 -18.615 -23.201  0.00  0.00    +0.020 C 
ATOM      4  C   UNL     1      34.884 -16.688 -22.239  0.00  0.00    +0.020 C 
ATOM      5  C   UNL     1      34.274 -19.410 -22.162  0.00  0.00    -0.003 C 
ATOM      6  C   UNL     1      35.367 -17.483 -21.199  0.00  0.00    -0.003 C 
ENDROOT
BRANCH   1   7
ATOM      7  S   UNL     1      33.484 -16.248 -24.558  0.00  0.00    +0.077 S 
ATOM      8  O   UNL     1      32.524 -17.029 -25.314  0.00  0.00    -0.150 OA
ATOM      9  O   UNL     1      34.640 -15.668 -25.214  0.00  0.00    -0.150 OA
BRANCH   7  12
ATOM     10  O   UNL     1      34.498 -13.755 -23.007  0.00  0.00    -0.251 OA
ATOM     11  N   UNL     1      32.368 -13.104 -22.388  0.00  0.00    -0.289 N 
ATOM     12  N   UNL     1      32.662 -15.030 -23.685  0.00  0.00    -0.169 N 
ATOM     13  C   UNL     1      33.283 -13.930 -23.012  0.00  0.00    +0.319 C 
ATOM     14  H   UNL     1      31.411 -13.331 -22.451  0.00  0.00    +0.151 HD
ATOM     15  H   UNL     1      31.680 -15.091 -23.640  0.00  0.00    +0.178 HD
BRANCH  11  16
ATOM     16  C   UNL     1      32.750 -11.923 -21.648  0.00  0.00    +0.073 C 
ATOM     17  C   UNL     1      31.651 -11.508 -20.665  0.00  0.00    +0.020 C 
ATOM     18  C   UNL     1      33.113 -10.774 -22.595  0.00  0.00    +0.020 C 
ATOM     19  C   UNL     1      30.429 -10.919 -21.370  0.00  0.00    +0.002 C 
ATOM     20  C   UNL     1      31.889 -10.186 -23.297  0.00  0.00    +0.002 C 
ATOM     21  C   UNL     1      30.813  -9.770 -22.298  0.00  0.00    +0.000 C 
ENDBRANCH  11  16
ENDBRANCH   7  12
ENDBRANCH   1   7
BRANCH   2  22
ATOM     22  C   UNL     1      35.578 -19.692 -20.048  0.00  0.00    +0.048 C 
BRANCH  22  23
ATOM     23  C   UNL     1      35.170 -21.167 -20.162  0.00  0.00    +0.094 C 
BRANCH  23  25
ATOM     24  O   UNL     1      32.331 -21.377 -19.789  0.00  0.00    -0.269 OA
ATOM     25  N   UNL     1      34.491 -21.638 -18.985  0.00  0.00    -0.300 N 
ATOM     26  C   UNL     1      33.105 -21.705 -18.894  0.00  0.00    +0.261 C 
ATOM     27  H   UNL     1      35.029 -21.924 -18.212  0.00  0.00    +0.150 HD
BRANCH  26  30
ATOM     28  N   UNL     1      31.228 -22.063 -17.423  0.00  0.00    -0.262 NA
ATOM     29  N   UNL     1      32.890 -23.184 -15.460  0.00  0.00    -0.270 NA
ATOM     30  C   UNL     1      32.558 -22.189 -17.601  0.00  0.00    +0.132 C 
ATOM     31  C   UNL     1      33.375 -22.740 -16.638  0.00  0.00    +0.174 C 
ATOM     32  C   UNL     1      31.560 -23.057 -15.281  0.00  0.00    +0.057 C 
ATOM     33  C   UNL     1      30.744 -22.507 -16.246  0.00  0.00    +0.166 C 
ATOM     34  C   UNL     1      30.990 -23.537 -13.993  0.00  0.00    +0.049 C 
ENDBRANCH  26  30
ENDBRANCH  23  25
ENDBRANCH  22  23
ENDBRANCH   2  22
TORSDOF 7
ENDMDL
