MODEL 1
REMARK VINA RESULT:     -14.2      0.000      0.000
REMARK  Name = 5287728
REMARK  9 active torsions:
REMARK  status: ('A' for Active; 'I' for Inactive)
REMARK    1  A    between atoms: S_1  and  N_4
REMARK    2  A    between atoms: S_1  and  N_22
REMARK    3  A    between atoms: C_5  and  N_10
REMARK    4  A    between atoms: N_10  and  C_13
REMARK    5  A    between atoms: C_13  and  C_14
REMARK    6  A    between atoms: C_15  and  O_20
REMARK    7  A    between atoms: N_22  and  C_24
REMARK    8  A    between atoms: C_27  and  O_30
REMARK    9  A    between atoms: O_30  and  C_32
REMARK                            x       y       z     vdW  Elec       q    Type
REMARK                         _______ _______ _______ _____ _____    ______ ____
ROOT
ATOM      1  S   UNL     1      35.566 -18.195 -20.923  0.00  0.00    +0.113 S 
ATOM      2  O   UNL     1      35.026 -16.934 -20.449  0.00  0.00    -0.138 OA
ATOM      3  O   UNL     1      37.001 -18.415 -20.934  0.00  0.00    -0.138 OA
ENDROOT
BRANCH   1   4
ATOM      4  N   UNL     1      34.828 -19.459 -20.030  0.00  0.00    -0.143 NA
ATOM      5  C   UNL     1      33.671 -21.956 -19.090  0.00  0.00    -0.059 C 
ATOM      6  C   UNL     1      32.803 -20.752 -19.468  0.00  0.00    -0.002 C 
ATOM      7  C   UNL     1      35.062 -21.489 -18.646  0.00  0.00    -0.002 C 
ATOM      8  C   UNL     1      33.489 -19.893 -20.528  0.00  0.00    +0.095 C 
ATOM      9  C   UNL     1      35.714 -20.619 -19.717  0.00  0.00    +0.095 C 
BRANCH   5  10
ATOM     10  N   UNL     1      33.032 -22.717 -18.019  0.00  0.00    +0.388 N 
ATOM     11  H   UNL     1      33.668 -22.772 -17.222  0.00  0.00    -0.084 HD
ATOM     12  H   UNL     1      32.815 -23.652 -18.364  0.00  0.00    -0.084 HD
BRANCH  10  13
ATOM     13  C   UNL     1      31.795 -22.076 -17.598  0.00  0.00    -0.051 C 
BRANCH  13  14
ATOM     14  C   UNL     1      31.360 -22.539 -16.233  0.00  0.00    -0.010 C 
ATOM     15  C   UNL     1      30.014 -22.554 -15.894  0.00  0.00    +0.128 C 
ATOM     16  C   UNL     1      32.329 -22.948 -15.325  0.00  0.00    -0.003 C 
ATOM     17  C   UNL     1      29.628 -22.986 -14.625  0.00  0.00    +0.036 C 
ATOM     18  C   UNL     1      31.942 -23.379 -14.055  0.00  0.00    -0.000 C 
ATOM     19  C   UNL     1      30.593 -23.398 -13.706  0.00  0.00    +0.003 C 
BRANCH  15  20
ATOM     20  O   UNL     1      29.058 -22.155 -16.780  0.00  0.00    -0.506 OA
ATOM     21  H   UNL     1      28.207 -22.546 -16.760  0.00  0.00    +0.292 HD
ENDBRANCH  15  20
ENDBRANCH  13  14
ENDBRANCH  10  13
ENDBRANCH   5  10
ENDBRANCH   1   4
BRANCH   1  22
ATOM     22  N   UNL     1      34.911 -18.487 -22.493  0.00  0.00    -0.205 N 
ATOM     23  H   UNL     1      34.909 -19.387 -22.893  0.00  0.00    +0.175 HD
BRANCH  22  24
ATOM     24  C   UNL     1      34.365 -17.352 -23.190  0.00  0.00    +0.069 C 
ATOM     25  C   UNL     1      34.668 -16.068 -22.753  0.00  0.00    +0.053 C 
ATOM     26  C   UNL     1      33.543 -17.553 -24.292  0.00  0.00    +0.016 C 
ATOM     27  C   UNL     1      34.138 -14.968 -23.429  0.00  0.00    +0.147 C 
ATOM     28  C   UNL     1      33.015 -16.453 -24.967  0.00  0.00    +0.004 C 
ATOM     29  C   UNL     1      33.312 -15.161 -24.536  0.00  0.00    +0.038 C 
BRANCH  27  30
ATOM     30  O   UNL     1      34.428 -13.707 -23.007  0.00  0.00    -0.453 OA
BRANCH  30  32
ATOM     31  F   UNL     1      30.350 -10.742 -20.833  0.00  0.00    -0.204 F 
ATOM     32  C   UNL     1      33.399 -12.959 -22.458  0.00  0.00    +0.145 C 
ATOM     33  C   UNL     1      33.002 -11.794 -23.090  0.00  0.00    +0.040 C 
ATOM     34  C   UNL     1      32.795 -13.397 -21.294  0.00  0.00    +0.040 C 
ATOM     35  C   UNL     1      31.966 -11.042 -22.538  0.00  0.00    +0.033 C 
ATOM     36  C   UNL     1      31.760 -12.643 -20.741  0.00  0.00    +0.033 C 
ATOM     37  C   UNL     1      31.345 -11.466 -21.363  0.00  0.00    +0.140 C 
ENDBRANCH  30  32
ENDBRANCH  27  30
ENDBRANCH  22  24
ENDBRANCH   1  22
TORSDOF 9
ENDMDL
MODEL 2
REMARK VINA RESULT:     -13.4      3.534      6.429
REMARK  Name = 5287728
REMARK  9 active torsions:
REMARK  status: ('A' for Active; 'I' for Inactive)
REMARK    1  A    between atoms: S_1  and  N_4
REMARK    2  A    between atoms: S_1  and  N_22
REMARK    3  A    between atoms: C_5  and  N_10
REMARK    4  A    between atoms: N_10  and  C_13
REMARK    5  A    between atoms: C_13  and  C_14
REMARK    6  A    between atoms: C_15  and  O_20
REMARK    7  A    between atoms: N_22  and  C_24
REMARK    8  A    between atoms: C_27  and  O_30
REMARK    9  A    between atoms: O_30  and  C_32
REMARK                            x       y       z     vdW  Elec       q    Type
REMARK                         _______ _______ _______ _____ _____    ______ ____
ROOT
ATOM      1  S   UNL     1      32.895 -13.054 -23.372  0.00  0.00    +0.113 S 
ATOM      2  O   UNL     1      33.928 -12.116 -22.972  0.00  0.00    -0.138 OA
ATOM      3  O   UNL     1      32.376 -13.032 -24.728  0.00  0.00    -0.138 OA
ENDROOT
BRANCH   1   4
ATOM      4  N   UNL     1      33.453 -14.639 -23.028  0.00  0.00    -0.143 NA
ATOM      5  C   UNL     1      35.012 -17.045 -22.541  0.00  0.00    -0.059 C 
ATOM      6  C   UNL     1      34.234 -16.832 -23.844  0.00  0.00    -0.002 C 
ATOM      7  C   UNL     1      34.362 -16.255 -21.400  0.00  0.00    -0.002 C 
ATOM      8  C   UNL     1      34.105 -15.345 -24.169  0.00  0.00    +0.095 C 
ATOM      9  C   UNL     1      34.231 -14.778 -21.761  0.00  0.00    +0.095 C 
BRANCH   5  10
ATOM     10  N   UNL     1      35.052 -18.466 -22.208  0.00  0.00    +0.388 N 
ATOM     11  H   UNL     1      35.849 -18.645 -21.597  0.00  0.00    -0.084 HD
ATOM     12  H   UNL     1      35.140 -19.003 -23.071  0.00  0.00    -0.084 HD
BRANCH  10  13
ATOM     13  C   UNL     1      33.830 -18.871 -21.529  0.00  0.00    -0.051 C 
BRANCH  13  14
ATOM     14  C   UNL     1      34.099 -19.885 -20.449  0.00  0.00    -0.010 C 
ATOM     15  C   UNL     1      33.049 -20.575 -19.857  0.00  0.00    +0.128 C 
ATOM     16  C   UNL     1      35.412 -20.115 -20.058  0.00  0.00    -0.003 C 
ATOM     17  C   UNL     1      33.316 -21.510 -18.858  0.00  0.00    +0.036 C 
ATOM     18  C   UNL     1      35.679 -21.050 -19.058  0.00  0.00    -0.000 C 
ATOM     19  C   UNL     1      34.631 -21.747 -18.459  0.00  0.00    +0.003 C 
BRANCH  15  20
ATOM     20  O   UNL     1      31.758 -20.354 -20.235  0.00  0.00    -0.506 OA
ATOM     21  H   UNL     1      31.056 -20.567 -19.652  0.00  0.00    +0.292 HD
ENDBRANCH  15  20
ENDBRANCH  13  14
ENDBRANCH  10  13
ENDBRANCH   5  10
ENDBRANCH   1   4
BRANCH   1  22
ATOM     22  N   UNL     1      31.599 -12.918 -22.240  0.00  0.00    -0.205 N 
ATOM     23  H   UNL     1      30.991 -13.671 -22.057  0.00  0.00    +0.175 HD
BRANCH  22  24
ATOM     24  C   UNL     1      31.449 -11.650 -21.574  0.00  0.00    +0.069 C 
ATOM     25  C   UNL     1      31.088 -10.528 -22.310  0.00  0.00    +0.053 C 
ATOM     26  C   UNL     1      31.665 -11.564 -20.205  0.00  0.00    +0.016 C 
ATOM     27  C   UNL     1      30.944  -9.299 -21.665  0.00  0.00    +0.147 C 
ATOM     28  C   UNL     1      31.520 -10.336 -19.561  0.00  0.00    +0.004 C 
ATOM     29  C   UNL     1      31.159  -9.204 -20.290  0.00  0.00    +0.038 C 
BRANCH  27  30
ATOM     30  O   UNL     1      30.593  -8.194 -22.378  0.00  0.00    -0.453 OA
BRANCH  30  32
ATOM     31  F   UNL     1      34.598  -4.765 -23.909  0.00  0.00    -0.204 F 
ATOM     32  C   UNL     1      31.603  -7.329 -22.764  0.00  0.00    +0.145 C 
ATOM     33  C   UNL     1      31.361  -5.967 -22.765  0.00  0.00    +0.040 C 
ATOM     34  C   UNL     1      32.829  -7.849 -23.138  0.00  0.00    +0.040 C 
ATOM     35  C   UNL     1      32.378  -5.097 -23.154  0.00  0.00    +0.033 C 
ATOM     36  C   UNL     1      33.846  -6.979 -23.528  0.00  0.00    +0.033 C 
ATOM     37  C   UNL     1      33.621  -5.602 -23.535  0.00  0.00    +0.140 C 
ENDBRANCH  30  32
ENDBRANCH  27  30
ENDBRANCH  22  24
ENDBRANCH   1  22
TORSDOF 9
ENDMDL
MODEL 3
REMARK VINA RESULT:     -13.2      3.936     10.685
REMARK  Name = 5287728
REMARK  9 active torsions:
REMARK  status: ('A' for Active; 'I' for Inactive)
REMARK    1  A    between atoms: S_1  and  N_4
REMARK    2  A    between atoms: S_1  and  N_22
REMARK    3  A    between atoms: C_5  and  N_10
REMARK    4  A    between atoms: N_10  and  C_13
REMARK    5  A    between atoms: C_13  and  C_14
REMARK    6  A    between atoms: C_15  and  O_20
REMARK    7  A    between atoms: N_22  and  C_24
REMARK    8  A    between atoms: C_27  and  O_30
REMARK    9  A    between atoms: O_30  and  C_32
REMARK                            x       y       z     vdW  Elec       q    Type
REMARK                         _______ _______ _______ _____ _____    ______ ____
ROOT
ATOM      1  S   UNL     1      33.450 -22.611 -18.239  0.00  0.00    +0.113 S 
ATOM      2  O   UNL     1      33.235 -23.881 -18.909  0.00  0.00    -0.138 OA
ATOM      3  O   UNL     1      34.491 -22.484 -17.235  0.00  0.00    -0.138 OA
ENDROOT
BRANCH   1   4
ATOM      4  N   UNL     1      33.701 -21.413 -19.440  0.00  0.00    -0.143 NA
ATOM      5  C   UNL     1      34.131 -18.959 -20.940  0.00  0.00    -0.059 C 
ATOM      6  C   UNL     1      32.774 -19.669 -20.918  0.00  0.00    -0.002 C 
ATOM      7  C   UNL     1      35.260 -19.965 -20.691  0.00  0.00    -0.002 C 
ATOM      8  C   UNL     1      32.581 -20.443 -19.616  0.00  0.00    +0.095 C 
ATOM      9  C   UNL     1      35.031 -20.734 -19.393  0.00  0.00    +0.095 C 
BRANCH   5  10
ATOM     10  N   UNL     1      34.328 -18.294 -22.226  0.00  0.00    +0.388 N 
ATOM     11  H   UNL     1      33.431 -17.941 -22.561  0.00  0.00    -0.084 HD
ATOM     12  H   UNL     1      34.714 -18.967 -22.888  0.00  0.00    -0.084 HD
BRANCH  10  13
ATOM     13  C   UNL     1      35.258 -17.183 -22.095  0.00  0.00    -0.051 C 
BRANCH  13  14
ATOM     14  C   UNL     1      34.547 -15.856 -22.073  0.00  0.00    -0.010 C 
ATOM     15  C   UNL     1      34.245 -15.202 -23.261  0.00  0.00    +0.128 C 
ATOM     16  C   UNL     1      34.199 -15.302 -20.847  0.00  0.00    -0.003 C 
ATOM     17  C   UNL     1      33.586 -13.974 -23.223  0.00  0.00    +0.036 C 
ATOM     18  C   UNL     1      33.540 -14.073 -20.810  0.00  0.00    -0.000 C 
ATOM     19  C   UNL     1      33.234 -13.410 -21.997  0.00  0.00    +0.003 C 
BRANCH  15  20
ATOM     20  O   UNL     1      34.583 -15.740 -24.467  0.00  0.00    -0.506 OA
ATOM     21  H   UNL     1      34.002 -16.342 -24.891  0.00  0.00    +0.292 HD
ENDBRANCH  15  20
ENDBRANCH  13  14
ENDBRANCH  10  13
ENDBRANCH   5  10
ENDBRANCH   1   4
BRANCH   1  22
ATOM     22  N   UNL     1      31.935 -22.100 -17.590  0.00  0.00    -0.205 N 
ATOM     23  H   UNL     1      31.347 -21.479 -18.077  0.00  0.00    +0.175 HD
BRANCH  22  24
ATOM     24  C   UNL     1      31.570 -22.627 -16.300  0.00  0.00    +0.069 C 
ATOM     25  C   UNL     1      32.566 -22.967 -15.392  0.00  0.00    +0.053 C 
ATOM     26  C   UNL     1      30.228 -22.790 -15.979  0.00  0.00    +0.016 C 
ATOM     27  C   UNL     1      32.212 -23.478 -14.143  0.00  0.00    +0.147 C 
ATOM     28  C   UNL     1      29.876 -23.301 -14.731  0.00  0.00    +0.004 C 
ATOM     29  C   UNL     1      30.867 -23.644 -13.813  0.00  0.00    +0.038 C 
BRANCH  27  30
ATOM     30  O   UNL     1      33.180 -23.815 -13.247  0.00  0.00    -0.453 OA
BRANCH  30  32
ATOM     31  F   UNL     1      38.382 -23.840 -15.002  0.00  0.00    -0.204 F 
ATOM     32  C   UNL     1      34.492 -23.822 -13.690  0.00  0.00    +0.145 C 
ATOM     33  C   UNL     1      35.317 -22.758 -13.369  0.00  0.00    +0.040 C 
ATOM     34  C   UNL     1      34.944 -24.891 -14.441  0.00  0.00    +0.040 C 
ATOM     35  C   UNL     1      36.638 -22.765 -13.814  0.00  0.00    +0.033 C 
ATOM     36  C   UNL     1      36.266 -24.897 -14.888  0.00  0.00    +0.033 C 
ATOM     37  C   UNL     1      37.112 -23.834 -14.574  0.00  0.00    +0.140 C 
ENDBRANCH  30  32
ENDBRANCH  27  30
ENDBRANCH  22  24
ENDBRANCH   1  22
TORSDOF 9
ENDMDL
MODEL 4
REMARK VINA RESULT:     -13.2      4.709     11.426
REMARK  Name = 5287728
REMARK  9 active torsions:
REMARK  status: ('A' for Active; 'I' for Inactive)
REMARK    1  A    between atoms: S_1  and  N_4
REMARK    2  A    between atoms: S_1  and  N_22
REMARK    3  A    between atoms: C_5  and  N_10
REMARK    4  A    between atoms: N_10  and  C_13
REMARK    5  A    between atoms: C_13  and  C_14
REMARK    6  A    between atoms: C_15  and  O_20
REMARK    7  A    between atoms: N_22  and  C_24
REMARK    8  A    between atoms: C_27  and  O_30
REMARK    9  A    between atoms: O_30  and  C_32
REMARK                            x       y       z     vdW  Elec       q    Type
REMARK                         _______ _______ _______ _____ _____    ______ ____
ROOT
ATOM      1  S   UNL     1      33.216 -22.234 -18.357  0.00  0.00    +0.113 S 
ATOM      2  O   UNL     1      31.865 -21.868 -17.973  0.00  0.00    -0.138 OA
ATOM      3  O   UNL     1      33.458 -23.465 -19.089  0.00  0.00    -0.138 OA
ENDROOT
BRANCH   1   4
ATOM      4  N   UNL     1      33.886 -20.930 -19.248  0.00  0.00    -0.143 NA
ATOM      5  C   UNL     1      35.027 -19.175 -21.266  0.00  0.00    -0.059 C 
ATOM      6  C   UNL     1      35.877 -19.780 -20.143  0.00  0.00    -0.002 C 
ATOM      7  C   UNL     1      33.566 -19.056 -20.820  0.00  0.00    -0.002 C 
ATOM      8  C   UNL     1      35.302 -21.117 -19.682  0.00  0.00    +0.095 C 
ATOM      9  C   UNL     1      33.026 -20.403 -20.348  0.00  0.00    +0.095 C 
BRANCH   5  10
ATOM     10  N   UNL     1      35.548 -17.860 -21.634  0.00  0.00    +0.388 N 
ATOM     11  H   UNL     1      36.548 -17.937 -21.821  0.00  0.00    -0.084 HD
ATOM     12  H   UNL     1      35.378 -17.213 -20.865  0.00  0.00    -0.084 HD
BRANCH  10  13
ATOM     13  C   UNL     1      34.879 -17.356 -22.825  0.00  0.00    -0.051 C 
BRANCH  13  14
ATOM     14  C   UNL     1      34.393 -15.944 -22.638  0.00  0.00    -0.010 C 
ATOM     15  C   UNL     1      34.067 -15.163 -23.740  0.00  0.00    +0.128 C 
ATOM     16  C   UNL     1      34.280 -15.439 -21.349  0.00  0.00    -0.003 C 
ATOM     17  C   UNL     1      33.619 -13.856 -23.549  0.00  0.00    +0.036 C 
ATOM     18  C   UNL     1      33.832 -14.131 -21.159  0.00  0.00    -0.000 C 
ATOM     19  C   UNL     1      33.502 -13.341 -22.258  0.00  0.00    +0.003 C 
BRANCH  15  20
ATOM     20  O   UNL     1      34.175 -15.652 -25.007  0.00  0.00    -0.506 OA
ATOM     21  H   UNL     1      34.182 -16.577 -25.154  0.00  0.00    +0.292 HD
ENDBRANCH  15  20
ENDBRANCH  13  14
ENDBRANCH  10  13
ENDBRANCH   5  10
ENDBRANCH   1   4
BRANCH   1  22
ATOM     22  N   UNL     1      34.194 -22.187 -16.936  0.00  0.00    -0.205 N 
ATOM     23  H   UNL     1      35.076 -21.749 -16.931  0.00  0.00    +0.175 HD
BRANCH  22  24
ATOM     24  C   UNL     1      33.659 -22.820 -15.759  0.00  0.00    +0.069 C 
ATOM     25  C   UNL     1      34.523 -23.252 -14.760  0.00  0.00    +0.053 C 
ATOM     26  C   UNL     1      32.286 -22.991 -15.635  0.00  0.00    +0.016 C 
ATOM     27  C   UNL     1      34.004 -23.866 -13.620  0.00  0.00    +0.147 C 
ATOM     28  C   UNL     1      31.768 -23.604 -14.495  0.00  0.00    +0.004 C 
ATOM     29  C   UNL     1      32.627 -24.041 -13.488  0.00  0.00    +0.038 C 
BRANCH  27  30
ATOM     30  O   UNL     1      34.843 -24.294 -12.637  0.00  0.00    -0.453 OA
BRANCH  30  32
ATOM     31  F   UNL     1      39.951 -25.706 -14.073  0.00  0.00    -0.204 F 
ATOM     32  C   UNL     1      36.131 -24.650 -12.999  0.00  0.00    +0.145 C 
ATOM     33  C   UNL     1      36.322 -25.754 -13.812  0.00  0.00    +0.040 C 
ATOM     34  C   UNL     1      37.194 -23.893 -12.540  0.00  0.00    +0.040 C 
ATOM     35  C   UNL     1      37.620 -26.112 -14.176  0.00  0.00    +0.033 C 
ATOM     36  C   UNL     1      38.491 -24.252 -12.904  0.00  0.00    +0.033 C 
ATOM     37  C   UNL     1      38.704 -25.361 -13.722  0.00  0.00    +0.140 C 
ENDBRANCH  30  32
ENDBRANCH  27  30
ENDBRANCH  22  24
ENDBRANCH   1  22
TORSDOF 9
ENDMDL
MODEL 5
REMARK VINA RESULT:     -13.0      3.330     10.491
REMARK  Name = 5287728
REMARK  9 active torsions:
REMARK  status: ('A' for Active; 'I' for Inactive)
REMARK    1  A    between atoms: S_1  and  N_4
REMARK    2  A    between atoms: S_1  and  N_22
REMARK    3  A    between atoms: C_5  and  N_10
REMARK    4  A    between atoms: N_10  and  C_13
REMARK    5  A    between atoms: C_13  and  C_14
REMARK    6  A    between atoms: C_15  and  O_20
REMARK    7  A    between atoms: N_22  and  C_24
REMARK    8  A    between atoms: C_27  and  O_30
REMARK    9  A    between atoms: O_30  and  C_32
REMARK                            x       y       z     vdW  Elec       q    Type
REMARK                         _______ _______ _______ _____ _____    ______ ____
ROOT
ATOM      1  S   UNL     1      33.378 -22.201 -18.201  0.00  0.00    +0.113 S 
ATOM      2  O   UNL     1      32.122 -21.777 -17.610  0.00  0.00    -0.138 OA
ATOM      3  O   UNL     1      33.445 -23.436 -18.962  0.00  0.00    -0.138 OA
ENDROOT
BRANCH   1   4
ATOM      4  N   UNL     1      33.960 -20.923 -19.186  0.00  0.00    -0.143 NA
ATOM      5  C   UNL     1      34.932 -19.232 -21.342  0.00  0.00    -0.059 C 
ATOM      6  C   UNL     1      35.863 -19.769 -20.250  0.00  0.00    -0.002 C 
ATOM      7  C   UNL     1      33.498 -19.125 -20.811  0.00  0.00    -0.002 C 
ATOM      8  C   UNL     1      35.351 -21.098 -19.698  0.00  0.00    +0.095 C 
ATOM      9  C   UNL     1      33.021 -20.462 -20.251  0.00  0.00    +0.095 C 
BRANCH   5  10
ATOM     10  N   UNL     1      35.397 -17.923 -21.797  0.00  0.00    +0.388 N 
ATOM     11  H   UNL     1      36.374 -17.996 -22.082  0.00  0.00    -0.084 HD
ATOM     12  H   UNL     1      35.299 -17.256 -21.031  0.00  0.00    -0.084 HD
BRANCH  10  13
ATOM     13  C   UNL     1      34.604 -17.459 -22.925  0.00  0.00    -0.051 C 
BRANCH  13  14
ATOM     14  C   UNL     1      34.194 -16.019 -22.767  0.00  0.00    -0.010 C 
ATOM     15  C   UNL     1      33.824 -15.269 -23.876  0.00  0.00    +0.128 C 
ATOM     16  C   UNL     1      34.194 -15.459 -21.495  0.00  0.00    -0.003 C 
ATOM     17  C   UNL     1      33.448 -13.936 -23.711  0.00  0.00    +0.036 C 
ATOM     18  C   UNL     1      33.818 -14.125 -21.331  0.00  0.00    -0.000 C 
ATOM     19  C   UNL     1      33.445 -13.365 -22.438  0.00  0.00    +0.003 C 
BRANCH  15  20
ATOM     20  O   UNL     1      33.821 -15.812 -25.126  0.00  0.00    -0.506 OA
ATOM     21  H   UNL     1      33.188 -16.465 -25.351  0.00  0.00    +0.292 HD
ENDBRANCH  15  20
ENDBRANCH  13  14
ENDBRANCH  10  13
ENDBRANCH   5  10
ENDBRANCH   1   4
BRANCH   1  22
ATOM     22  N   UNL     1      34.568 -22.211 -16.951  0.00  0.00    -0.205 N 
ATOM     23  H   UNL     1      35.452 -21.797 -17.077  0.00  0.00    +0.175 HD
BRANCH  22  24
ATOM     24  C   UNL     1      34.205 -22.852 -15.714  0.00  0.00    +0.069 C 
ATOM     25  C   UNL     1      32.931 -22.665 -15.192  0.00  0.00    +0.053 C 
ATOM     26  C   UNL     1      35.133 -23.650 -15.057  0.00  0.00    +0.016 C 
ATOM     27  C   UNL     1      32.581 -23.286 -13.993  0.00  0.00    +0.147 C 
ATOM     28  C   UNL     1      34.782 -24.271 -13.859  0.00  0.00    +0.004 C 
ATOM     29  C   UNL     1      33.506 -24.089 -13.327  0.00  0.00    +0.038 C 
BRANCH  27  30
ATOM     30  O   UNL     1      31.335 -23.107 -13.473  0.00  0.00    -0.453 OA
BRANCH  30  32
ATOM     31  F   UNL     1      27.052 -23.667 -16.862  0.00  0.00    -0.204 F 
ATOM     32  C   UNL     1      30.255 -23.249 -14.328  0.00  0.00    +0.145 C 
ATOM     33  C   UNL     1      29.858 -24.518 -14.709  0.00  0.00    +0.040 C 
ATOM     34  C   UNL     1      29.599 -22.117 -14.778  0.00  0.00    +0.040 C 
ATOM     35  C   UNL     1      28.770 -24.660 -15.569  0.00  0.00    +0.033 C 
ATOM     36  C   UNL     1      28.512 -22.259 -15.639  0.00  0.00    +0.033 C 
ATOM     37  C   UNL     1      28.097 -23.530 -16.035  0.00  0.00    +0.140 C 
ENDBRANCH  30  32
ENDBRANCH  27  30
ENDBRANCH  22  24
ENDBRANCH   1  22
TORSDOF 9
ENDMDL
MODEL 6
REMARK VINA RESULT:     -13.0      3.342     10.306
REMARK  Name = 5287728
REMARK  9 active torsions:
REMARK  status: ('A' for Active; 'I' for Inactive)
REMARK    1  A    between atoms: S_1  and  N_4
REMARK    2  A    between atoms: S_1  and  N_22
REMARK    3  A    between atoms: C_5  and  N_10
REMARK    4  A    between atoms: N_10  and  C_13
REMARK    5  A    between atoms: C_13  and  C_14
REMARK    6  A    between atoms: C_15  and  O_20
REMARK    7  A    between atoms: N_22  and  C_24
REMARK    8  A    between atoms: C_27  and  O_30
REMARK    9  A    between atoms: O_30  and  C_32
REMARK                            x       y       z     vdW  Elec       q    Type
REMARK                         _______ _______ _______ _____ _____    ______ ____
ROOT
ATOM      1  S   UNL     1      34.979 -17.635 -21.673  0.00  0.00    +0.113 S 
ATOM      2  O   UNL     1      35.488 -18.136 -22.937  0.00  0.00    -0.138 OA
ATOM      3  O   UNL     1      35.865 -17.510 -20.530  0.00  0.00    -0.138 OA
ENDROOT
BRANCH   1   4
ATOM      4  N   UNL     1      34.246 -16.112 -21.963  0.00  0.00    -0.143 NA
ATOM      5  C   UNL     1      33.634 -13.295 -22.347  0.00  0.00    -0.059 C 
ATOM      6  C   UNL     1      33.236 -14.045 -21.071  0.00  0.00    -0.002 C 
ATOM      7  C   UNL     1      33.738 -14.270 -23.525  0.00  0.00    -0.002 C 
ATOM      8  C   UNL     1      34.202 -15.193 -20.787  0.00  0.00    +0.095 C 
ATOM      9  C   UNL     1      34.695 -15.415 -23.204  0.00  0.00    +0.095 C 
BRANCH   5  10
ATOM     10  N   UNL     1      32.652 -12.255 -22.643  0.00  0.00    +0.388 N 
ATOM     11  H   UNL     1      32.218 -12.451 -23.545  0.00  0.00    -0.084 HD
ATOM     12  H   UNL     1      33.127 -11.352 -22.667  0.00  0.00    -0.084 HD
BRANCH  10  13
ATOM     13  C   UNL     1      31.621 -12.213 -21.617  0.00  0.00    -0.051 C 
BRANCH  13  14
ATOM     14  C   UNL     1      31.519 -10.852 -20.980  0.00  0.00    -0.010 C 
ATOM     15  C   UNL     1      31.443  -9.712 -21.770  0.00  0.00    +0.128 C 
ATOM     16  C   UNL     1      31.503 -10.761 -19.594  0.00  0.00    -0.003 C 
ATOM     17  C   UNL     1      31.350  -8.460 -21.164  0.00  0.00    +0.036 C 
ATOM     18  C   UNL     1      31.411  -9.507 -18.988  0.00  0.00    -0.000 C 
ATOM     19  C   UNL     1      31.334  -8.358 -19.772  0.00  0.00    +0.003 C 
BRANCH  15  20
ATOM     20  O   UNL     1      31.458  -9.794 -23.130  0.00  0.00    -0.506 OA
ATOM     21  H   UNL     1      32.255  -9.997 -23.579  0.00  0.00    +0.292 HD
ENDBRANCH  15  20
ENDBRANCH  13  14
ENDBRANCH  10  13
ENDBRANCH   5  10
ENDBRANCH   1   4
BRANCH   1  22
ATOM     22  N   UNL     1      33.599 -18.580 -21.253  0.00  0.00    -0.205 N 
ATOM     23  H   UNL     1      32.697 -18.349 -21.574  0.00  0.00    +0.175 HD
BRANCH  22  24
ATOM     24  C   UNL     1      33.828 -19.725 -20.410  0.00  0.00    +0.069 C 
ATOM     25  C   UNL     1      32.745 -20.388 -19.845  0.00  0.00    +0.053 C 
ATOM     26  C   UNL     1      35.128 -20.153 -20.173  0.00  0.00    +0.016 C 
ATOM     27  C   UNL     1      32.968 -21.497 -19.028  0.00  0.00    +0.147 C 
ATOM     28  C   UNL     1      35.349 -21.261 -19.356  0.00  0.00    +0.004 C 
ATOM     29  C   UNL     1      34.270 -21.933 -18.784  0.00  0.00    +0.038 C 
BRANCH  27  30
ATOM     30  O   UNL     1      31.914 -22.152 -18.468  0.00  0.00    -0.453 OA
BRANCH  30  32
ATOM     31  F   UNL     1      32.107 -23.159 -13.074  0.00  0.00    -0.204 F 
ATOM     32  C   UNL     1      31.963 -22.406 -17.107  0.00  0.00    +0.145 C 
ATOM     33  C   UNL     1      30.792 -22.362 -16.371  0.00  0.00    +0.040 C 
ATOM     34  C   UNL     1      33.180 -22.697 -16.520  0.00  0.00    +0.040 C 
ATOM     35  C   UNL     1      30.842 -22.618 -15.002  0.00  0.00    +0.033 C 
ATOM     36  C   UNL     1      33.230 -22.952 -15.150  0.00  0.00    +0.033 C 
ATOM     37  C   UNL     1      32.060 -22.913 -14.391  0.00  0.00    +0.140 C 
ENDBRANCH  30  32
ENDBRANCH  27  30
ENDBRANCH  22  24
ENDBRANCH   1  22
TORSDOF 9
ENDMDL
MODEL 7
REMARK VINA RESULT:     -12.8      1.586      2.238
REMARK  Name = 5287728
REMARK  9 active torsions:
REMARK  status: ('A' for Active; 'I' for Inactive)
REMARK    1  A    between atoms: S_1  and  N_4
REMARK    2  A    between atoms: S_1  and  N_22
REMARK    3  A    between atoms: C_5  and  N_10
REMARK    4  A    between atoms: N_10  and  C_13
REMARK    5  A    between atoms: C_13  and  C_14
REMARK    6  A    between atoms: C_15  and  O_20
REMARK    7  A    between atoms: N_22  and  C_24
REMARK    8  A    between atoms: C_27  and  O_30
REMARK    9  A    between atoms: O_30  and  C_32
REMARK                            x       y       z     vdW  Elec       q    Type
REMARK                         _______ _______ _______ _____ _____    ______ ____
ROOT
ATOM      1  S   UNL     1      35.042 -17.797 -21.589  0.00  0.00    +0.113 S 
ATOM      2  O   UNL     1      36.472 -17.823 -21.838  0.00  0.00    -0.138 OA
ATOM      3  O   UNL     1      34.109 -17.857 -22.699  0.00  0.00    -0.138 OA
ENDROOT
BRANCH   1   4
ATOM      4  N   UNL     1      34.670 -19.064 -20.495  0.00  0.00    -0.143 NA
ATOM      5  C   UNL     1      34.116 -21.605 -19.192  0.00  0.00    -0.059 C 
ATOM      6  C   UNL     1      33.004 -20.606 -19.529  0.00  0.00    -0.002 C 
ATOM      7  C   UNL     1      35.449 -20.871 -19.005  0.00  0.00    -0.002 C 
ATOM      8  C   UNL     1      33.375 -19.762 -20.747  0.00  0.00    +0.095 C 
ATOM      9  C   UNL     1      35.783 -20.023 -20.229  0.00  0.00    +0.095 C 
BRANCH   5  10
ATOM     10  N   UNL     1      33.776 -22.343 -17.979  0.00  0.00    +0.388 N 
ATOM     11  H   UNL     1      34.184 -21.868 -17.173  0.00  0.00    -0.084 HD
ATOM     12  H   UNL     1      34.145 -23.291 -18.057  0.00  0.00    -0.084 HD
BRANCH  10  13
ATOM     13  C   UNL     1      32.332 -22.416 -17.808  0.00  0.00    -0.051 C 
BRANCH  13  14
ATOM     14  C   UNL     1      31.948 -22.610 -16.365  0.00  0.00    -0.010 C 
ATOM     15  C   UNL     1      30.626 -22.463 -15.966  0.00  0.00    +0.128 C 
ATOM     16  C   UNL     1      32.938 -22.937 -15.447  0.00  0.00    -0.003 C 
ATOM     17  C   UNL     1      30.287 -22.646 -14.625  0.00  0.00    +0.036 C 
ATOM     18  C   UNL     1      32.599 -23.119 -14.106  0.00  0.00    -0.000 C 
ATOM     19  C   UNL     1      31.274 -22.974 -13.696  0.00  0.00    +0.003 C 
BRANCH  15  20
ATOM     20  O   UNL     1      29.650 -22.142 -16.861  0.00  0.00    -0.506 OA
ATOM     21  H   UNL     1      29.792 -21.456 -17.483  0.00  0.00    +0.292 HD
ENDBRANCH  15  20
ENDBRANCH  13  14
ENDBRANCH  10  13
ENDBRANCH   5  10
ENDBRANCH   1   4
BRANCH   1  22
ATOM     22  N   UNL     1      34.708 -16.418 -20.607  0.00  0.00    -0.205 N 
ATOM     23  H   UNL     1      34.943 -16.395 -19.651  0.00  0.00    +0.175 HD
BRANCH  22  24
ATOM     24  C   UNL     1      34.068 -15.301 -21.253  0.00  0.00    +0.069 C 
ATOM     25  C   UNL     1      33.126 -14.554 -20.557  0.00  0.00    +0.053 C 
ATOM     26  C   UNL     1      34.400 -14.984 -22.564  0.00  0.00    +0.016 C 
ATOM     27  C   UNL     1      32.506 -13.472 -21.183  0.00  0.00    +0.147 C 
ATOM     28  C   UNL     1      33.780 -13.903 -23.190  0.00  0.00    +0.004 C 
ATOM     29  C   UNL     1      32.834 -13.147 -22.499  0.00  0.00    +0.038 C 
BRANCH  27  30
ATOM     30  O   UNL     1      31.581 -12.735 -20.509  0.00  0.00    -0.453 OA
BRANCH  30  32
ATOM     31  F   UNL     1      31.305  -7.363 -21.608  0.00  0.00    -0.204 F 
ATOM     32  C   UNL     1      31.511 -11.380 -20.787  0.00  0.00    +0.145 C 
ATOM     33  C   UNL     1      31.518 -10.961 -22.105  0.00  0.00    +0.040 C 
ATOM     34  C   UNL     1      31.437 -10.481 -19.738  0.00  0.00    +0.040 C 
ATOM     35  C   UNL     1      31.447  -9.596 -22.384  0.00  0.00    +0.033 C 
ATOM     36  C   UNL     1      31.368  -9.116 -20.017  0.00  0.00    +0.033 C 
ATOM     37  C   UNL     1      31.373  -8.674 -21.340  0.00  0.00    +0.140 C 
ENDBRANCH  30  32
ENDBRANCH  27  30
ENDBRANCH  22  24
ENDBRANCH   1  22
TORSDOF 9
ENDMDL
MODEL 8
REMARK VINA RESULT:     -12.8      3.338     10.350
REMARK  Name = 5287728
REMARK  9 active torsions:
REMARK  status: ('A' for Active; 'I' for Inactive)
REMARK    1  A    between atoms: S_1  and  N_4
REMARK    2  A    between atoms: S_1  and  N_22
REMARK    3  A    between atoms: C_5  and  N_10
REMARK    4  A    between atoms: N_10  and  C_13
REMARK    5  A    between atoms: C_13  and  C_14
REMARK    6  A    between atoms: C_15  and  O_20
REMARK    7  A    between atoms: N_22  and  C_24
REMARK    8  A    between atoms: C_27  and  O_30
REMARK    9  A    between atoms: O_30  and  C_32
REMARK                            x       y       z     vdW  Elec       q    Type
REMARK                         _______ _______ _______ _____ _____    ______ ____
ROOT
ATOM      1  S   UNL     1      34.658 -21.207 -19.044  0.00  0.00    +0.113 S 
ATOM      2  O   UNL     1      33.331 -21.146 -18.460  0.00  0.00    -0.138 OA
ATOM      3  O   UNL     1      35.088 -22.398 -19.754  0.00  0.00    -0.138 OA
ENDROOT
BRANCH   1   4
ATOM      4  N   UNL     1      34.845 -19.856 -20.083  0.00  0.00    -0.143 NA
ATOM      5  C   UNL     1      35.331 -18.041 -22.303  0.00  0.00    -0.059 C 
ATOM      6  C   UNL     1      36.323 -18.189 -21.144  0.00  0.00    -0.002 C 
ATOM      7  C   UNL     1      33.914 -18.390 -21.835  0.00  0.00    -0.002 C 
ATOM      8  C   UNL     1      36.243 -19.585 -20.530  0.00  0.00    +0.095 C 
ATOM      9  C   UNL     1      33.870 -19.781 -21.211  0.00  0.00    +0.095 C 
BRANCH   5  10
ATOM     10  N   UNL     1      35.367 -16.676 -22.821  0.00  0.00    +0.388 N 
ATOM     11  H   UNL     1      36.192 -16.562 -23.409  0.00  0.00    -0.084 HD
ATOM     12  H   UNL     1      35.400 -16.027 -22.034  0.00  0.00    -0.084 HD
BRANCH  10  13
ATOM     13  C   UNL     1      34.176 -16.392 -23.609  0.00  0.00    -0.051 C 
BRANCH  13  14
ATOM     14  C   UNL     1      33.751 -14.954 -23.484  0.00  0.00    -0.010 C 
ATOM     15  C   UNL     1      33.151 -14.304 -24.555  0.00  0.00    +0.128 C 
ATOM     16  C   UNL     1      33.969 -14.293 -22.282  0.00  0.00    -0.003 C 
ATOM     17  C   UNL     1      32.763 -12.971 -24.422  0.00  0.00    +0.036 C 
ATOM     18  C   UNL     1      33.582 -12.959 -22.149  0.00  0.00    -0.000 C 
ATOM     19  C   UNL     1      32.978 -12.299 -23.218  0.00  0.00    +0.003 C 
BRANCH  15  20
ATOM     20  O   UNL     1      32.933 -14.946 -25.737  0.00  0.00    -0.506 OA
ATOM     21  H   UNL     1      33.048 -14.489 -26.547  0.00  0.00    +0.292 HD
ENDBRANCH  15  20
ENDBRANCH  13  14
ENDBRANCH  10  13
ENDBRANCH   5  10
ENDBRANCH   1   4
BRANCH   1  22
ATOM     22  N   UNL     1      35.793 -20.816 -17.803  0.00  0.00    -0.205 N 
ATOM     23  H   UNL     1      36.316 -19.982 -17.826  0.00  0.00    +0.175 HD
BRANCH  22  24
ATOM     24  C   UNL     1      35.938 -21.768 -16.733  0.00  0.00    +0.069 C 
ATOM     25  C   UNL     1      34.850 -22.545 -16.353  0.00  0.00    +0.053 C 
ATOM     26  C   UNL     1      37.164 -21.898 -16.092  0.00  0.00    +0.016 C 
ATOM     27  C   UNL     1      34.992 -23.466 -15.315  0.00  0.00    +0.147 C 
ATOM     28  C   UNL     1      37.305 -22.819 -15.055  0.00  0.00    +0.004 C 
ATOM     29  C   UNL     1      36.219 -23.603 -14.667  0.00  0.00    +0.038 C 
BRANCH  27  30
ATOM     30  O   UNL     1      33.932 -24.230 -14.935  0.00  0.00    -0.453 OA
BRANCH  30  32
ATOM     31  F   UNL     1      29.068 -21.746 -14.370  0.00  0.00    -0.204 F 
ATOM     32  C   UNL     1      32.705 -23.604 -14.793  0.00  0.00    +0.145 C 
ATOM     33  C   UNL     1      32.007 -23.223 -15.925  0.00  0.00    +0.040 C 
ATOM     34  C   UNL     1      32.209 -23.375 -13.522  0.00  0.00    +0.040 C 
ATOM     35  C   UNL     1      30.772 -22.593 -15.781  0.00  0.00    +0.033 C 
ATOM     36  C   UNL     1      30.974 -22.743 -13.378  0.00  0.00    +0.033 C 
ATOM     37  C   UNL     1      30.255 -22.352 -14.508  0.00  0.00    +0.140 C 
ENDBRANCH  30  32
ENDBRANCH  27  30
ENDBRANCH  22  24
ENDBRANCH   1  22
TORSDOF 9
ENDMDL
MODEL 9
REMARK VINA RESULT:     -12.7      4.187      7.639
REMARK  Name = 5287728
REMARK  9 active torsions:
REMARK  status: ('A' for Active; 'I' for Inactive)
REMARK    1  A    between atoms: S_1  and  N_4
REMARK    2  A    between atoms: S_1  and  N_22
REMARK    3  A    between atoms: C_5  and  N_10
REMARK    4  A    between atoms: N_10  and  C_13
REMARK    5  A    between atoms: C_13  and  C_14
REMARK    6  A    between atoms: C_15  and  O_20
REMARK    7  A    between atoms: N_22  and  C_24
REMARK    8  A    between atoms: C_27  and  O_30
REMARK    9  A    between atoms: O_30  and  C_32
REMARK                            x       y       z     vdW  Elec       q    Type
REMARK                         _______ _______ _______ _____ _____    ______ ____
ROOT
ATOM      1  S   UNL     1      32.756 -11.474 -23.303  0.00  0.00    +0.113 S 
ATOM      2  O   UNL     1      33.665 -10.399 -22.950  0.00  0.00    -0.138 OA
ATOM      3  O   UNL     1      32.338 -11.652 -24.682  0.00  0.00    -0.138 OA
ENDROOT
BRANCH   1   4
ATOM      4  N   UNL     1      33.432 -12.947 -22.744  0.00  0.00    -0.143 NA
ATOM      5  C   UNL     1      33.939 -15.670 -21.859  0.00  0.00    -0.059 C 
ATOM      6  C   UNL     1      33.883 -14.496 -20.877  0.00  0.00    -0.002 C 
ATOM      7  C   UNL     1      34.355 -15.179 -23.250  0.00  0.00    -0.002 C 
ATOM      8  C   UNL     1      32.966 -13.391 -21.397  0.00  0.00    +0.095 C 
ATOM      9  C   UNL     1      33.432 -14.064 -23.735  0.00  0.00    +0.095 C 
BRANCH   5  10
ATOM     10  N   UNL     1      34.883 -16.678 -21.381  0.00  0.00    +0.388 N 
ATOM     11  H   UNL     1      34.812 -16.748 -20.366  0.00  0.00    -0.084 HD
ATOM     12  H   UNL     1      35.826 -16.399 -21.653  0.00  0.00    -0.084 HD
BRANCH  10  13
ATOM     13  C   UNL     1      34.592 -17.977 -21.970  0.00  0.00    -0.051 C 
BRANCH  13  14
ATOM     14  C   UNL     1      34.685 -19.085 -20.955  0.00  0.00    -0.010 C 
ATOM     15  C   UNL     1      35.905 -19.403 -20.373  0.00  0.00    +0.128 C 
ATOM     16  C   UNL     1      33.531 -19.779 -20.615  0.00  0.00    -0.003 C 
ATOM     17  C   UNL     1      35.974 -20.433 -19.435  0.00  0.00    +0.036 C 
ATOM     18  C   UNL     1      33.600 -20.810 -19.677  0.00  0.00    -0.000 C 
ATOM     19  C   UNL     1      34.820 -21.136 -19.087  0.00  0.00    +0.003 C 
BRANCH  15  20
ATOM     20  O   UNL     1      37.041 -18.726 -20.703  0.00  0.00    -0.506 OA
ATOM     21  H   UNL     1      37.813 -18.823 -20.179  0.00  0.00    +0.292 HD
ENDBRANCH  15  20
ENDBRANCH  13  14
ENDBRANCH  10  13
ENDBRANCH   5  10
ENDBRANCH   1   4
BRANCH   1  22
ATOM     22  N   UNL     1      31.374 -11.346 -22.277  0.00  0.00    -0.205 N 
ATOM     23  H   UNL     1      30.627 -11.986 -22.334  0.00  0.00    +0.175 HD
BRANCH  22  24
ATOM     24  C   UNL     1      31.364 -10.259 -21.333  0.00  0.00    +0.069 C 
ATOM     25  C   UNL     1      31.167  -8.960 -21.785  0.00  0.00    +0.053 C 
ATOM     26  C   UNL     1      31.551 -10.522 -19.982  0.00  0.00    +0.016 C 
ATOM     27  C   UNL     1      31.159  -7.907 -20.869  0.00  0.00    +0.147 C 
ATOM     28  C   UNL     1      31.542  -9.470 -19.067  0.00  0.00    +0.004 C 
ATOM     29  C   UNL     1      31.346  -8.163 -19.511  0.00  0.00    +0.038 C 
BRANCH  27  30
ATOM     30  O   UNL     1      30.969  -6.631 -21.302  0.00  0.00    -0.453 OA
BRANCH  30  32
ATOM     31  F   UNL     1      34.733  -4.496 -24.682  0.00  0.00    -0.204 F 
ATOM     32  C   UNL     1      31.919  -6.092 -22.155  0.00  0.00    +0.145 C 
ATOM     33  C   UNL     1      31.575  -5.015 -22.952  0.00  0.00    +0.040 C 
ATOM     34  C   UNL     1      33.186  -6.645 -22.187  0.00  0.00    +0.040 C 
ATOM     35  C   UNL     1      32.531  -4.473 -23.810  0.00  0.00    +0.033 C 
ATOM     36  C   UNL     1      34.142  -6.104 -23.046  0.00  0.00    +0.033 C 
ATOM     37  C   UNL     1      33.814  -5.017 -23.857  0.00  0.00    +0.140 C 
ENDBRANCH  30  32
ENDBRANCH  27  30
ENDBRANCH  22  24
ENDBRANCH   1  22
TORSDOF 9
ENDMDL
