MODEL 1
REMARK VINA RESULT:     -11.9      0.000      0.000
REMARK  Name = 6914621
REMARK  7 active torsions:
REMARK  status: ('A' for Active; 'I' for Inactive)
REMARK    1  A    between atoms: C_1  and  C_9
REMARK    2  A    between atoms: C_6  and  O_22
REMARK    3  A    between atoms: N_8  and  C_14
REMARK    4  A    between atoms: C_14  and  C_18
REMARK    5  A    between atoms: N_17  and  O_20
REMARK    6  A    between atoms: O_22  and  C_23
REMARK    7  A    between atoms: C_23  and  C_25
REMARK                            x       y       z     vdW  Elec       q    Type
REMARK                         _______ _______ _______ _____ _____    ______ ____
ROOT
ATOM      1  C   UNL     1      34.422 -22.398 -16.778  0.00  0.00    -0.014 C 
ATOM      2  C   UNL     1      35.701 -21.869 -16.919  0.00  0.00    -0.001 C 
ATOM      3  C   UNL     1      33.489 -22.270 -17.803  0.00  0.00    -0.001 C 
ATOM      4  C   UNL     1      36.050 -21.205 -18.095  0.00  0.00    +0.037 C 
ATOM      5  C   UNL     1      33.838 -21.606 -18.979  0.00  0.00    +0.037 C 
ATOM      6  C   UNL     1      35.119 -21.074 -19.126  0.00  0.00    +0.139 C 
ENDROOT
BRANCH   1   9
ATOM      7  O   UNL     1      34.977 -25.389 -15.602  0.00  0.00    -0.275 OA
ATOM      8  N   UNL     1      35.899 -23.765 -14.179  0.00  0.00    -0.273 N 
ATOM      9  C   UNL     1      34.037 -23.125 -15.485  0.00  0.00    +0.089 C 
ATOM     10  C   UNL     1      34.192 -22.206 -14.249  0.00  0.00    +0.034 C 
ATOM     11  C   UNL     1      35.638 -22.391 -13.828  0.00  0.00    +0.095 C 
ATOM     12  C   UNL     1      34.996 -24.266 -15.117  0.00  0.00    +0.229 C 
ATOM     13  C   UNL     1      32.612 -23.686 -15.586  0.00  0.00    +0.014 C 
BRANCH   8  14
ATOM     14  C   UNL     1      37.045 -24.477 -13.655  0.00  0.00    +0.154 C 
ATOM     15  C   UNL     1      37.420 -23.977 -12.268  0.00  0.00    +0.031 C 
BRANCH  14  18
ATOM     16  O   UNL     1      38.494 -23.204 -15.120  0.00  0.00    -0.271 OA
ATOM     17  N   UNL     1      38.833 -25.477 -14.912  0.00  0.00    -0.196 N 
ATOM     18  C   UNL     1      38.199 -24.291 -14.629  0.00  0.00    +0.262 C 
ATOM     19  H   UNL     1      38.562 -26.327 -14.494  0.00  0.00    +0.182 HD
BRANCH  17  20
ATOM     20  O   UNL     1      39.888 -25.405 -15.831  0.00  0.00    -0.295 OA
ATOM     21  H   UNL     1      39.669 -24.767 -16.527  0.00  0.00    +0.241 HD
ENDBRANCH  17  20
ENDBRANCH  14  18
ENDBRANCH   8  14
ENDBRANCH   1   9
BRANCH   6  22
ATOM     22  O   UNL     1      35.460 -20.427 -20.273  0.00  0.00    -0.471 OA
BRANCH  22  23
ATOM     23  C   UNL     1      35.305 -19.009 -20.291  0.00  0.00    +0.229 C 
BRANCH  23  25
ATOM     24  N   UNL     1      34.003 -17.896 -24.211  0.00  0.00    -0.410 NA
ATOM     25  C   UNL     1      34.844 -18.583 -21.653  0.00  0.00    +0.012 C 
ATOM     26  C   UNL     1      34.497 -17.258 -21.940  0.00  0.00    +0.096 C 
ATOM     27  C   UNL     1      34.771 -19.557 -22.636  0.00  0.00    +0.023 C 
ATOM     28  C   UNL     1      34.075 -16.954 -23.252  0.00  0.00    +0.116 C 
ATOM     29  C   UNL     1      34.347 -19.164 -23.889  0.00  0.00    +0.109 C 
ATOM     30  C   UNL     1      34.562 -16.250 -20.963  0.00  0.00    -0.015 C 
ATOM     31  C   UNL     1      33.730 -15.636 -23.539  0.00  0.00    +0.028 C 
ATOM     32  C   UNL     1      34.210 -14.940 -21.279  0.00  0.00    -0.004 C 
ATOM     33  C   UNL     1      34.252 -20.176 -24.982  0.00  0.00    +0.066 C 
ATOM     34  C   UNL     1      33.794 -14.634 -22.568  0.00  0.00    +0.002 C 
ENDBRANCH  23  25
ENDBRANCH  22  23
ENDBRANCH   6  22
TORSDOF 7
ENDMDL
MODEL 2
REMARK VINA RESULT:     -11.6      8.616     15.216
REMARK  Name = 6914621
REMARK  7 active torsions:
REMARK  status: ('A' for Active; 'I' for Inactive)
REMARK    1  A    between atoms: C_1  and  C_9
REMARK    2  A    between atoms: C_6  and  O_22
REMARK    3  A    between atoms: N_8  and  C_14
REMARK    4  A    between atoms: C_14  and  C_18
REMARK    5  A    between atoms: N_17  and  O_20
REMARK    6  A    between atoms: O_22  and  C_23
REMARK    7  A    between atoms: C_23  and  C_25
REMARK                            x       y       z     vdW  Elec       q    Type
REMARK                         _______ _______ _______ _____ _____    ______ ____
ROOT
ATOM      1  C   UNL     1      31.700  -7.725 -21.144  0.00  0.00    -0.014 C 
ATOM      2  C   UNL     1      31.931  -8.320 -22.380  0.00  0.00    -0.001 C 
ATOM      3  C   UNL     1      31.321  -8.497 -20.050  0.00  0.00    -0.001 C 
ATOM      4  C   UNL     1      31.780  -9.699 -22.524  0.00  0.00    +0.037 C 
ATOM      5  C   UNL     1      31.170  -9.875 -20.193  0.00  0.00    +0.037 C 
ATOM      6  C   UNL     1      31.400 -10.477 -21.430  0.00  0.00    +0.139 C 
ENDROOT
BRANCH   1   9
ATOM      7  O   UNL     1      33.695  -5.506 -22.460  0.00  0.00    -0.275 OA
ATOM      8  N   UNL     1      31.460  -5.009 -22.981  0.00  0.00    -0.273 N 
ATOM      9  C   UNL     1      31.864  -6.209 -20.986  0.00  0.00    +0.089 C 
ATOM     10  C   UNL     1      30.492  -5.492 -20.936  0.00  0.00    +0.034 C 
ATOM     11  C   UNL     1      30.161  -5.224 -22.392  0.00  0.00    +0.095 C 
ATOM     12  C   UNL     1      32.498  -5.532 -22.209  0.00  0.00    +0.229 C 
ATOM     13  C   UNL     1      32.707  -5.884 -19.745  0.00  0.00    +0.014 C 
BRANCH   8  14
ATOM     14  C   UNL     1      31.610  -4.392 -24.281  0.00  0.00    +0.154 C 
ATOM     15  C   UNL     1      30.504  -3.382 -24.546  0.00  0.00    +0.031 C 
BRANCH  14  18
ATOM     16  O   UNL     1      30.912  -6.511 -25.228  0.00  0.00    -0.271 OA
ATOM     17  N   UNL     1      32.466  -5.236 -26.363  0.00  0.00    -0.196 N 
ATOM     18  C   UNL     1      31.599  -5.496 -25.329  0.00  0.00    +0.262 C 
ATOM     19  H   UNL     1      32.998  -4.408 -26.404  0.00  0.00    +0.182 HD
BRANCH  17  20
ATOM     20  O   UNL     1      32.547  -6.219 -27.358  0.00  0.00    -0.295 OA
ATOM     21  H   UNL     1      31.677  -6.633 -27.476  0.00  0.00    +0.241 HD
ENDBRANCH  17  20
ENDBRANCH  14  18
ENDBRANCH   8  14
ENDBRANCH   1   9
BRANCH   6  22
ATOM     22  O   UNL     1      31.254 -11.823 -21.570  0.00  0.00    -0.471 OA
BRANCH  22  23
ATOM     23  C   UNL     1      32.363 -12.639 -21.196  0.00  0.00    +0.229 C 
BRANCH  23  25
ATOM     24  N   UNL     1      33.639 -14.777 -24.675  0.00  0.00    -0.410 NA
ATOM     25  C   UNL     1      32.827 -13.415 -22.393  0.00  0.00    +0.012 C 
ATOM     26  C   UNL     1      33.542 -14.612 -22.272  0.00  0.00    +0.096 C 
ATOM     27  C   UNL     1      32.520 -12.903 -23.644  0.00  0.00    +0.023 C 
ATOM     28  C   UNL     1      33.935 -15.270 -23.457  0.00  0.00    +0.116 C 
ATOM     29  C   UNL     1      32.946 -13.618 -24.745  0.00  0.00    +0.109 C 
ATOM     30  C   UNL     1      33.867 -15.154 -21.017  0.00  0.00    -0.015 C 
ATOM     31  C   UNL     1      34.647 -16.461 -23.339  0.00  0.00    +0.028 C 
ATOM     32  C   UNL     1      34.580 -16.347 -20.929  0.00  0.00    -0.004 C 
ATOM     33  C   UNL     1      32.640 -13.108 -26.114  0.00  0.00    +0.066 C 
ATOM     34  C   UNL     1      34.970 -17.000 -22.091  0.00  0.00    +0.002 C 
ENDBRANCH  23  25
ENDBRANCH  22  23
ENDBRANCH   6  22
TORSDOF 7
ENDMDL
MODEL 3
REMARK VINA RESULT:     -11.4      1.239      1.782
REMARK  Name = 6914621
REMARK  7 active torsions:
REMARK  status: ('A' for Active; 'I' for Inactive)
REMARK    1  A    between atoms: C_1  and  C_9
REMARK    2  A    between atoms: C_6  and  O_22
REMARK    3  A    between atoms: N_8  and  C_14
REMARK    4  A    between atoms: C_14  and  C_18
REMARK    5  A    between atoms: N_17  and  O_20
REMARK    6  A    between atoms: O_22  and  C_23
REMARK    7  A    between atoms: C_23  and  C_25
REMARK                            x       y       z     vdW  Elec       q    Type
REMARK                         _______ _______ _______ _____ _____    ______ ____
ROOT
ATOM      1  C   UNL     1      34.760 -22.340 -16.656  0.00  0.00    -0.014 C 
ATOM      2  C   UNL     1      33.683 -22.380 -17.536  0.00  0.00    -0.001 C 
ATOM      3  C   UNL     1      35.938 -21.691 -17.012  0.00  0.00    -0.001 C 
ATOM      4  C   UNL     1      33.786 -21.763 -18.784  0.00  0.00    +0.037 C 
ATOM      5  C   UNL     1      36.041 -21.075 -18.259  0.00  0.00    +0.037 C 
ATOM      6  C   UNL     1      34.964 -21.110 -19.145  0.00  0.00    +0.139 C 
ENDROOT
BRANCH   1   9
ATOM      7  O   UNL     1      35.601 -25.270 -15.496  0.00  0.00    -0.275 OA
ATOM      8  N   UNL     1      36.741 -23.574 -14.341  0.00  0.00    -0.273 N 
ATOM      9  C   UNL     1      34.649 -23.019 -15.286  0.00  0.00    +0.089 C 
ATOM     10  C   UNL     1      35.016 -22.046 -14.139  0.00  0.00    +0.034 C 
ATOM     11  C   UNL     1      36.521 -22.190 -13.999  0.00  0.00    +0.095 C 
ATOM     12  C   UNL     1      35.687 -24.128 -15.067  0.00  0.00    +0.229 C 
ATOM     13  C   UNL     1      33.244 -23.606 -15.088  0.00  0.00    +0.014 C 
BRANCH   8  14
ATOM     14  C   UNL     1      37.983 -24.244 -14.021  0.00  0.00    +0.154 C 
ATOM     15  C   UNL     1      38.780 -24.560 -15.277  0.00  0.00    +0.031 C 
BRANCH  14  18
ATOM     16  O   UNL     1      37.834 -26.643 -13.714  0.00  0.00    -0.271 OA
ATOM     17  N   UNL     1      37.085 -25.251 -12.031  0.00  0.00    -0.196 N 
ATOM     18  C   UNL     1      37.647 -25.517 -13.257  0.00  0.00    +0.262 C 
ATOM     19  H   UNL     1      36.955 -24.331 -11.705  0.00  0.00    +0.182 HD
BRANCH  17  20
ATOM     20  O   UNL     1      36.711 -26.368 -11.273  0.00  0.00    -0.295 OA
ATOM     21  H   UNL     1      36.173 -26.082 -10.518  0.00  0.00    +0.241 HD
ENDBRANCH  17  20
ENDBRANCH  14  18
ENDBRANCH   8  14
ENDBRANCH   1   9
BRANCH   6  22
ATOM     22  O   UNL     1      35.063 -20.509 -20.361  0.00  0.00    -0.471 OA
BRANCH  22  23
ATOM     23  C   UNL     1      35.136 -19.084 -20.377  0.00  0.00    +0.229 C 
BRANCH  23  25
ATOM     24  N   UNL     1      33.976 -17.767 -24.279  0.00  0.00    -0.410 NA
ATOM     25  C   UNL     1      34.726 -18.587 -21.732  0.00  0.00    +0.012 C 
ATOM     26  C   UNL     1      34.439 -17.238 -21.973  0.00  0.00    +0.096 C 
ATOM     27  C   UNL     1      34.640 -19.517 -22.754  0.00  0.00    +0.023 C 
ATOM     28  C   UNL     1      34.062 -16.867 -23.281  0.00  0.00    +0.116 C 
ATOM     29  C   UNL     1      34.263 -19.059 -24.000  0.00  0.00    +0.109 C 
ATOM     30  C   UNL     1      34.518 -16.272 -20.955  0.00  0.00    -0.015 C 
ATOM     31  C   UNL     1      33.775 -15.526 -23.523  0.00  0.00    +0.028 C 
ATOM     32  C   UNL     1      34.226 -14.939 -21.226  0.00  0.00    -0.004 C 
ATOM     33  C   UNL     1      34.156 -20.023 -25.135  0.00  0.00    +0.066 C 
ATOM     34  C   UNL     1      33.854 -14.566 -22.512  0.00  0.00    +0.002 C 
ENDBRANCH  23  25
ENDBRANCH  22  23
ENDBRANCH   6  22
TORSDOF 7
ENDMDL
MODEL 4
REMARK VINA RESULT:     -11.1      3.195     10.259
REMARK  Name = 6914621
REMARK  7 active torsions:
REMARK  status: ('A' for Active; 'I' for Inactive)
REMARK    1  A    between atoms: C_1  and  C_9
REMARK    2  A    between atoms: C_6  and  O_22
REMARK    3  A    between atoms: N_8  and  C_14
REMARK    4  A    between atoms: C_14  and  C_18
REMARK    5  A    between atoms: N_17  and  O_20
REMARK    6  A    between atoms: O_22  and  C_23
REMARK    7  A    between atoms: C_23  and  C_25
REMARK                            x       y       z     vdW  Elec       q    Type
REMARK                         _______ _______ _______ _____ _____    ______ ____
ROOT
ATOM      1  C   UNL     1      34.091 -19.694 -21.498  0.00  0.00    -0.014 C 
ATOM      2  C   UNL     1      34.851 -20.415 -20.582  0.00  0.00    -0.001 C 
ATOM      3  C   UNL     1      32.718 -19.558 -21.322  0.00  0.00    -0.001 C 
ATOM      4  C   UNL     1      34.231 -21.004 -19.480  0.00  0.00    +0.037 C 
ATOM      5  C   UNL     1      32.098 -20.147 -20.221  0.00  0.00    +0.037 C 
ATOM      6  C   UNL     1      32.854 -20.870 -19.299  0.00  0.00    +0.139 C 
ENDROOT
BRANCH   1   9
ATOM      7  O   UNL     1      33.102 -17.648 -23.837  0.00  0.00    -0.275 OA
ATOM      8  N   UNL     1      34.849 -16.689 -22.596  0.00  0.00    -0.273 N 
ATOM      9  C   UNL     1      34.772 -19.048 -22.709  0.00  0.00    +0.089 C 
ATOM     10  C   UNL     1      36.198 -18.554 -22.363  0.00  0.00    +0.034 C 
ATOM     11  C   UNL     1      35.985 -17.147 -21.834  0.00  0.00    +0.095 C 
ATOM     12  C   UNL     1      34.113 -17.735 -23.153  0.00  0.00    +0.229 C 
ATOM     13  C   UNL     1      34.794 -20.020 -23.897  0.00  0.00    +0.014 C 
BRANCH   8  14
ATOM     14  C   UNL     1      34.500 -15.287 -22.666  0.00  0.00    +0.154 C 
ATOM     15  C   UNL     1      33.471 -14.919 -21.608  0.00  0.00    +0.031 C 
BRANCH  14  18
ATOM     16  O   UNL     1      34.524 -15.397 -25.086  0.00  0.00    -0.271 OA
ATOM     17  N   UNL     1      32.825 -14.240 -24.036  0.00  0.00    -0.196 N 
ATOM     18  C   UNL     1      33.967 -15.005 -24.063  0.00  0.00    +0.262 C 
ATOM     19  H   UNL     1      32.412 -13.947 -23.191  0.00  0.00    +0.182 HD
BRANCH  17  20
ATOM     20  O   UNL     1      32.284 -13.902 -25.283  0.00  0.00    -0.295 OA
ATOM     21  H   UNL     1      32.736 -14.404 -25.980  0.00  0.00    +0.241 HD
ENDBRANCH  17  20
ENDBRANCH  14  18
ENDBRANCH   8  14
ENDBRANCH   1   9
BRANCH   6  22
ATOM     22  O   UNL     1      32.249 -21.444 -18.223  0.00  0.00    -0.471 OA
BRANCH  22  23
ATOM     23  C   UNL     1      32.915 -22.551 -17.618  0.00  0.00    +0.229 C 
BRANCH  23  25
ATOM     24  N   UNL     1      31.247 -23.118 -13.720  0.00  0.00    -0.410 NA
ATOM     25  C   UNL     1      32.365 -22.760 -16.238  0.00  0.00    +0.012 C 
ATOM     26  C   UNL     1      33.175 -23.151 -15.166  0.00  0.00    +0.096 C 
ATOM     27  C   UNL     1      31.008 -22.549 -16.054  0.00  0.00    +0.023 C 
ATOM     28  C   UNL     1      32.565 -23.322 -13.905  0.00  0.00    +0.116 C 
ATOM     29  C   UNL     1      30.502 -22.741 -14.784  0.00  0.00    +0.109 C 
ATOM     30  C   UNL     1      34.553 -23.372 -15.324  0.00  0.00    -0.015 C 
ATOM     31  C   UNL     1      33.368 -23.711 -12.837  0.00  0.00    +0.028 C 
ATOM     32  C   UNL     1      35.333 -23.761 -14.238  0.00  0.00    -0.004 C 
ATOM     33  C   UNL     1      29.046 -22.527 -14.534  0.00  0.00    +0.066 C 
ATOM     34  C   UNL     1      34.739 -23.931 -12.994  0.00  0.00    +0.002 C 
ENDBRANCH  23  25
ENDBRANCH  22  23
ENDBRANCH   6  22
TORSDOF 7
ENDMDL
MODEL 5
REMARK VINA RESULT:     -11.0      2.834     10.182
REMARK  Name = 6914621
REMARK  7 active torsions:
REMARK  status: ('A' for Active; 'I' for Inactive)
REMARK    1  A    between atoms: C_1  and  C_9
REMARK    2  A    between atoms: C_6  and  O_22
REMARK    3  A    between atoms: N_8  and  C_14
REMARK    4  A    between atoms: C_14  and  C_18
REMARK    5  A    between atoms: N_17  and  O_20
REMARK    6  A    between atoms: O_22  and  C_23
REMARK    7  A    between atoms: C_23  and  C_25
REMARK                            x       y       z     vdW  Elec       q    Type
REMARK                         _______ _______ _______ _____ _____    ______ ____
ROOT
ATOM      1  C   UNL     1      34.175 -19.718 -21.423  0.00  0.00    -0.014 C 
ATOM      2  C   UNL     1      32.811 -19.575 -21.192  0.00  0.00    -0.001 C 
ATOM      3  C   UNL     1      34.966 -20.453 -20.546  0.00  0.00    -0.001 C 
ATOM      4  C   UNL     1      32.233 -20.173 -20.071  0.00  0.00    +0.037 C 
ATOM      5  C   UNL     1      34.389 -21.051 -19.427  0.00  0.00    +0.037 C 
ATOM      6  C   UNL     1      33.021 -20.912 -19.190  0.00  0.00    +0.139 C 
ENDROOT
BRANCH   1   9
ATOM      7  O   UNL     1      33.097 -17.661 -23.714  0.00  0.00    -0.275 OA
ATOM      8  N   UNL     1      34.879 -16.701 -22.525  0.00  0.00    -0.273 N 
ATOM      9  C   UNL     1      34.811 -19.059 -22.652  0.00  0.00    +0.089 C 
ATOM     10  C   UNL     1      36.245 -18.559 -22.350  0.00  0.00    +0.034 C 
ATOM     11  C   UNL     1      36.042 -17.158 -21.805  0.00  0.00    +0.095 C 
ATOM     12  C   UNL     1      34.130 -17.747 -23.064  0.00  0.00    +0.229 C 
ATOM     13  C   UNL     1      34.799 -20.023 -23.848  0.00  0.00    +0.014 C 
BRANCH   8  14
ATOM     14  C   UNL     1      34.519 -15.300 -22.573  0.00  0.00    +0.154 C 
ATOM     15  C   UNL     1      33.480 -14.958 -21.517  0.00  0.00    +0.031 C 
BRANCH  14  18
ATOM     16  O   UNL     1      34.571 -15.354 -24.995  0.00  0.00    -0.271 OA
ATOM     17  N   UNL     1      32.836 -14.259 -23.937  0.00  0.00    -0.196 N 
ATOM     18  C   UNL     1      33.994 -14.998 -23.969  0.00  0.00    +0.262 C 
ATOM     19  H   UNL     1      32.407 -13.995 -23.090  0.00  0.00    +0.182 HD
BRANCH  17  20
ATOM     20  O   UNL     1      32.300 -13.904 -25.182  0.00  0.00    -0.295 OA
ATOM     21  H   UNL     1      32.838 -13.201 -25.578  0.00  0.00    +0.241 HD
ENDBRANCH  17  20
ENDBRANCH  14  18
ENDBRANCH   8  14
ENDBRANCH   1   9
BRANCH   6  22
ATOM     22  O   UNL     1      32.457 -21.496 -18.098  0.00  0.00    -0.471 OA
BRANCH  22  23
ATOM     23  C   UNL     1      32.875 -22.823 -17.782  0.00  0.00    +0.229 C 
BRANCH  23  25
ATOM     24  N   UNL     1      33.715 -23.087 -13.596  0.00  0.00    -0.410 NA
ATOM     25  C   UNL     1      33.133 -22.918 -16.307  0.00  0.00    +0.012 C 
ATOM     26  C   UNL     1      32.094 -23.059 -15.379  0.00  0.00    +0.096 C 
ATOM     27  C   UNL     1      34.451 -22.863 -15.884  0.00  0.00    +0.023 C 
ATOM     28  C   UNL     1      32.436 -23.141 -14.012  0.00  0.00    +0.116 C 
ATOM     29  C   UNL     1      34.686 -22.951 -14.527  0.00  0.00    +0.109 C 
ATOM     30  C   UNL     1      30.749 -23.119 -15.780  0.00  0.00    -0.015 C 
ATOM     31  C   UNL     1      31.405 -23.281 -13.088  0.00  0.00    +0.028 C 
ATOM     32  C   UNL     1      29.738 -23.259 -14.832  0.00  0.00    -0.004 C 
ATOM     33  C   UNL     1      36.090 -22.896 -14.021  0.00  0.00    +0.066 C 
ATOM     34  C   UNL     1      30.067 -23.340 -13.485  0.00  0.00    +0.002 C 
ENDBRANCH  23  25
ENDBRANCH  22  23
ENDBRANCH   6  22
TORSDOF 7
ENDMDL
MODEL 6
REMARK VINA RESULT:     -10.7      8.099     14.885
REMARK  Name = 6914621
REMARK  7 active torsions:
REMARK  status: ('A' for Active; 'I' for Inactive)
REMARK    1  A    between atoms: C_1  and  C_9
REMARK    2  A    between atoms: C_6  and  O_22
REMARK    3  A    between atoms: N_8  and  C_14
REMARK    4  A    between atoms: C_14  and  C_18
REMARK    5  A    between atoms: N_17  and  O_20
REMARK    6  A    between atoms: O_22  and  C_23
REMARK    7  A    between atoms: C_23  and  C_25
REMARK                            x       y       z     vdW  Elec       q    Type
REMARK                         _______ _______ _______ _____ _____    ______ ____
ROOT
ATOM      1  C   UNL     1      31.500  -8.699 -21.666  0.00  0.00    -0.014 C 
ATOM      2  C   UNL     1      31.263  -9.263 -20.416  0.00  0.00    -0.001 C 
ATOM      3  C   UNL     1      31.895  -9.497 -22.735  0.00  0.00    -0.001 C 
ATOM      4  C   UNL     1      31.423 -10.637 -20.234  0.00  0.00    +0.037 C 
ATOM      5  C   UNL     1      32.055 -10.870 -22.554  0.00  0.00    +0.037 C 
ATOM      6  C   UNL     1      31.818 -11.441 -21.303  0.00  0.00    +0.139 C 
ENDROOT
BRANCH   1   9
ATOM      7  O   UNL     1      33.545  -6.244 -22.318  0.00  0.00    -0.275 OA
ATOM      8  N   UNL     1      31.944  -6.451 -24.023  0.00  0.00    -0.273 N 
ATOM      9  C   UNL     1      31.327  -7.190 -21.865  0.00  0.00    +0.089 C 
ATOM     10  C   UNL     1      30.078  -6.870 -22.722  0.00  0.00    +0.034 C 
ATOM     11  C   UNL     1      30.586  -6.919 -24.151  0.00  0.00    +0.095 C 
ATOM     12  C   UNL     1      32.432  -6.555 -22.720  0.00  0.00    +0.229 C 
ATOM     13  C   UNL     1      31.270  -6.470 -20.510  0.00  0.00    +0.014 C 
BRANCH   8  14
ATOM     14  C   UNL     1      32.708  -6.016 -25.172  0.00  0.00    +0.154 C 
ATOM     15  C   UNL     1      34.110  -6.604 -25.160  0.00  0.00    +0.031 C 
BRANCH  14  18
ATOM     16  O   UNL     1      33.768  -3.859 -24.865  0.00  0.00    -0.271 OA
ATOM     17  N   UNL     1      31.540  -3.935 -25.464  0.00  0.00    -0.196 N 
ATOM     18  C   UNL     1      32.757  -4.495 -25.155  0.00  0.00    +0.262 C 
ATOM     19  H   UNL     1      30.755  -4.484 -25.691  0.00  0.00    +0.182 HD
BRANCH  17  20
ATOM     20  O   UNL     1      31.485  -2.535 -25.437  0.00  0.00    -0.295 OA
ATOM     21  H   UNL     1      32.125  -2.173 -26.070  0.00  0.00    +0.241 HD
ENDBRANCH  17  20
ENDBRANCH  14  18
ENDBRANCH   8  14
ENDBRANCH   1   9
BRANCH   6  22
ATOM     22  O   UNL     1      31.973 -12.781 -21.126  0.00  0.00    -0.471 OA
BRANCH  22  23
ATOM     23  C   UNL     1      33.303 -13.294 -21.175  0.00  0.00    +0.229 C 
BRANCH  23  25
ATOM     24  N   UNL     1      33.752 -15.488 -24.820  0.00  0.00    -0.410 NA
ATOM     25  C   UNL     1      33.475 -14.092 -22.433  0.00  0.00    +0.012 C 
ATOM     26  C   UNL     1      33.997 -15.391 -22.424  0.00  0.00    +0.096 C 
ATOM     27  C   UNL     1      33.094 -13.496 -23.624  0.00  0.00    +0.023 C 
ATOM     28  C   UNL     1      34.120 -16.063 -23.659  0.00  0.00    +0.116 C 
ATOM     29  C   UNL     1      33.253 -14.232 -24.781  0.00  0.00    +0.109 C 
ATOM     30  C   UNL     1      34.391 -16.020 -21.231  0.00  0.00    -0.015 C 
ATOM     31  C   UNL     1      34.639 -17.354 -23.652  0.00  0.00    +0.028 C 
ATOM     32  C   UNL     1      34.907 -17.313 -21.254  0.00  0.00    -0.004 C 
ATOM     33  C   UNL     1      32.857 -13.634 -26.091  0.00  0.00    +0.066 C 
ATOM     34  C   UNL     1      35.032 -17.980 -22.466  0.00  0.00    +0.002 C 
ENDBRANCH  23  25
ENDBRANCH  22  23
ENDBRANCH   6  22
TORSDOF 7
ENDMDL
MODEL 7
REMARK VINA RESULT:     -10.4      1.124      2.455
REMARK  Name = 6914621
REMARK  7 active torsions:
REMARK  status: ('A' for Active; 'I' for Inactive)
REMARK    1  A    between atoms: C_1  and  C_9
REMARK    2  A    between atoms: C_6  and  O_22
REMARK    3  A    between atoms: N_8  and  C_14
REMARK    4  A    between atoms: C_14  and  C_18
REMARK    5  A    between atoms: N_17  and  O_20
REMARK    6  A    between atoms: O_22  and  C_23
REMARK    7  A    between atoms: C_23  and  C_25
REMARK                            x       y       z     vdW  Elec       q    Type
REMARK                         _______ _______ _______ _____ _____    ______ ____
ROOT
ATOM      1  C   UNL     1      34.604 -22.328 -16.692  0.00  0.00    -0.014 C 
ATOM      2  C   UNL     1      35.770 -21.636 -17.008  0.00  0.00    -0.001 C 
ATOM      3  C   UNL     1      33.557 -22.399 -17.606  0.00  0.00    -0.001 C 
ATOM      4  C   UNL     1      35.888 -21.010 -18.249  0.00  0.00    +0.037 C 
ATOM      5  C   UNL     1      33.676 -21.773 -18.846  0.00  0.00    +0.037 C 
ATOM      6  C   UNL     1      34.842 -21.079 -19.168  0.00  0.00    +0.139 C 
ENDROOT
BRANCH   1   9
ATOM      7  O   UNL     1      34.597 -25.435 -15.704  0.00  0.00    -0.275 OA
ATOM      8  N   UNL     1      36.381 -24.268 -14.720  0.00  0.00    -0.273 N 
ATOM      9  C   UNL     1      34.473 -23.014 -15.328  0.00  0.00    +0.089 C 
ATOM     10  C   UNL     1      35.297 -22.281 -14.242  0.00  0.00    +0.034 C 
ATOM     11  C   UNL     1      36.675 -22.910 -14.335  0.00  0.00    +0.095 C 
ATOM     12  C   UNL     1      35.111 -24.409 -15.282  0.00  0.00    +0.229 C 
ATOM     13  C   UNL     1      32.997 -23.129 -14.922  0.00  0.00    +0.014 C 
BRANCH   8  14
ATOM     14  C   UNL     1      37.367 -25.321 -14.602  0.00  0.00    +0.154 C 
ATOM     15  C   UNL     1      36.862 -26.455 -13.724  0.00  0.00    +0.031 C 
BRANCH  14  18
ATOM     16  O   UNL     1      38.702 -24.244 -12.891  0.00  0.00    -0.271 OA
ATOM     17  N   UNL     1      39.670 -24.717 -14.932  0.00  0.00    -0.196 N 
ATOM     18  C   UNL     1      38.637 -24.712 -14.026  0.00  0.00    +0.262 C 
ATOM     19  H   UNL     1      39.573 -25.103 -15.833  0.00  0.00    +0.182 HD
BRANCH  17  20
ATOM     20  O   UNL     1      40.871 -24.142 -14.497  0.00  0.00    -0.295 OA
ATOM     21  H   UNL     1      41.604 -24.754 -14.666  0.00  0.00    +0.241 HD
ENDBRANCH  17  20
ENDBRANCH  14  18
ENDBRANCH   8  14
ENDBRANCH   1   9
BRANCH   6  22
ATOM     22  O   UNL     1      34.958 -20.469 -20.379  0.00  0.00    -0.471 OA
BRANCH  22  23
ATOM     23  C   UNL     1      35.794 -19.314 -20.448  0.00  0.00    +0.229 C 
BRANCH  23  25
ATOM     24  N   UNL     1      33.827 -16.220 -22.652  0.00  0.00    -0.410 NA
ATOM     25  C   UNL     1      35.100 -18.253 -21.250  0.00  0.00    +0.012 C 
ATOM     26  C   UNL     1      34.627 -18.492 -22.545  0.00  0.00    +0.096 C 
ATOM     27  C   UNL     1      34.939 -17.010 -20.660  0.00  0.00    +0.023 C 
ATOM     28  C   UNL     1      33.987 -17.430 -23.220  0.00  0.00    +0.116 C 
ATOM     29  C   UNL     1      34.300 -16.035 -21.399  0.00  0.00    +0.109 C 
ATOM     30  C   UNL     1      34.776 -19.742 -23.168  0.00  0.00    -0.015 C 
ATOM     31  C   UNL     1      33.515 -17.665 -24.509  0.00  0.00    +0.028 C 
ATOM     32  C   UNL     1      34.294 -19.949 -24.458  0.00  0.00    -0.004 C 
ATOM     33  C   UNL     1      34.102 -14.679 -20.808  0.00  0.00    +0.066 C 
ATOM     34  C   UNL     1      33.663 -18.908 -25.128  0.00  0.00    +0.002 C 
ENDBRANCH  23  25
ENDBRANCH  22  23
ENDBRANCH   6  22
TORSDOF 7
ENDMDL
MODEL 8
REMARK VINA RESULT:     -10.1      6.837     12.981
REMARK  Name = 6914621
REMARK  7 active torsions:
REMARK  status: ('A' for Active; 'I' for Inactive)
REMARK    1  A    between atoms: C_1  and  C_9
REMARK    2  A    between atoms: C_6  and  O_22
REMARK    3  A    between atoms: N_8  and  C_14
REMARK    4  A    between atoms: C_14  and  C_18
REMARK    5  A    between atoms: N_17  and  O_20
REMARK    6  A    between atoms: O_22  and  C_23
REMARK    7  A    between atoms: C_23  and  C_25
REMARK                            x       y       z     vdW  Elec       q    Type
REMARK                         _______ _______ _______ _____ _____    ______ ____
ROOT
ATOM      1  C   UNL     1      31.924 -11.134 -21.745  0.00  0.00    -0.014 C 
ATOM      2  C   UNL     1      32.059 -12.086 -20.741  0.00  0.00    -0.001 C 
ATOM      3  C   UNL     1      32.613 -11.273 -22.947  0.00  0.00    -0.001 C 
ATOM      4  C   UNL     1      32.890 -13.189 -20.940  0.00  0.00    +0.037 C 
ATOM      5  C   UNL     1      33.444 -12.375 -23.145  0.00  0.00    +0.037 C 
ATOM      6  C   UNL     1      33.582 -13.334 -22.142  0.00  0.00    +0.139 C 
ENDROOT
BRANCH   1   9
ATOM      7  O   UNL     1      31.868  -8.694 -19.582  0.00  0.00    -0.275 OA
ATOM      8  N   UNL     1      32.130  -7.852 -21.758  0.00  0.00    -0.273 N 
ATOM      9  C   UNL     1      31.013  -9.921 -21.527  0.00  0.00    +0.089 C 
ATOM     10  C   UNL     1      30.646  -9.237 -22.867  0.00  0.00    +0.034 C 
ATOM     11  C   UNL     1      31.773  -8.247 -23.098  0.00  0.00    +0.095 C 
ATOM     12  C   UNL     1      31.702  -8.763 -20.792  0.00  0.00    +0.229 C 
ATOM     13  C   UNL     1      29.754 -10.326 -20.747  0.00  0.00    +0.014 C 
BRANCH   8  14
ATOM     14  C   UNL     1      32.931  -6.674 -21.503  0.00  0.00    +0.154 C 
ATOM     15  C   UNL     1      32.060  -5.478 -21.154  0.00  0.00    +0.031 C 
BRANCH  14  18
ATOM     16  O   UNL     1      34.602  -7.181 -23.183  0.00  0.00    -0.271 OA
ATOM     17  N   UNL     1      33.493  -5.159 -23.283  0.00  0.00    -0.196 N 
ATOM     18  C   UNL     1      33.764  -6.395 -22.745  0.00  0.00    +0.262 C 
ATOM     19  H   UNL     1      32.813  -4.560 -22.898  0.00  0.00    +0.182 HD
BRANCH  17  20
ATOM     20  O   UNL     1      34.243  -4.804 -24.412  0.00  0.00    -0.295 OA
ATOM     21  H   UNL     1      35.188  -4.893 -24.214  0.00  0.00    +0.241 HD
ENDBRANCH  17  20
ENDBRANCH  14  18
ENDBRANCH   8  14
ENDBRANCH   1   9
BRANCH   6  22
ATOM     22  O   UNL     1      34.392 -14.410 -22.336  0.00  0.00    -0.471 OA
BRANCH  22  23
ATOM     23  C   UNL     1      34.477 -14.928 -23.663  0.00  0.00    +0.229 C 
BRANCH  23  25
ATOM     24  N   UNL     1      33.039 -18.956 -23.755  0.00  0.00    -0.410 NA
ATOM     25  C   UNL     1      33.996 -16.349 -23.667  0.00  0.00    +0.012 C 
ATOM     26  C   UNL     1      34.484 -17.301 -22.764  0.00  0.00    +0.096 C 
ATOM     27  C   UNL     1      33.039 -16.696 -24.606  0.00  0.00    +0.023 C 
ATOM     28  C   UNL     1      33.969 -18.613 -22.845  0.00  0.00    +0.116 C 
ATOM     29  C   UNL     1      32.597 -18.004 -24.608  0.00  0.00    +0.109 C 
ATOM     30  C   UNL     1      35.454 -16.977 -21.801  0.00  0.00    -0.015 C 
ATOM     31  C   UNL     1      34.452 -19.561 -21.948  0.00  0.00    +0.028 C 
ATOM     32  C   UNL     1      35.919 -17.946 -20.916  0.00  0.00    -0.004 C 
ATOM     33  C   UNL     1      31.565 -18.428 -25.600  0.00  0.00    +0.066 C 
ATOM     34  C   UNL     1      35.418 -19.239 -20.990  0.00  0.00    +0.002 C 
ENDBRANCH  23  25
ENDBRANCH  22  23
ENDBRANCH   6  22
TORSDOF 7
ENDMDL
MODEL 9
REMARK VINA RESULT:      -9.8      4.519      8.339
REMARK  Name = 6914621
REMARK  7 active torsions:
REMARK  status: ('A' for Active; 'I' for Inactive)
REMARK    1  A    between atoms: C_1  and  C_9
REMARK    2  A    between atoms: C_6  and  O_22
REMARK    3  A    between atoms: N_8  and  C_14
REMARK    4  A    between atoms: C_14  and  C_18
REMARK    5  A    between atoms: N_17  and  O_20
REMARK    6  A    between atoms: O_22  and  C_23
REMARK    7  A    between atoms: C_23  and  C_25
REMARK                            x       y       z     vdW  Elec       q    Type
REMARK                         _______ _______ _______ _____ _____    ______ ____
ROOT
ATOM      1  C   UNL     1      34.656 -16.762 -21.952  0.00  0.00    -0.014 C 
ATOM      2  C   UNL     1      34.339 -16.308 -20.676  0.00  0.00    -0.001 C 
ATOM      3  C   UNL     1      34.583 -15.904 -23.045  0.00  0.00    -0.001 C 
ATOM      4  C   UNL     1      33.945 -14.982 -20.492  0.00  0.00    +0.037 C 
ATOM      5  C   UNL     1      34.190 -14.579 -22.861  0.00  0.00    +0.037 C 
ATOM      6  C   UNL     1      33.872 -14.117 -21.584  0.00  0.00    +0.139 C 
ENDROOT
BRANCH   1   9
ATOM      7  O   UNL     1      36.543 -18.830 -20.278  0.00  0.00    -0.275 OA
ATOM      8  N   UNL     1      34.353 -19.663 -20.436  0.00  0.00    -0.273 N 
ATOM      9  C   UNL     1      35.086 -18.219 -22.156  0.00  0.00    +0.089 C 
ATOM     10  C   UNL     1      33.904 -19.099 -22.633  0.00  0.00    +0.034 C 
ATOM     11  C   UNL     1      33.242 -19.559 -21.348  0.00  0.00    +0.095 C 
ATOM     12  C   UNL     1      35.467 -18.932 -20.851  0.00  0.00    +0.229 C 
ATOM     13  C   UNL     1      36.269 -18.301 -23.131  0.00  0.00    +0.014 C 
BRANCH   8  14
ATOM     14  C   UNL     1      34.244 -20.388 -19.187  0.00  0.00    +0.154 C 
ATOM     15  C   UNL     1      35.611 -20.812 -18.672  0.00  0.00    +0.031 C 
BRANCH  14  18
ATOM     16  O   UNL     1      32.128 -21.527 -19.495  0.00  0.00    -0.271 OA
ATOM     17  N   UNL     1      34.077 -22.764 -19.508  0.00  0.00    -0.196 N 
ATOM     18  C   UNL     1      33.353 -21.598 -19.423  0.00  0.00    +0.262 C 
ATOM     19  H   UNL     1      35.059 -22.775 -19.445  0.00  0.00    +0.182 HD
BRANCH  17  20
ATOM     20  O   UNL     1      33.332 -23.937 -19.689  0.00  0.00    -0.295 OA
ATOM     21  H   UNL     1      32.768 -24.086 -18.914  0.00  0.00    +0.241 HD
ENDBRANCH  17  20
ENDBRANCH  14  18
ENDBRANCH   8  14
ENDBRANCH   1   9
BRANCH   6  22
ATOM     22  O   UNL     1      33.489 -12.823 -21.404  0.00  0.00    -0.471 OA
BRANCH  22  23
ATOM     23  C   UNL     1      32.125 -12.505 -21.677  0.00  0.00    +0.229 C 
BRANCH  23  25
ATOM     24  N   UNL     1      31.195  -8.755 -19.841  0.00  0.00    -0.410 NA
ATOM     25  C   UNL     1      31.801 -11.174 -21.067  0.00  0.00    +0.012 C 
ATOM     26  C   UNL     1      31.679 -10.013 -21.840  0.00  0.00    +0.096 C 
ATOM     27  C   UNL     1      31.621 -11.127 -19.694  0.00  0.00    +0.023 C 
ATOM     28  C   UNL     1      31.370  -8.807 -21.175  0.00  0.00    +0.116 C 
ATOM     29  C   UNL     1      31.322  -9.901 -19.135  0.00  0.00    +0.109 C 
ATOM     30  C   UNL     1      31.855 -10.031 -23.234  0.00  0.00    -0.015 C 
ATOM     31  C   UNL     1      31.248  -7.651 -21.941  0.00  0.00    +0.028 C 
ATOM     32  C   UNL     1      31.727  -8.859 -23.974  0.00  0.00    -0.004 C 
ATOM     33  C   UNL     1      31.120  -9.798 -17.659  0.00  0.00    +0.066 C 
ATOM     34  C   UNL     1      31.424  -7.668 -23.327  0.00  0.00    +0.002 C 
ENDBRANCH  23  25
ENDBRANCH  22  23
ENDBRANCH   6  22
TORSDOF 7
ENDMDL
