MODEL 1
REMARK VINA RESULT:     -12.5      0.000      0.000
REMARK  Name = 46908929
REMARK  8 active torsions:
REMARK  status: ('A' for Active; 'I' for Inactive)
REMARK    1  A    between atoms: C_4  and  O_15
REMARK    2  A    between atoms: C_5  and  O_17
REMARK    3  A    between atoms: C_6  and  O_19
REMARK    4  A    between atoms: C_7  and  C_21
REMARK    5  A    between atoms: C_13  and  C_24
REMARK    6  A    between atoms: C_21  and  O_22
REMARK    7  A    between atoms: C_24  and  C_25
REMARK    8  A    between atoms: C_30  and  C_31
REMARK                            x       y       z     vdW  Elec       q    Type
REMARK                         _______ _______ _______ _____ _____    ______ ____
ROOT
ATOM      1  O   UNL     1      34.218 -16.697 -21.197  0.00  0.00    -0.326 OA
ATOM      2  O   UNL     1      36.069 -17.843 -22.194  0.00  0.00    -0.324 OA
ATOM      3  C   UNL     1      34.641 -17.864 -21.910  0.00  0.00    +0.235 C 
ATOM      4  C   UNL     1      33.851 -18.005 -23.219  0.00  0.00    +0.196 C 
ATOM      5  C   UNL     1      33.976 -16.738 -24.068  0.00  0.00    +0.172 C 
ATOM      6  C   UNL     1      33.635 -15.497 -23.238  0.00  0.00    +0.169 C 
ATOM      7  C   UNL     1      34.419 -15.481 -21.922  0.00  0.00    +0.176 C 
ATOM      8  C   UNL     1      34.498 -19.027 -20.980  0.00  0.00    +0.029 C 
ATOM      9  C   UNL     1      35.756 -19.419 -20.543  0.00  0.00    +0.008 C 
ATOM     10  C   UNL     1      36.786 -18.550 -21.156  0.00  0.00    +0.171 C 
ATOM     11  C   UNL     1      33.356 -19.671 -20.529  0.00  0.00    -0.004 C 
ATOM     12  C   UNL     1      35.917 -20.461 -19.645  0.00  0.00    -0.002 C 
ATOM     13  C   UNL     1      33.503 -20.730 -19.630  0.00  0.00    -0.018 C 
ATOM     14  C   UNL     1      34.776 -21.122 -19.191  0.00  0.00    -0.004 C 
ENDROOT
BRANCH   4  15
ATOM     15  O   UNL     1      34.341 -19.100 -23.993  0.00  0.00    -0.377 OA
ATOM     16  H   UNL     1      33.722 -19.844 -23.928  0.00  0.00    +0.211 HD
ENDBRANCH   4  15
BRANCH   5  17
ATOM     17  O   UNL     1      33.056 -16.813 -25.160  0.00  0.00    -0.379 OA
ATOM     18  H   UNL     1      32.342 -16.170 -25.025  0.00  0.00    +0.211 HD
ENDBRANCH   5  17
BRANCH   6  19
ATOM     19  O   UNL     1      33.953 -14.346 -24.017  0.00  0.00    -0.379 OA
ATOM     20  H   UNL     1      33.133 -13.923 -24.319  0.00  0.00    +0.211 HD
ENDBRANCH   6  19
BRANCH   7  21
ATOM     21  C   UNL     1      33.982 -14.340 -21.008  0.00  0.00    +0.169 C 
BRANCH  21  22
ATOM     22  O   UNL     1      32.815 -13.750 -21.550  0.00  0.00    -0.379 OA
ATOM     23  H   UNL     1      33.061 -13.152 -22.273  0.00  0.00    +0.211 HD
ENDBRANCH  21  22
ENDBRANCH   7  21
BRANCH  13  24
ATOM     24  C   UNL     1      32.294 -21.446 -19.127  0.00  0.00    +0.053 C 
BRANCH  24  25
ATOM     25  C   UNL     1      32.464 -22.046 -17.746  0.00  0.00    -0.018 C 
ATOM     26  C   UNL     1      31.352 -22.231 -16.926  0.00  0.00    -0.004 C 
ATOM     27  C   UNL     1      33.731 -22.416 -17.297  0.00  0.00    -0.004 C 
ATOM     28  C   UNL     1      31.508 -22.784 -15.654  0.00  0.00    -0.005 C 
ATOM     29  C   UNL     1      33.887 -22.969 -16.026  0.00  0.00    -0.005 C 
ATOM     30  C   UNL     1      32.776 -23.153 -15.205  0.00  0.00    -0.022 C 
BRANCH  30  31
ATOM     31  C   UNL     1      32.941 -23.747 -13.847  0.00  0.00    +0.026 C 
ATOM     32  C   UNL     1      31.658 -24.402 -13.341  0.00  0.00    +0.005 C 
ENDBRANCH  30  31
ENDBRANCH  24  25
ENDBRANCH  13  24
TORSDOF 8
ENDMDL
MODEL 2
REMARK VINA RESULT:     -11.3      5.826     10.153
REMARK  Name = 46908929
REMARK  8 active torsions:
REMARK  status: ('A' for Active; 'I' for Inactive)
REMARK    1  A    between atoms: C_4  and  O_15
REMARK    2  A    between atoms: C_5  and  O_17
REMARK    3  A    between atoms: C_6  and  O_19
REMARK    4  A    between atoms: C_7  and  C_21
REMARK    5  A    between atoms: C_13  and  C_24
REMARK    6  A    between atoms: C_21  and  O_22
REMARK    7  A    between atoms: C_24  and  C_25
REMARK    8  A    between atoms: C_30  and  C_31
REMARK                            x       y       z     vdW  Elec       q    Type
REMARK                         _______ _______ _______ _____ _____    ______ ____
ROOT
ATOM      1  O   UNL     1      35.607 -23.169 -13.365  0.00  0.00    -0.326 OA
ATOM      2  O   UNL     1      33.929 -24.647 -14.222  0.00  0.00    -0.324 OA
ATOM      3  C   UNL     1      35.224 -24.023 -14.449  0.00  0.00    +0.235 C 
ATOM      4  C   UNL     1      36.291 -25.102 -14.679  0.00  0.00    +0.196 C 
ATOM      5  C   UNL     1      36.553 -25.891 -13.394  0.00  0.00    +0.172 C 
ATOM      6  C   UNL     1      36.837 -24.941 -12.227  0.00  0.00    +0.169 C 
ATOM      7  C   UNL     1      35.758 -23.859 -12.121  0.00  0.00    +0.176 C 
ATOM      8  C   UNL     1      34.975 -23.146 -15.635  0.00  0.00    +0.029 C 
ATOM      9  C   UNL     1      33.606 -23.052 -15.852  0.00  0.00    +0.008 C 
ATOM     10  C   UNL     1      32.888 -23.855 -14.836  0.00  0.00    +0.171 C 
ATOM     11  C   UNL     1      35.871 -22.461 -16.440  0.00  0.00    -0.004 C 
ATOM     12  C   UNL     1      33.089 -22.275 -16.874  0.00  0.00    -0.002 C 
ATOM     13  C   UNL     1      35.364 -21.680 -17.483  0.00  0.00    -0.018 C 
ATOM     14  C   UNL     1      33.981 -21.588 -17.698  0.00  0.00    -0.004 C 
ENDROOT
BRANCH   4  15
ATOM     15  O   UNL     1      35.870 -26.027 -15.681  0.00  0.00    -0.377 OA
ATOM     16  H   UNL     1      36.520 -26.042 -16.402  0.00  0.00    +0.211 HD
ENDBRANCH   4  15
BRANCH   5  17
ATOM     17  O   UNL     1      37.699 -26.725 -13.581  0.00  0.00    -0.379 OA
ATOM     18  H   UNL     1      37.648 -27.152 -14.452  0.00  0.00    +0.211 HD
ENDBRANCH   5  17
BRANCH   6  19
ATOM     19  O   UNL     1      36.881 -25.715 -11.030  0.00  0.00    -0.379 OA
ATOM     20  H   UNL     1      37.021 -26.649 -11.253  0.00  0.00    +0.211 HD
ENDBRANCH   6  19
BRANCH   7  21
ATOM     21  C   UNL     1      36.099 -22.809 -11.068  0.00  0.00    +0.169 C 
BRANCH  21  22
ATOM     22  O   UNL     1      36.090 -23.428  -9.795  0.00  0.00    -0.379 OA
ATOM     23  H   UNL     1      35.513 -24.208  -9.819  0.00  0.00    +0.211 HD
ENDBRANCH  21  22
ENDBRANCH   7  21
BRANCH  13  24
ATOM     24  C   UNL     1      36.302 -20.933 -18.370  0.00  0.00    +0.053 C 
BRANCH  24  25
ATOM     25  C   UNL     1      35.631 -20.270 -19.556  0.00  0.00    -0.018 C 
ATOM     26  C   UNL     1      36.337 -19.351 -20.332  0.00  0.00    -0.004 C 
ATOM     27  C   UNL     1      34.309 -20.580 -19.872  0.00  0.00    -0.004 C 
ATOM     28  C   UNL     1      35.719 -18.741 -21.424  0.00  0.00    -0.005 C 
ATOM     29  C   UNL     1      33.691 -19.971 -20.964  0.00  0.00    -0.005 C 
ATOM     30  C   UNL     1      34.396 -19.051 -21.741  0.00  0.00    -0.022 C 
BRANCH  30  31
ATOM     31  C   UNL     1      33.738 -18.401 -22.909  0.00  0.00    +0.026 C 
ATOM     32  C   UNL     1      34.394 -17.073 -23.280  0.00  0.00    +0.005 C 
ENDBRANCH  30  31
ENDBRANCH  24  25
ENDBRANCH  13  24
TORSDOF 8
ENDMDL
MODEL 3
REMARK VINA RESULT:     -11.2      7.060     11.409
REMARK  Name = 46908929
REMARK  8 active torsions:
REMARK  status: ('A' for Active; 'I' for Inactive)
REMARK    1  A    between atoms: C_4  and  O_15
REMARK    2  A    between atoms: C_5  and  O_17
REMARK    3  A    between atoms: C_6  and  O_19
REMARK    4  A    between atoms: C_7  and  C_21
REMARK    5  A    between atoms: C_13  and  C_24
REMARK    6  A    between atoms: C_21  and  O_22
REMARK    7  A    between atoms: C_24  and  C_25
REMARK    8  A    between atoms: C_30  and  C_31
REMARK                            x       y       z     vdW  Elec       q    Type
REMARK                         _______ _______ _______ _____ _____    ______ ____
ROOT
ATOM      1  O   UNL     1      31.231  -5.976 -22.775  0.00  0.00    -0.326 OA
ATOM      2  O   UNL     1      33.050  -5.804 -21.228  0.00  0.00    -0.324 OA
ATOM      3  C   UNL     1      32.399  -6.613 -22.248  0.00  0.00    +0.235 C 
ATOM      4  C   UNL     1      33.392  -6.927 -23.377  0.00  0.00    +0.196 C 
ATOM      5  C   UNL     1      33.736  -5.660 -24.165  0.00  0.00    +0.172 C 
ATOM      6  C   UNL     1      32.462  -4.937 -24.607  0.00  0.00    +0.169 C 
ATOM      7  C   UNL     1      31.505  -4.733 -23.428  0.00  0.00    +0.176 C 
ATOM      8  C   UNL     1      31.941  -7.816 -21.485  0.00  0.00    +0.029 C 
ATOM      9  C   UNL     1      32.046  -7.560 -20.124  0.00  0.00    +0.008 C 
ATOM     10  C   UNL     1      32.578  -6.193 -19.919  0.00  0.00    +0.171 C 
ATOM     11  C   UNL     1      31.442  -9.024 -21.944  0.00  0.00    -0.004 C 
ATOM     12  C   UNL     1      31.660  -8.496 -19.181  0.00  0.00    -0.002 C 
ATOM     13  C   UNL     1      31.057  -9.984 -21.005  0.00  0.00    -0.018 C 
ATOM     14  C   UNL     1      31.165  -9.721 -19.631  0.00  0.00    -0.004 C 
ENDROOT
BRANCH   4  15
ATOM     15  O   UNL     1      34.608  -7.459 -22.852  0.00  0.00    -0.377 OA
ATOM     16  H   UNL     1      35.317  -7.347 -23.504  0.00  0.00    +0.211 HD
ENDBRANCH   4  15
BRANCH   5  17
ATOM     17  O   UNL     1      34.475  -6.022 -25.334  0.00  0.00    -0.379 OA
ATOM     18  H   UNL     1      35.023  -6.800 -25.141  0.00  0.00    +0.211 HD
ENDBRANCH   5  17
BRANCH   6  19
ATOM     19  O   UNL     1      32.839  -3.679 -25.162  0.00  0.00    -0.379 OA
ATOM     20  H   UNL     1      32.070  -3.268 -25.586  0.00  0.00    +0.211 HD
ENDBRANCH   6  19
BRANCH   7  21
ATOM     21  C   UNL     1      30.162  -4.157 -23.871  0.00  0.00    +0.169 C 
BRANCH  21  22
ATOM     22  O   UNL     1      30.270  -2.747 -23.914  0.00  0.00    -0.379 OA
ATOM     23  H   UNL     1      30.598  -2.474 -24.786  0.00  0.00    +0.211 HD
ENDBRANCH  21  22
ENDBRANCH   7  21
BRANCH  13  24
ATOM     24  C   UNL     1      30.519 -11.297 -21.466  0.00  0.00    +0.053 C 
BRANCH  24  25
ATOM     25  C   UNL     1      31.584 -12.349 -21.702  0.00  0.00    -0.018 C 
ATOM     26  C   UNL     1      32.063 -13.106 -20.633  0.00  0.00    -0.004 C 
ATOM     27  C   UNL     1      32.083 -12.562 -22.986  0.00  0.00    -0.004 C 
ATOM     28  C   UNL     1      33.043 -14.076 -20.849  0.00  0.00    -0.005 C 
ATOM     29  C   UNL     1      33.062 -13.531 -23.203  0.00  0.00    -0.005 C 
ATOM     30  C   UNL     1      33.542 -14.288 -22.135  0.00  0.00    -0.022 C 
BRANCH  30  31
ATOM     31  C   UNL     1      34.587 -15.326 -22.365  0.00  0.00    +0.026 C 
ATOM     32  C   UNL     1      34.557 -16.425 -21.305  0.00  0.00    +0.005 C 
ENDBRANCH  30  31
ENDBRANCH  24  25
ENDBRANCH  13  24
TORSDOF 8
ENDMDL
MODEL 4
REMARK VINA RESULT:     -11.0      3.147      8.847
REMARK  Name = 46908929
REMARK  8 active torsions:
REMARK  status: ('A' for Active; 'I' for Inactive)
REMARK    1  A    between atoms: C_4  and  O_15
REMARK    2  A    between atoms: C_5  and  O_17
REMARK    3  A    between atoms: C_6  and  O_19
REMARK    4  A    between atoms: C_7  and  C_21
REMARK    5  A    between atoms: C_13  and  C_24
REMARK    6  A    between atoms: C_21  and  O_22
REMARK    7  A    between atoms: C_24  and  C_25
REMARK    8  A    between atoms: C_30  and  C_31
REMARK                            x       y       z     vdW  Elec       q    Type
REMARK                         _______ _______ _______ _____ _____    ______ ____
ROOT
ATOM      1  O   UNL     1      33.274 -19.136 -20.657  0.00  0.00    -0.326 OA
ATOM      2  O   UNL     1      34.808 -19.410 -22.475  0.00  0.00    -0.324 OA
ATOM      3  C   UNL     1      34.531 -18.737 -21.213  0.00  0.00    +0.235 C 
ATOM      4  C   UNL     1      35.666 -19.010 -20.217  0.00  0.00    +0.196 C 
ATOM      5  C   UNL     1      35.670 -20.479 -19.786  0.00  0.00    +0.172 C 
ATOM      6  C   UNL     1      34.279 -20.905 -19.312  0.00  0.00    +0.169 C 
ATOM      7  C   UNL     1      33.206 -20.529 -20.340  0.00  0.00    +0.176 C 
ATOM      8  C   UNL     1      34.401 -17.302 -21.615  0.00  0.00    +0.029 C 
ATOM      9  C   UNL     1      34.303 -17.224 -22.999  0.00  0.00    +0.008 C 
ATOM     10  C   UNL     1      34.366 -18.585 -23.577  0.00  0.00    +0.171 C 
ATOM     11  C   UNL     1      34.342 -16.160 -20.833  0.00  0.00    -0.004 C 
ATOM     12  C   UNL     1      34.144 -16.009 -23.644  0.00  0.00    -0.002 C 
ATOM     13  C   UNL     1      34.191 -14.926 -21.470  0.00  0.00    -0.018 C 
ATOM     14  C   UNL     1      34.092 -14.851 -22.867  0.00  0.00    -0.004 C 
ENDROOT
BRANCH   4  15
ATOM     15  O   UNL     1      36.936 -18.722 -20.801  0.00  0.00    -0.377 OA
ATOM     16  H   UNL     1      37.628 -18.800 -20.126  0.00  0.00    +0.211 HD
ENDBRANCH   4  15
BRANCH   5  17
ATOM     17  O   UNL     1      36.584 -20.646 -18.699  0.00  0.00    -0.379 OA
ATOM     18  H   UNL     1      36.788 -21.589 -18.591  0.00  0.00    +0.211 HD
ENDBRANCH   5  17
BRANCH   6  19
ATOM     19  O   UNL     1      34.296 -22.317 -19.110  0.00  0.00    -0.379 OA
ATOM     20  H   UNL     1      35.057 -22.555 -18.557  0.00  0.00    +0.211 HD
ENDBRANCH   6  19
BRANCH   7  21
ATOM     21  C   UNL     1      31.796 -20.801 -19.823  0.00  0.00    +0.169 C 
BRANCH  21  22
ATOM     22  O   UNL     1      31.889 -21.307 -18.504  0.00  0.00    -0.379 OA
ATOM     23  H   UNL     1      32.331 -22.170 -18.520  0.00  0.00    +0.211 HD
ENDBRANCH  21  22
ENDBRANCH   7  21
BRANCH  13  24
ATOM     24  C   UNL     1      34.128 -13.676 -20.656  0.00  0.00    +0.053 C 
BRANCH  24  25
ATOM     25  C   UNL     1      33.154 -12.645 -21.188  0.00  0.00    -0.018 C 
ATOM     26  C   UNL     1      31.998 -12.342 -20.468  0.00  0.00    -0.004 C 
ATOM     27  C   UNL     1      33.413 -11.997 -22.395  0.00  0.00    -0.004 C 
ATOM     28  C   UNL     1      31.101 -11.392 -20.956  0.00  0.00    -0.005 C 
ATOM     29  C   UNL     1      32.516 -11.046 -22.883  0.00  0.00    -0.005 C 
ATOM     30  C   UNL     1      31.360 -10.744 -22.164  0.00  0.00    -0.022 C 
BRANCH  30  31
ATOM     31  C   UNL     1      30.403  -9.726 -22.684  0.00  0.00    +0.026 C 
ATOM     32  C   UNL     1      31.064  -8.368 -22.906  0.00  0.00    +0.005 C 
ENDBRANCH  30  31
ENDBRANCH  24  25
ENDBRANCH  13  24
TORSDOF 8
ENDMDL
MODEL 5
REMARK VINA RESULT:     -10.9      5.471      9.341
REMARK  Name = 46908929
REMARK  8 active torsions:
REMARK  status: ('A' for Active; 'I' for Inactive)
REMARK    1  A    between atoms: C_4  and  O_15
REMARK    2  A    between atoms: C_5  and  O_17
REMARK    3  A    between atoms: C_6  and  O_19
REMARK    4  A    between atoms: C_7  and  C_21
REMARK    5  A    between atoms: C_13  and  C_24
REMARK    6  A    between atoms: C_21  and  O_22
REMARK    7  A    between atoms: C_24  and  C_25
REMARK    8  A    between atoms: C_30  and  C_31
REMARK                            x       y       z     vdW  Elec       q    Type
REMARK                         _______ _______ _______ _____ _____    ______ ____
ROOT
ATOM      1  O   UNL     1      35.547 -22.620 -14.150  0.00  0.00    -0.326 OA
ATOM      2  O   UNL     1      34.211 -24.363 -13.197  0.00  0.00    -0.324 OA
ATOM      3  C   UNL     1      34.780 -23.799 -14.413  0.00  0.00    +0.235 C 
ATOM      4  C   UNL     1      35.644 -24.852 -15.121  0.00  0.00    +0.196 C 
ATOM      5  C   UNL     1      36.904 -25.157 -14.307  0.00  0.00    +0.172 C 
ATOM      6  C   UNL     1      37.634 -23.863 -13.938  0.00  0.00    +0.169 C 
ATOM      7  C   UNL     1      36.676 -22.850 -13.303  0.00  0.00    +0.176 C 
ATOM      8  C   UNL     1      33.572 -23.377 -15.188  0.00  0.00    +0.029 C 
ATOM      9  C   UNL     1      32.460 -23.414 -14.356  0.00  0.00    +0.008 C 
ATOM     10  C   UNL     1      32.869 -23.861 -13.005  0.00  0.00    +0.171 C 
ATOM     11  C   UNL     1      33.459 -22.965 -16.507  0.00  0.00    -0.004 C 
ATOM     12  C   UNL     1      31.206 -23.043 -14.809  0.00  0.00    -0.002 C 
ATOM     13  C   UNL     1      32.199 -22.595 -16.981  0.00  0.00    -0.018 C 
ATOM     14  C   UNL     1      31.079 -22.634 -16.137  0.00  0.00    -0.004 C 
ENDROOT
BRANCH   4  15
ATOM     15  O   UNL     1      34.925 -26.073 -15.287  0.00  0.00    -0.377 OA
ATOM     16  H   UNL     1      34.006 -25.948 -15.000  0.00  0.00    +0.211 HD
ENDBRANCH   4  15
BRANCH   5  17
ATOM     17  O   UNL     1      37.787 -25.961 -15.094  0.00  0.00    -0.379 OA
ATOM     18  H   UNL     1      37.484 -25.965 -16.016  0.00  0.00    +0.211 HD
ENDBRANCH   5  17
BRANCH   6  19
ATOM     19  O   UNL     1      38.680 -24.193 -13.027  0.00  0.00    -0.379 OA
ATOM     20  H   UNL     1      39.435 -24.555 -13.517  0.00  0.00    +0.211 HD
ENDBRANCH   6  19
BRANCH   7  21
ATOM     21  C   UNL     1      37.343 -21.497 -13.071  0.00  0.00    +0.169 C 
BRANCH  21  22
ATOM     22  O   UNL     1      37.807 -21.447 -11.734  0.00  0.00    -0.379 OA
ATOM     23  H   UNL     1      37.644 -20.564 -11.368  0.00  0.00    +0.211 HD
ENDBRANCH  21  22
ENDBRANCH   7  21
BRANCH  13  24
ATOM     24  C   UNL     1      32.043 -22.150 -18.397  0.00  0.00    +0.053 C 
BRANCH  24  25
ATOM     25  C   UNL     1      33.231 -21.378 -18.933  0.00  0.00    -0.018 C 
ATOM     26  C   UNL     1      33.044 -20.404 -19.914  0.00  0.00    -0.004 C 
ATOM     27  C   UNL     1      34.511 -21.640 -18.445  0.00  0.00    -0.004 C 
ATOM     28  C   UNL     1      34.138 -19.693 -20.407  0.00  0.00    -0.005 C 
ATOM     29  C   UNL     1      35.605 -20.928 -18.939  0.00  0.00    -0.005 C 
ATOM     30  C   UNL     1      35.419 -19.954 -19.919  0.00  0.00    -0.022 C 
BRANCH  30  31
ATOM     31  C   UNL     1      36.586 -19.192 -20.445  0.00  0.00    +0.026 C 
ATOM     32  C   UNL     1      36.173 -18.111 -21.442  0.00  0.00    +0.005 C 
ENDBRANCH  30  31
ENDBRANCH  24  25
ENDBRANCH  13  24
TORSDOF 8
ENDMDL
MODEL 6
REMARK VINA RESULT:      -9.5      6.392      9.122
REMARK  Name = 46908929
REMARK  8 active torsions:
REMARK  status: ('A' for Active; 'I' for Inactive)
REMARK    1  A    between atoms: C_4  and  O_15
REMARK    2  A    between atoms: C_5  and  O_17
REMARK    3  A    between atoms: C_6  and  O_19
REMARK    4  A    between atoms: C_7  and  C_21
REMARK    5  A    between atoms: C_13  and  C_24
REMARK    6  A    between atoms: C_21  and  O_22
REMARK    7  A    between atoms: C_24  and  C_25
REMARK    8  A    between atoms: C_30  and  C_31
REMARK                            x       y       z     vdW  Elec       q    Type
REMARK                         _______ _______ _______ _____ _____    ______ ____
ROOT
ATOM      1  O   UNL     1      36.387 -24.855 -15.106  0.00  0.00    -0.326 OA
ATOM      2  O   UNL     1      37.595 -22.844 -14.624  0.00  0.00    -0.324 OA
ATOM      3  C   UNL     1      36.288 -23.476 -14.733  0.00  0.00    +0.235 C 
ATOM      4  C   UNL     1      35.528 -23.337 -13.406  0.00  0.00    +0.196 C 
ATOM      5  C   UNL     1      36.186 -24.181 -12.311  0.00  0.00    +0.172 C 
ATOM      6  C   UNL     1      36.390 -25.620 -12.790  0.00  0.00    +0.169 C 
ATOM      7  C   UNL     1      37.091 -25.655 -14.152  0.00  0.00    +0.176 C 
ATOM      8  C   UNL     1      35.655 -22.752 -15.879  0.00  0.00    +0.029 C 
ATOM      9  C   UNL     1      36.626 -22.011 -16.541  0.00  0.00    +0.008 C 
ATOM     10  C   UNL     1      37.933 -22.200 -15.872  0.00  0.00    +0.171 C 
ATOM     11  C   UNL     1      34.343 -22.765 -16.325  0.00  0.00    -0.004 C 
ATOM     12  C   UNL     1      36.321 -21.262 -17.664  0.00  0.00    -0.002 C 
ATOM     13  C   UNL     1      34.018 -22.007 -17.452  0.00  0.00    -0.018 C 
ATOM     14  C   UNL     1      35.001 -21.260 -18.118  0.00  0.00    -0.004 C 
ENDROOT
BRANCH   4  15
ATOM     15  O   UNL     1      35.521 -21.979 -12.965  0.00  0.00    -0.377 OA
ATOM     16  H   UNL     1      36.283 -21.823 -12.386  0.00  0.00    +0.211 HD
ENDBRANCH   4  15
BRANCH   5  17
ATOM     17  O   UNL     1      35.335 -24.207 -11.164  0.00  0.00    -0.379 OA
ATOM     18  H   UNL     1      35.650 -23.559 -10.513  0.00  0.00    +0.211 HD
ENDBRANCH   5  17
BRANCH   6  19
ATOM     19  O   UNL     1      37.174 -26.303 -11.814  0.00  0.00    -0.379 OA
ATOM     20  H   UNL     1      36.678 -26.357 -10.981  0.00  0.00    +0.211 HD
ENDBRANCH   6  19
BRANCH   7  21
ATOM     21  C   UNL     1      37.165 -27.068 -14.724  0.00  0.00    +0.169 C 
BRANCH  21  22
ATOM     22  O   UNL     1      36.497 -27.084 -15.972  0.00  0.00    -0.379 OA
ATOM     23  H   UNL     1      35.908 -27.854 -16.015  0.00  0.00    +0.211 HD
ENDBRANCH  21  22
ENDBRANCH   7  21
BRANCH  13  24
ATOM     24  C   UNL     1      32.613 -21.996 -17.956  0.00  0.00    +0.053 C 
BRANCH  24  25
ATOM     25  C   UNL     1      31.592 -22.471 -16.943  0.00  0.00    -0.018 C 
ATOM     26  C   UNL     1      30.267 -22.048 -17.039  0.00  0.00    -0.004 C 
ATOM     27  C   UNL     1      31.977 -23.332 -15.916  0.00  0.00    -0.004 C 
ATOM     28  C   UNL     1      29.326 -22.486 -16.106  0.00  0.00    -0.005 C 
ATOM     29  C   UNL     1      31.036 -23.770 -14.983  0.00  0.00    -0.005 C 
ATOM     30  C   UNL     1      29.711 -23.347 -15.078  0.00  0.00    -0.022 C 
BRANCH  30  31
ATOM     31  C   UNL     1      28.704 -23.817 -14.084  0.00  0.00    +0.026 C 
ATOM     32  C   UNL     1      28.605 -25.340 -14.034  0.00  0.00    +0.005 C 
ENDBRANCH  30  31
ENDBRANCH  24  25
ENDBRANCH  13  24
TORSDOF 8
ENDMDL
