MODEL 1
REMARK VINA RESULT:     -13.7      0.000      0.000
REMARK  Name = 66555680
REMARK  4 active torsions:
REMARK  status: ('A' for Active; 'I' for Inactive)
REMARK    1  A    between atoms: N_1  and  C_8
REMARK    2  A    between atoms: C_3  and  C_22
REMARK    3  A    between atoms: C_4  and  N_18
REMARK    4  A    between atoms: C_22  and  C_24
REMARK                            x       y       z     vdW  Elec       q    Type
REMARK                         _______ _______ _______ _____ _____    ______ ____
ROOT
ATOM      1  N   UNL     1      33.666 -14.730 -22.515  0.00  0.00    -0.177 N 
ATOM      2  N   UNL     1      33.769 -15.112 -23.800  0.00  0.00    -0.171 NA
ATOM      3  C   UNL     1      34.789 -16.600 -22.399  0.00  0.00    +0.090 C 
ATOM      4  C   UNL     1      34.261 -15.587 -21.636  0.00  0.00    +0.122 C 
ATOM      5  C   UNL     1      34.456 -16.255 -23.722  0.00  0.00    +0.124 C 
ENDROOT
BRANCH   1   8
ATOM      6  N   UNL     1      32.198 -10.103 -23.350  0.00  0.00    -0.318 N 
ATOM      7  N   UNL     1      31.061  -9.953 -21.445  0.00  0.00    -0.318 N 
ATOM      8  C   UNL     1      32.993 -13.547 -22.203  0.00  0.00    +0.077 C 
ATOM      9  C   UNL     1      32.357 -11.316 -22.731  0.00  0.00    +0.060 C 
ATOM     10  C   UNL     1      33.047 -12.472 -23.097  0.00  0.00    +0.032 C 
ATOM     11  C   UNL     1      31.639 -11.197 -21.546  0.00  0.00    +0.059 C 
ATOM     12  C   UNL     1      32.281 -13.457 -21.005  0.00  0.00    +0.018 C 
ATOM     13  C   UNL     1      31.595 -12.287 -20.659  0.00  0.00    +0.017 C 
ATOM     14  C   UNL     1      31.416  -9.323 -22.543  0.00  0.00    +0.144 C 
ATOM     15  C   UNL     1      31.054  -7.946 -22.927  0.00  0.00    +0.044 C 
ATOM     16  H   UNL     1      32.577  -9.840 -24.220  0.00  0.00    +0.148 HD
ATOM     17  H   UNL     1      30.502  -9.608 -20.711  0.00  0.00    +0.148 HD
ENDBRANCH   1   8
BRANCH   4  18
ATOM     18  N   UNL     1      34.257 -15.365 -20.303  0.00  0.00    -0.344 N 
ATOM     19  H   UNL     1      35.079 -15.066 -19.851  0.00  0.00    +0.144 HD
ATOM     20  H   UNL     1      33.432 -15.502 -19.784  0.00  0.00    +0.144 HD
ENDBRANCH   4  18
BRANCH   3  22
ATOM     21  O   UNL     1      36.749 -17.867 -22.251  0.00  0.00    -0.285 OA
ATOM     22  C   UNL     1      35.550 -17.799 -21.892  0.00  0.00    +0.213 C 
BRANCH  22  24
ATOM     23  N   UNL     1      35.687 -19.604 -20.216  0.00  0.00    -0.310 N 
ATOM     24  C   UNL     1      34.966 -18.803 -21.061  0.00  0.00    +0.088 C 
ATOM     25  C   UNL     1      34.847 -20.471 -19.552  0.00  0.00    +0.048 C 
ATOM     26  C   UNL     1      33.549 -20.206 -19.995  0.00  0.00    +0.015 C 
ATOM     27  C   UNL     1      33.640 -19.151 -20.947  0.00  0.00    +0.019 C 
ATOM     28  C   UNL     1      35.133 -21.458 -18.603  0.00  0.00    +0.015 C 
ATOM     29  C   UNL     1      32.485 -20.961 -19.466  0.00  0.00    +0.001 C 
ATOM     30  C   UNL     1      34.062 -22.195 -18.093  0.00  0.00    +0.001 C 
ATOM     31  C   UNL     1      32.756 -21.952 -18.516  0.00  0.00    +0.000 C 
ATOM     32  H   UNL     1      36.663 -19.567 -20.100  0.00  0.00    +0.152 HD
ENDBRANCH  22  24
ENDBRANCH   3  22
TORSDOF 4
ENDMDL
MODEL 2
REMARK VINA RESULT:     -13.5      2.812      5.576
REMARK  Name = 66555680
REMARK  4 active torsions:
REMARK  status: ('A' for Active; 'I' for Inactive)
REMARK    1  A    between atoms: N_1  and  C_8
REMARK    2  A    between atoms: C_3  and  C_22
REMARK    3  A    between atoms: C_4  and  N_18
REMARK    4  A    between atoms: C_22  and  C_24
REMARK                            x       y       z     vdW  Elec       q    Type
REMARK                         _______ _______ _______ _____ _____    ______ ____
ROOT
ATOM      1  N   UNL     1      34.718 -19.368 -20.561  0.00  0.00    -0.177 N 
ATOM      2  N   UNL     1      35.913 -19.666 -20.021  0.00  0.00    -0.171 NA
ATOM      3  C   UNL     1      34.351 -21.260 -19.533  0.00  0.00    +0.090 C 
ATOM      4  C   UNL     1      33.749 -20.291 -20.298  0.00  0.00    +0.122 C 
ATOM      5  C   UNL     1      35.682 -20.823 -19.395  0.00  0.00    +0.124 C 
ENDROOT
BRANCH   1   8
ATOM      6  N   UNL     1      33.985 -14.532 -21.143  0.00  0.00    -0.318 N 
ATOM      7  N   UNL     1      34.125 -14.618 -23.360  0.00  0.00    -0.318 N 
ATOM      8  C   UNL     1      34.576 -18.198 -21.309  0.00  0.00    +0.077 C 
ATOM      9  C   UNL     1      34.211 -15.850 -21.446  0.00  0.00    +0.060 C 
ATOM     10  C   UNL     1      34.346 -16.987 -20.648  0.00  0.00    +0.032 C 
ATOM     11  C   UNL     1      34.295 -15.878 -22.834  0.00  0.00    +0.059 C 
ATOM     12  C   UNL     1      34.665 -18.256 -22.701  0.00  0.00    +0.018 C 
ATOM     13  C   UNL     1      34.526 -17.103 -23.483  0.00  0.00    +0.017 C 
ATOM     14  C   UNL     1      33.942 -13.836 -22.320  0.00  0.00    +0.144 C 
ATOM     15  C   UNL     1      33.712 -12.380 -22.339  0.00  0.00    +0.044 C 
ATOM     16  H   UNL     1      33.874 -14.155 -20.241  0.00  0.00    +0.148 HD
ATOM     17  H   UNL     1      34.138 -14.357 -24.310  0.00  0.00    +0.148 HD
ENDBRANCH   1   8
BRANCH   4  18
ATOM     18  N   UNL     1      32.486 -20.158 -20.760  0.00  0.00    -0.344 N 
ATOM     19  H   UNL     1      31.723 -20.392 -20.184  0.00  0.00    +0.144 HD
ATOM     20  H   UNL     1      32.329 -19.826 -21.674  0.00  0.00    +0.144 HD
ENDBRANCH   4  18
BRANCH   3  22
ATOM     21  O   UNL     1      33.795 -23.526 -19.700  0.00  0.00    -0.285 OA
ATOM     22  C   UNL     1      33.697 -22.503 -18.983  0.00  0.00    +0.213 C 
BRANCH  22  24
ATOM     23  N   UNL     1      31.651 -22.374 -17.609  0.00  0.00    -0.310 N 
ATOM     24  C   UNL     1      33.005 -22.535 -17.733  0.00  0.00    +0.088 C 
ATOM     25  C   UNL     1      31.283 -22.455 -16.284  0.00  0.00    +0.048 C 
ATOM     26  C   UNL     1      32.448 -22.675 -15.546  0.00  0.00    +0.015 C 
ATOM     27  C   UNL     1      33.527 -22.723 -16.474  0.00  0.00    +0.019 C 
ATOM     28  C   UNL     1      30.021 -22.350 -15.689  0.00  0.00    +0.015 C 
ATOM     29  C   UNL     1      32.351 -22.798 -14.147  0.00  0.00    +0.001 C 
ATOM     30  C   UNL     1      29.949 -22.476 -14.300  0.00  0.00    +0.001 C 
ATOM     31  C   UNL     1      31.095 -22.696 -13.538  0.00  0.00    +0.000 C 
ATOM     32  H   UNL     1      31.031 -22.222 -18.358  0.00  0.00    +0.152 HD
ENDBRANCH  22  24
ENDBRANCH   3  22
TORSDOF 4
ENDMDL
MODEL 3
REMARK VINA RESULT:     -13.4      2.914      5.637
REMARK  Name = 66555680
REMARK  4 active torsions:
REMARK  status: ('A' for Active; 'I' for Inactive)
REMARK    1  A    between atoms: N_1  and  C_8
REMARK    2  A    between atoms: C_3  and  C_22
REMARK    3  A    between atoms: C_4  and  N_18
REMARK    4  A    between atoms: C_22  and  C_24
REMARK                            x       y       z     vdW  Elec       q    Type
REMARK                         _______ _______ _______ _____ _____    ______ ____
ROOT
ATOM      1  N   UNL     1      34.842 -19.250 -20.599  0.00  0.00    -0.177 N 
ATOM      2  N   UNL     1      36.093 -19.499 -20.175  0.00  0.00    -0.171 NA
ATOM      3  C   UNL     1      34.605 -21.018 -19.339  0.00  0.00    +0.090 C 
ATOM      4  C   UNL     1      33.914 -20.130 -20.127  0.00  0.00    +0.122 C 
ATOM      5  C   UNL     1      35.942 -20.581 -19.405  0.00  0.00    +0.124 C 
ENDROOT
BRANCH   1   8
ATOM      6  N   UNL     1      34.091 -14.488 -21.610  0.00  0.00    -0.318 N 
ATOM      7  N   UNL     1      33.913 -14.818 -23.802  0.00  0.00    -0.318 N 
ATOM      8  C   UNL     1      34.609 -18.164 -21.446  0.00  0.00    +0.077 C 
ATOM      9  C   UNL     1      34.256 -15.837 -21.792  0.00  0.00    +0.060 C 
ATOM     10  C   UNL     1      34.490 -16.882 -20.899  0.00  0.00    +0.032 C 
ATOM     11  C   UNL     1      34.141 -16.018 -23.167  0.00  0.00    +0.059 C 
ATOM     12  C   UNL     1      34.497 -18.377 -22.822  0.00  0.00    +0.018 C 
ATOM     13  C   UNL     1      34.263 -17.312 -23.700  0.00  0.00    +0.017 C 
ATOM     14  C   UNL     1      33.889 -13.923 -22.840  0.00  0.00    +0.144 C 
ATOM     15  C   UNL     1      33.676 -12.472 -22.990  0.00  0.00    +0.044 C 
ATOM     16  H   UNL     1      34.115 -14.011 -20.749  0.00  0.00    +0.148 HD
ATOM     17  H   UNL     1      33.793 -14.664 -24.766  0.00  0.00    +0.148 HD
ENDBRANCH   1   8
BRANCH   4  18
ATOM     18  N   UNL     1      32.605 -20.035 -20.449  0.00  0.00    -0.344 N 
ATOM     19  H   UNL     1      32.337 -19.909 -21.388  0.00  0.00    +0.144 HD
ATOM     20  H   UNL     1      31.920 -20.092 -19.745  0.00  0.00    +0.144 HD
ENDBRANCH   4  18
BRANCH   3  22
ATOM     21  O   UNL     1      33.276 -22.940 -19.252  0.00  0.00    -0.285 OA
ATOM     22  C   UNL     1      34.025 -22.188 -18.586  0.00  0.00    +0.213 C 
BRANCH  22  24
ATOM     23  N   UNL     1      33.410 -23.055 -16.359  0.00  0.00    -0.310 N 
ATOM     24  C   UNL     1      34.294 -22.444 -17.206  0.00  0.00    +0.088 C 
ATOM     25  C   UNL     1      33.954 -23.158 -15.098  0.00  0.00    +0.048 C 
ATOM     26  C   UNL     1      35.228 -22.590 -15.152  0.00  0.00    +0.015 C 
ATOM     27  C   UNL     1      35.429 -22.143 -16.489  0.00  0.00    +0.019 C 
ATOM     28  C   UNL     1      33.420 -23.705 -13.926  0.00  0.00    +0.015 C 
ATOM     29  C   UNL     1      36.010 -22.566 -13.981  0.00  0.00    +0.001 C 
ATOM     30  C   UNL     1      34.214 -23.670 -12.777  0.00  0.00    +0.001 C 
ATOM     31  C   UNL     1      35.490 -23.109 -12.802  0.00  0.00    +0.000 C 
ATOM     32  H   UNL     1      32.515 -23.375 -16.614  0.00  0.00    +0.152 HD
ENDBRANCH  22  24
ENDBRANCH   3  22
TORSDOF 4
ENDMDL
MODEL 4
REMARK VINA RESULT:     -13.2      1.887      8.793
REMARK  Name = 66555680
REMARK  4 active torsions:
REMARK  status: ('A' for Active; 'I' for Inactive)
REMARK    1  A    between atoms: N_1  and  C_8
REMARK    2  A    between atoms: C_3  and  C_22
REMARK    3  A    between atoms: C_4  and  N_18
REMARK    4  A    between atoms: C_22  and  C_24
REMARK                            x       y       z     vdW  Elec       q    Type
REMARK                         _______ _______ _______ _____ _____    ______ ____
ROOT
ATOM      1  N   UNL     1      34.136 -18.571 -22.038  0.00  0.00    -0.177 N 
ATOM      2  N   UNL     1      33.804 -19.004 -23.267  0.00  0.00    -0.171 NA
ATOM      3  C   UNL     1      34.154 -16.747 -23.241  0.00  0.00    +0.090 C 
ATOM      4  C   UNL     1      34.356 -17.226 -21.969  0.00  0.00    +0.122 C 
ATOM      5  C   UNL     1      33.817 -17.886 -23.997  0.00  0.00    +0.124 C 
ENDROOT
BRANCH   1   8
ATOM      6  N   UNL     1      32.287 -21.542 -18.571  0.00  0.00    -0.318 N 
ATOM      7  N   UNL     1      34.283 -22.208 -17.855  0.00  0.00    -0.318 N 
ATOM      8  C   UNL     1      34.223 -19.486 -20.988  0.00  0.00    +0.077 C 
ATOM      9  C   UNL     1      33.198 -20.880 -19.356  0.00  0.00    +0.060 C 
ATOM     10  C   UNL     1      33.049 -19.969 -20.402  0.00  0.00    +0.032 C 
ATOM     11  C   UNL     1      34.435 -21.313 -18.889  0.00  0.00    +0.059 C 
ATOM     12  C   UNL     1      35.480 -19.901 -20.540  0.00  0.00    +0.018 C 
ATOM     13  C   UNL     1      35.605 -20.817 -19.489  0.00  0.00    +0.017 C 
ATOM     14  C   UNL     1      32.984 -22.322 -17.691  0.00  0.00    +0.144 C 
ATOM     15  C   UNL     1      32.290 -23.166 -16.701  0.00  0.00    +0.044 C 
ATOM     16  H   UNL     1      31.307 -21.468 -18.633  0.00  0.00    +0.148 HD
ATOM     17  H   UNL     1      34.993 -22.663 -17.347  0.00  0.00    +0.148 HD
ENDBRANCH   1   8
BRANCH   4  18
ATOM     18  N   UNL     1      34.699 -16.613 -20.816  0.00  0.00    -0.344 N 
ATOM     19  H   UNL     1      35.601 -16.234 -20.709  0.00  0.00    +0.144 HD
ATOM     20  H   UNL     1      34.047 -16.546 -20.081  0.00  0.00    +0.144 HD
ENDBRANCH   4  18
BRANCH   3  22
ATOM     21  O   UNL     1      35.029 -15.116 -24.671  0.00  0.00    -0.285 OA
ATOM     22  C   UNL     1      34.276 -15.312 -23.689  0.00  0.00    +0.213 C 
BRANCH  22  24
ATOM     23  N   UNL     1      33.257 -13.065 -23.683  0.00  0.00    -0.310 N 
ATOM     24  C   UNL     1      33.593 -14.232 -23.050  0.00  0.00    +0.088 C 
ATOM     25  C   UNL     1      32.610 -12.220 -22.808  0.00  0.00    +0.048 C 
ATOM     26  C   UNL     1      32.535 -12.880 -21.579  0.00  0.00    +0.015 C 
ATOM     27  C   UNL     1      33.160 -14.148 -21.747  0.00  0.00    +0.019 C 
ATOM     28  C   UNL     1      32.091 -10.937 -23.009  0.00  0.00    +0.015 C 
ATOM     29  C   UNL     1      31.912 -12.228 -20.498  0.00  0.00    +0.001 C 
ATOM     30  C   UNL     1      31.477 -10.311 -21.922  0.00  0.00    +0.001 C 
ATOM     31  C   UNL     1      31.387 -10.944 -20.684  0.00  0.00    +0.000 C 
ATOM     32  H   UNL     1      33.451 -12.859 -24.626  0.00  0.00    +0.152 HD
ENDBRANCH  22  24
ENDBRANCH   3  22
TORSDOF 4
ENDMDL
MODEL 5
REMARK VINA RESULT:     -13.1      2.929     10.409
REMARK  Name = 66555680
REMARK  4 active torsions:
REMARK  status: ('A' for Active; 'I' for Inactive)
REMARK    1  A    between atoms: N_1  and  C_8
REMARK    2  A    between atoms: C_3  and  C_22
REMARK    3  A    between atoms: C_4  and  N_18
REMARK    4  A    between atoms: C_22  and  C_24
REMARK                            x       y       z     vdW  Elec       q    Type
REMARK                         _______ _______ _______ _____ _____    ______ ____
ROOT
ATOM      1  N   UNL     1      33.018 -12.751 -22.833  0.00  0.00    -0.177 N 
ATOM      2  N   UNL     1      33.483 -11.861 -23.725  0.00  0.00    -0.171 NA
ATOM      3  C   UNL     1      31.941 -10.919 -22.328  0.00  0.00    +0.090 C 
ATOM      4  C   UNL     1      32.092 -12.238 -21.972  0.00  0.00    +0.122 C 
ATOM      5  C   UNL     1      32.822 -10.743 -23.411  0.00  0.00    +0.124 C 
ENDROOT
BRANCH   1   8
ATOM      6  N   UNL     1      34.920 -16.825 -20.820  0.00  0.00    -0.318 N 
ATOM      7  N   UNL     1      34.955 -17.947 -22.739  0.00  0.00    -0.318 N 
ATOM      8  C   UNL     1      33.497 -14.063 -22.858  0.00  0.00    +0.077 C 
ATOM      9  C   UNL     1      34.416 -15.962 -21.758  0.00  0.00    +0.060 C 
ATOM     10  C   UNL     1      33.948 -14.650 -21.672  0.00  0.00    +0.032 C 
ATOM     11  C   UNL     1      34.448 -16.685 -22.947  0.00  0.00    +0.059 C 
ATOM     12  C   UNL     1      33.517 -14.763 -24.066  0.00  0.00    +0.018 C 
ATOM     13  C   UNL     1      33.991 -16.079 -24.129  0.00  0.00    +0.017 C 
ATOM     14  C   UNL     1      35.227 -17.997 -21.454  0.00  0.00    +0.144 C 
ATOM     15  C   UNL     1      35.795 -19.140 -20.716  0.00  0.00    +0.044 C 
ATOM     16  H   UNL     1      35.038 -16.635 -19.861  0.00  0.00    +0.148 HD
ATOM     17  H   UNL     1      35.086 -18.658 -23.407  0.00  0.00    +0.148 HD
ENDBRANCH   1   8
BRANCH   4  18
ATOM     18  N   UNL     1      31.515 -12.987 -21.007  0.00  0.00    -0.344 N 
ATOM     19  H   UNL     1      30.789 -12.611 -20.460  0.00  0.00    +0.144 HD
ATOM     20  H   UNL     1      31.823 -13.909 -20.851  0.00  0.00    +0.144 HD
ENDBRANCH   4  18
BRANCH   3  22
ATOM     21  O   UNL     1      30.164 -10.394 -20.900  0.00  0.00    -0.285 OA
ATOM     22  C   UNL     1      31.025  -9.915 -21.675  0.00  0.00    +0.213 C 
BRANCH  22  24
ATOM     23  N   UNL     1      30.625  -7.892 -23.031  0.00  0.00    -0.310 N 
ATOM     24  C   UNL     1      31.112  -8.508 -21.909  0.00  0.00    +0.088 C 
ATOM     25  C   UNL     1      30.859  -6.536 -22.967  0.00  0.00    +0.048 C 
ATOM     26  C   UNL     1      31.518  -6.288 -21.761  0.00  0.00    +0.015 C 
ATOM     27  C   UNL     1      31.671  -7.542 -21.104  0.00  0.00    +0.019 C 
ATOM     28  C   UNL     1      30.540  -5.521 -23.876  0.00  0.00    +0.015 C 
ATOM     29  C   UNL     1      31.877  -4.964 -21.445  0.00  0.00    +0.001 C 
ATOM     30  C   UNL     1      30.906  -4.215 -23.541  0.00  0.00    +0.001 C 
ATOM     31  C   UNL     1      31.565  -3.939 -22.344  0.00  0.00    +0.000 C 
ATOM     32  H   UNL     1      30.173  -8.352 -23.775  0.00  0.00    +0.152 HD
ENDBRANCH  22  24
ENDBRANCH   3  22
TORSDOF 4
ENDMDL
MODEL 6
REMARK VINA RESULT:     -12.9      2.026      8.697
REMARK  Name = 66555680
REMARK  4 active torsions:
REMARK  status: ('A' for Active; 'I' for Inactive)
REMARK    1  A    between atoms: N_1  and  C_8
REMARK    2  A    between atoms: C_3  and  C_22
REMARK    3  A    between atoms: C_4  and  N_18
REMARK    4  A    between atoms: C_22  and  C_24
REMARK                            x       y       z     vdW  Elec       q    Type
REMARK                         _______ _______ _______ _____ _____    ______ ____
ROOT
ATOM      1  N   UNL     1      34.071 -17.560 -23.081  0.00  0.00    -0.177 N 
ATOM      2  N   UNL     1      33.539 -18.162 -24.159  0.00  0.00    -0.171 NA
ATOM      3  C   UNL     1      33.455 -15.887 -24.345  0.00  0.00    +0.090 C 
ATOM      4  C   UNL     1      34.045 -16.197 -23.143  0.00  0.00    +0.122 C 
ATOM      5  C   UNL     1      33.166 -17.135 -24.927  0.00  0.00    +0.124 C 
ENDROOT
BRANCH   1   8
ATOM      6  N   UNL     1      33.754 -20.878 -19.454  0.00  0.00    -0.318 N 
ATOM      7  N   UNL     1      35.907 -20.729 -18.918  0.00  0.00    -0.318 N 
ATOM      8  C   UNL     1      34.579 -18.339 -22.040  0.00  0.00    +0.077 C 
ATOM      9  C   UNL     1      34.285 -19.955 -20.319  0.00  0.00    +0.060 C 
ATOM     10  C   UNL     1      33.722 -19.202 -21.350  0.00  0.00    +0.032 C 
ATOM     11  C   UNL     1      35.628 -19.880 -19.964  0.00  0.00    +0.059 C 
ATOM     12  C   UNL     1      35.931 -18.242 -21.706  0.00  0.00    +0.018 C 
ATOM     13  C   UNL     1      36.475 -19.007 -20.668  0.00  0.00    +0.017 C 
ATOM     14  C   UNL     1      34.762 -21.311 -18.638  0.00  0.00    +0.144 C 
ATOM     15  C   UNL     1      34.517 -22.317 -17.588  0.00  0.00    +0.044 C 
ATOM     16  H   UNL     1      32.817 -21.176 -19.428  0.00  0.00    +0.148 HD
ATOM     17  H   UNL     1      36.774 -20.870 -18.474  0.00  0.00    +0.148 HD
ENDBRANCH   1   8
BRANCH   4  18
ATOM     18  N   UNL     1      34.535 -15.424 -22.150  0.00  0.00    -0.344 N 
ATOM     19  H   UNL     1      35.498 -15.438 -21.944  0.00  0.00    +0.144 HD
ATOM     20  H   UNL     1      33.929 -14.847 -21.631  0.00  0.00    +0.144 HD
ENDBRANCH   4  18
BRANCH   3  22
ATOM     21  O   UNL     1      33.345 -14.371 -26.122  0.00  0.00    -0.285 OA
ATOM     22  C   UNL     1      33.195 -14.504 -24.885  0.00  0.00    +0.213 C 
BRANCH  22  24
ATOM     23  N   UNL     1      32.195 -13.541 -22.845  0.00  0.00    -0.310 N 
ATOM     24  C   UNL     1      32.806 -13.402 -24.062  0.00  0.00    +0.088 C 
ATOM     25  C   UNL     1      31.943 -12.304 -22.296  0.00  0.00    +0.048 C 
ATOM     26  C   UNL     1      32.414 -11.349 -23.200  0.00  0.00    +0.015 C 
ATOM     27  C   UNL     1      32.955 -12.057 -24.311  0.00  0.00    +0.019 C 
ATOM     28  C   UNL     1      31.342 -11.959 -21.081  0.00  0.00    +0.015 C 
ATOM     29  C   UNL     1      32.279  -9.985 -22.878  0.00  0.00    +0.001 C 
ATOM     30  C   UNL     1      31.220 -10.600 -20.782  0.00  0.00    +0.001 C 
ATOM     31  C   UNL     1      31.680  -9.626 -21.666  0.00  0.00    +0.000 C 
ATOM     32  H   UNL     1      31.967 -14.401 -22.424  0.00  0.00    +0.152 HD
ENDBRANCH  22  24
ENDBRANCH   3  22
TORSDOF 4
ENDMDL
MODEL 7
REMARK VINA RESULT:     -12.6      2.531      9.653
REMARK  Name = 66555680
REMARK  4 active torsions:
REMARK  status: ('A' for Active; 'I' for Inactive)
REMARK    1  A    between atoms: N_1  and  C_8
REMARK    2  A    between atoms: C_3  and  C_22
REMARK    3  A    between atoms: C_4  and  N_18
REMARK    4  A    between atoms: C_22  and  C_24
REMARK                            x       y       z     vdW  Elec       q    Type
REMARK                         _______ _______ _______ _____ _____    ______ ____
ROOT
ATOM      1  N   UNL     1      34.014 -20.461 -19.686  0.00  0.00    -0.177 N 
ATOM      2  N   UNL     1      32.867 -20.320 -20.371  0.00  0.00    -0.171 NA
ATOM      3  C   UNL     1      34.540 -19.049 -21.267  0.00  0.00    +0.090 C 
ATOM      4  C   UNL     1      35.048 -19.721 -20.182  0.00  0.00    +0.122 C 
ATOM      5  C   UNL     1      33.195 -19.457 -21.336  0.00  0.00    +0.124 C 
ENDROOT
BRANCH   1   8
ATOM      6  N   UNL     1      36.196 -22.701 -15.879  0.00  0.00    -0.318 N 
ATOM      7  N   UNL     1      34.358 -23.791 -15.264  0.00  0.00    -0.318 N 
ATOM      8  C   UNL     1      34.052 -21.311 -18.578  0.00  0.00    +0.077 C 
ATOM      9  C   UNL     1      35.229 -22.324 -16.776  0.00  0.00    +0.060 C 
ATOM     10  C   UNL     1      35.250 -21.462 -17.872  0.00  0.00    +0.032 C 
ATOM     11  C   UNL     1      34.092 -23.017 -16.371  0.00  0.00    +0.059 C 
ATOM     12  C   UNL     1      32.896 -21.994 -18.196  0.00  0.00    +0.018 C 
ATOM     13  C   UNL     1      32.897 -22.854 -17.092  0.00  0.00    +0.017 C 
ATOM     14  C   UNL     1      35.627 -23.577 -14.996  0.00  0.00    +0.144 C 
ATOM     15  C   UNL     1      36.410 -24.172 -13.898  0.00  0.00    +0.044 C 
ATOM     16  H   UNL     1      37.131 -22.394 -15.872  0.00  0.00    +0.148 HD
ATOM     17  H   UNL     1      33.734 -24.377 -14.778  0.00  0.00    +0.148 HD
ENDBRANCH   1   8
BRANCH   4  18
ATOM     18  N   UNL     1      36.276 -19.738 -19.622  0.00  0.00    -0.344 N 
ATOM     19  H   UNL     1      36.915 -19.013 -19.812  0.00  0.00    +0.144 HD
ATOM     20  H   UNL     1      36.534 -20.475 -19.022  0.00  0.00    +0.144 HD
ENDBRANCH   4  18
BRANCH   3  22
ATOM     21  O   UNL     1      36.468 -18.428 -22.437  0.00  0.00    -0.285 OA
ATOM     22  C   UNL     1      35.291 -18.096 -22.162  0.00  0.00    +0.213 C 
BRANCH  22  24
ATOM     23  N   UNL     1      34.617 -15.732 -21.949  0.00  0.00    -0.310 N 
ATOM     24  C   UNL     1      34.722 -16.889 -22.674  0.00  0.00    +0.088 C 
ATOM     25  C   UNL     1      34.027 -14.747 -22.711  0.00  0.00    +0.048 C 
ATOM     26  C   UNL     1      33.750 -15.305 -23.961  0.00  0.00    +0.015 C 
ATOM     27  C   UNL     1      34.194 -16.657 -23.923  0.00  0.00    +0.019 C 
ATOM     28  C   UNL     1      33.720 -13.420 -22.391  0.00  0.00    +0.015 C 
ATOM     29  C   UNL     1      33.139 -14.500 -24.941  0.00  0.00    +0.001 C 
ATOM     30  C   UNL     1      33.114 -12.641 -23.380  0.00  0.00    +0.001 C 
ATOM     31  C   UNL     1      32.826 -13.171 -24.637  0.00  0.00    +0.000 C 
ATOM     32  H   UNL     1      34.919 -15.620 -21.019  0.00  0.00    +0.152 HD
ENDBRANCH  22  24
ENDBRANCH   3  22
TORSDOF 4
ENDMDL
MODEL 8
REMARK VINA RESULT:     -12.6      1.515      2.540
REMARK  Name = 66555680
REMARK  4 active torsions:
REMARK  status: ('A' for Active; 'I' for Inactive)
REMARK    1  A    between atoms: N_1  and  C_8
REMARK    2  A    between atoms: C_3  and  C_22
REMARK    3  A    between atoms: C_4  and  N_18
REMARK    4  A    between atoms: C_22  and  C_24
REMARK                            x       y       z     vdW  Elec       q    Type
REMARK                         _______ _______ _______ _____ _____    ______ ____
ROOT
ATOM      1  N   UNL     1      32.984 -12.990 -21.850  0.00  0.00    -0.177 N 
ATOM      2  N   UNL     1      33.511 -13.253 -20.641  0.00  0.00    -0.171 NA
ATOM      3  C   UNL     1      33.886 -14.963 -22.109  0.00  0.00    +0.090 C 
ATOM      4  C   UNL     1      33.180 -13.983 -22.764  0.00  0.00    +0.122 C 
ATOM      5  C   UNL     1      34.061 -14.459 -20.806  0.00  0.00    +0.124 C 
ENDROOT
BRANCH   1   8
ATOM      6  N   UNL     1      32.440  -8.480 -23.753  0.00  0.00    -0.318 N 
ATOM      7  N   UNL     1      30.466  -8.140 -22.791  0.00  0.00    -0.318 N 
ATOM      8  C   UNL     1      32.311 -11.784 -22.058  0.00  0.00    +0.077 C 
ATOM      9  C   UNL     1      32.178  -9.623 -23.042  0.00  0.00    +0.060 C 
ATOM     10  C   UNL     1      32.894 -10.807 -22.871  0.00  0.00    +0.032 C 
ATOM     11  C   UNL     1      30.940  -9.386 -22.451  0.00  0.00    +0.059 C 
ATOM     12  C   UNL     1      31.071 -11.575 -21.451  0.00  0.00    +0.018 C 
ATOM     13  C   UNL     1      30.369 -10.378 -21.637  0.00  0.00    +0.017 C 
ATOM     14  C   UNL     1      31.389  -7.625 -23.571  0.00  0.00    +0.144 C 
ATOM     15  C   UNL     1      31.364  -6.296 -24.210  0.00  0.00    +0.044 C 
ATOM     16  H   UNL     1      33.242  -8.306 -24.297  0.00  0.00    +0.148 HD
ATOM     17  H   UNL     1      29.618  -7.724 -22.510  0.00  0.00    +0.148 HD
ENDBRANCH   1   8
BRANCH   4  18
ATOM     18  N   UNL     1      32.720 -13.893 -24.031  0.00  0.00    -0.344 N 
ATOM     19  H   UNL     1      33.313 -13.576 -24.750  0.00  0.00    +0.144 HD
ATOM     20  H   UNL     1      31.790 -14.145 -24.236  0.00  0.00    +0.144 HD
ENDBRANCH   4  18
BRANCH   3  22
ATOM     21  O   UNL     1      34.507 -16.286 -23.935  0.00  0.00    -0.285 OA
ATOM     22  C   UNL     1      34.351 -16.274 -22.691  0.00  0.00    +0.213 C 
BRANCH  22  24
ATOM     23  N   UNL     1      33.631 -18.322 -21.519  0.00  0.00    -0.310 N 
ATOM     24  C   UNL     1      34.603 -17.437 -21.900  0.00  0.00    +0.088 C 
ATOM     25  C   UNL     1      34.181 -19.335 -20.766  0.00  0.00    +0.048 C 
ATOM     26  C   UNL     1      35.550 -19.079 -20.668  0.00  0.00    +0.015 C 
ATOM     27  C   UNL     1      35.802 -17.877 -21.389  0.00  0.00    +0.019 C 
ATOM     28  C   UNL     1      33.577 -20.448 -20.169  0.00  0.00    +0.015 C 
ATOM     29  C   UNL     1      36.357 -19.975 -19.941  0.00  0.00    +0.001 C 
ATOM     30  C   UNL     1      34.398 -21.323 -19.453  0.00  0.00    +0.001 C 
ATOM     31  C   UNL     1      35.767 -21.092 -19.340  0.00  0.00    +0.000 C 
ATOM     32  H   UNL     1      32.677 -18.246 -21.750  0.00  0.00    +0.152 HD
ENDBRANCH  22  24
ENDBRANCH   3  22
TORSDOF 4
ENDMDL
MODEL 9
REMARK VINA RESULT:     -12.6      3.390      5.608
REMARK  Name = 66555680
REMARK  4 active torsions:
REMARK  status: ('A' for Active; 'I' for Inactive)
REMARK    1  A    between atoms: N_1  and  C_8
REMARK    2  A    between atoms: C_3  and  C_22
REMARK    3  A    between atoms: C_4  and  N_18
REMARK    4  A    between atoms: C_22  and  C_24
REMARK                            x       y       z     vdW  Elec       q    Type
REMARK                         _______ _______ _______ _____ _____    ______ ____
ROOT
ATOM      1  N   UNL     1      34.657 -19.267 -20.591  0.00  0.00    -0.177 N 
ATOM      2  N   UNL     1      35.890 -19.627 -20.196  0.00  0.00    -0.171 NA
ATOM      3  C   UNL     1      34.338 -21.208 -19.641  0.00  0.00    +0.090 C 
ATOM      4  C   UNL     1      33.691 -20.180 -20.282  0.00  0.00    +0.122 C 
ATOM      5  C   UNL     1      35.689 -20.814 -19.617  0.00  0.00    +0.124 C 
ENDROOT
BRANCH   1   8
ATOM      6  N   UNL     1      33.688 -16.439 -24.506  0.00  0.00    -0.318 N 
ATOM      7  N   UNL     1      33.901 -14.534 -23.380  0.00  0.00    -0.318 N 
ATOM      8  C   UNL     1      34.475 -18.050 -21.250  0.00  0.00    +0.077 C 
ATOM      9  C   UNL     1      33.992 -16.806 -23.220  0.00  0.00    +0.060 C 
ATOM     10  C   UNL     1      34.161 -18.050 -22.614  0.00  0.00    +0.032 C 
ATOM     11  C   UNL     1      34.120 -15.600 -22.537  0.00  0.00    +0.059 C 
ATOM     12  C   UNL     1      34.611 -16.856 -20.539  0.00  0.00    +0.018 C 
ATOM     13  C   UNL     1      34.436 -15.618 -21.168  0.00  0.00    +0.017 C 
ATOM     14  C   UNL     1      33.644 -15.073 -24.551  0.00  0.00    +0.144 C 
ATOM     15  C   UNL     1      33.339 -14.358 -25.803  0.00  0.00    +0.044 C 
ATOM     16  H   UNL     1      33.528 -17.050 -25.261  0.00  0.00    +0.148 HD
ATOM     17  H   UNL     1      33.930 -13.576 -23.155  0.00  0.00    +0.148 HD
ENDBRANCH   1   8
BRANCH   4  18
ATOM     18  N   UNL     1      32.393 -19.987 -20.602  0.00  0.00    -0.344 N 
ATOM     19  H   UNL     1      31.690 -20.506 -20.147  0.00  0.00    +0.144 HD
ATOM     20  H   UNL     1      32.148 -19.328 -21.291  0.00  0.00    +0.144 HD
ENDBRANCH   4  18
BRANCH   3  22
ATOM     21  O   UNL     1      33.812 -23.480 -19.826  0.00  0.00    -0.285 OA
ATOM     22  C   UNL     1      33.705 -22.465 -19.099  0.00  0.00    +0.213 C 
BRANCH  22  24
ATOM     23  N   UNL     1      31.672 -22.347 -17.706  0.00  0.00    -0.310 N 
ATOM     24  C   UNL     1      33.022 -22.520 -17.844  0.00  0.00    +0.088 C 
ATOM     25  C   UNL     1      31.313 -22.455 -16.381  0.00  0.00    +0.048 C 
ATOM     26  C   UNL     1      32.481 -22.705 -15.657  0.00  0.00    +0.015 C 
ATOM     27  C   UNL     1      33.552 -22.743 -16.594  0.00  0.00    +0.019 C 
ATOM     28  C   UNL     1      30.057 -22.351 -15.773  0.00  0.00    +0.015 C 
ATOM     29  C   UNL     1      32.393 -22.860 -14.260  0.00  0.00    +0.001 C 
ATOM     30  C   UNL     1      29.994 -22.509 -14.386  0.00  0.00    +0.001 C 
ATOM     31  C   UNL     1      31.144 -22.759 -13.639  0.00  0.00    +0.000 C 
ATOM     32  H   UNL     1      31.047 -22.171 -18.446  0.00  0.00    +0.152 HD
ENDBRANCH  22  24
ENDBRANCH   3  22
TORSDOF 4
ENDMDL
