MODEL 1
REMARK VINA RESULT:     -13.4      0.000      0.000
REMARK  Name = 11626560
REMARK  5 active torsions:
REMARK  status: ('A' for Active; 'I' for Inactive)
REMARK    1  A    between atoms: C_2  and  C_10
REMARK    2  A    between atoms: C_5  and  O_23
REMARK    3  A    between atoms: N_7  and  C_13
REMARK    4  A    between atoms: O_23  and  C_24
REMARK    5  A    between atoms: C_24  and  C_29
REMARK                            x       y       z     vdW  Elec       q    Type
REMARK                         _______ _______ _______ _____ _____    ______ ____
ROOT
ATOM      1  N   UNL     1      32.470 -21.514 -19.333  0.00  0.00    -0.226 NA
ATOM      2  C   UNL     1      34.380 -20.171 -19.970  0.00  0.00    +0.025 C 
ATOM      3  C   UNL     1      35.164 -20.834 -19.029  0.00  0.00    +0.041 C 
ATOM      4  C   UNL     1      33.050 -20.547 -20.079  0.00  0.00    +0.101 C 
ATOM      5  C   UNL     1      34.605 -21.833 -18.242  0.00  0.00    +0.170 C 
ATOM      6  C   UNL     1      33.265 -22.134 -18.431  0.00  0.00    +0.160 C 
ATOM      7  N   UNL     1      32.693 -23.154 -17.632  0.00  0.00    -0.340 N 
ATOM      8  H   UNL     1      31.744 -23.392 -17.740  0.00  0.00    +0.144 HD
ATOM      9  H   UNL     1      33.245 -23.626 -16.966  0.00  0.00    +0.144 HD
ENDROOT
BRANCH   2  13
ATOM     10  N   UNL     1      35.075 -17.380 -22.076  0.00  0.00    -0.212 N 
ATOM     11  N   UNL     1      36.348 -17.790 -21.970  0.00  0.00    -0.176 NA
ATOM     12  C   UNL     1      34.184 -18.149 -21.391  0.00  0.00    +0.086 C 
ATOM     13  C   UNL     1      34.928 -19.138 -20.793  0.00  0.00    +0.039 C 
ATOM     14  C   UNL     1      36.253 -18.867 -21.185  0.00  0.00    +0.119 C 
BRANCH  10  16
ATOM     15  N   UNL     1      32.935 -14.223 -24.030  0.00  0.00    +0.384 N 
ATOM     16  C   UNL     1      34.759 -16.194 -22.878  0.00  0.00    +0.092 C 
ATOM     17  C   UNL     1      34.147 -15.059 -22.042  0.00  0.00    -0.002 C 
ATOM     18  C   UNL     1      33.865 -16.515 -24.086  0.00  0.00    -0.002 C 
ATOM     19  C   UNL     1      33.814 -13.853 -22.921  0.00  0.00    -0.080 C 
ATOM     20  C   UNL     1      33.544 -15.248 -24.879  0.00  0.00    -0.080 C 
ATOM     21  H   UNL     1      32.746 -13.395 -24.595  0.00  0.00    -0.085 HD
ATOM     22  H   UNL     1      32.071 -14.602 -23.641  0.00  0.00    -0.085 HD
ENDBRANCH  10  16
ENDBRANCH   2  13
BRANCH   5  23
ATOM     23  O   UNL     1      35.370 -22.481 -17.325  0.00  0.00    -0.472 OA
BRANCH  23  24
ATOM     24  C   UNL     1      35.623 -21.806 -16.093  0.00  0.00    +0.190 C 
ATOM     25  C   UNL     1      36.874 -20.947 -16.233  0.00  0.00    +0.052 C 
BRANCH  24  29
ATOM     26 CL   UNL     1      38.377 -23.048 -15.699  0.00  0.00    -0.080 Cl
ATOM     27 CL   UNL     1      33.104 -22.412 -14.478  0.00  0.00    -0.082 Cl
ATOM     28  F   UNL     1      38.279 -24.968 -13.481  0.00  0.00    -0.203 F 
ATOM     29  C   UNL     1      35.755 -22.825 -14.985  0.00  0.00    +0.041 C 
ATOM     30  C   UNL     1      36.983 -23.429 -14.752  0.00  0.00    +0.085 C 
ATOM     31  C   UNL     1      34.645 -23.144 -14.212  0.00  0.00    +0.058 C 
ATOM     32  C   UNL     1      37.105 -24.369 -13.728  0.00  0.00    +0.150 C 
ATOM     33  C   UNL     1      34.767 -24.085 -13.190  0.00  0.00    +0.014 C 
ATOM     34  C   UNL     1      35.996 -24.698 -12.948  0.00  0.00    +0.031 C 
ENDBRANCH  24  29
ENDBRANCH  23  24
ENDBRANCH   5  23
TORSDOF 5
ENDMDL
MODEL 2
REMARK VINA RESULT:     -13.3      0.860      1.870
REMARK  Name = 11626560
REMARK  5 active torsions:
REMARK  status: ('A' for Active; 'I' for Inactive)
REMARK    1  A    between atoms: C_2  and  C_10
REMARK    2  A    between atoms: C_5  and  O_23
REMARK    3  A    between atoms: N_7  and  C_13
REMARK    4  A    between atoms: O_23  and  C_24
REMARK    5  A    between atoms: C_24  and  C_29
REMARK                            x       y       z     vdW  Elec       q    Type
REMARK                         _______ _______ _______ _____ _____    ______ ____
ROOT
ATOM      1  N   UNL     1      32.477 -21.533 -19.290  0.00  0.00    -0.226 NA
ATOM      2  C   UNL     1      34.390 -20.198 -19.937  0.00  0.00    +0.025 C 
ATOM      3  C   UNL     1      35.174 -20.858 -18.995  0.00  0.00    +0.041 C 
ATOM      4  C   UNL     1      33.058 -20.571 -20.042  0.00  0.00    +0.101 C 
ATOM      5  C   UNL     1      34.613 -21.853 -18.203  0.00  0.00    +0.170 C 
ATOM      6  C   UNL     1      33.272 -22.151 -18.387  0.00  0.00    +0.160 C 
ATOM      7  N   UNL     1      32.699 -23.166 -17.583  0.00  0.00    -0.340 N 
ATOM      8  H   UNL     1      31.749 -23.402 -17.688  0.00  0.00    +0.144 HD
ATOM      9  H   UNL     1      33.251 -23.636 -16.916  0.00  0.00    +0.144 HD
ENDROOT
BRANCH   2  13
ATOM     10  N   UNL     1      35.088 -17.418 -22.056  0.00  0.00    -0.212 N 
ATOM     11  N   UNL     1      36.360 -17.831 -21.951  0.00  0.00    -0.176 NA
ATOM     12  C   UNL     1      34.196 -18.181 -21.366  0.00  0.00    +0.086 C 
ATOM     13  C   UNL     1      34.938 -19.170 -20.766  0.00  0.00    +0.039 C 
ATOM     14  C   UNL     1      36.264 -18.904 -21.162  0.00  0.00    +0.119 C 
BRANCH  10  16
ATOM     15  N   UNL     1      32.951 -14.274 -24.034  0.00  0.00    +0.384 N 
ATOM     16  C   UNL     1      34.774 -16.234 -22.863  0.00  0.00    +0.092 C 
ATOM     17  C   UNL     1      34.148 -15.101 -22.034  0.00  0.00    -0.002 C 
ATOM     18  C   UNL     1      33.893 -16.561 -24.079  0.00  0.00    -0.002 C 
ATOM     19  C   UNL     1      33.817 -13.899 -22.917  0.00  0.00    -0.080 C 
ATOM     20  C   UNL     1      33.573 -15.296 -24.876  0.00  0.00    -0.080 C 
ATOM     21  H   UNL     1      32.763 -13.448 -24.602  0.00  0.00    -0.085 HD
ATOM     22  H   UNL     1      32.085 -14.657 -23.654  0.00  0.00    -0.085 HD
ENDBRANCH  10  16
ENDBRANCH   2  13
BRANCH   5  23
ATOM     23  O   UNL     1      35.378 -22.499 -17.284  0.00  0.00    -0.472 OA
BRANCH  23  24
ATOM     24  C   UNL     1      35.648 -21.812 -16.062  0.00  0.00    +0.190 C 
ATOM     25  C   UNL     1      36.905 -20.964 -16.224  0.00  0.00    +0.052 C 
BRANCH  24  29
ATOM     26 CL   UNL     1      33.147 -22.371 -14.414  0.00  0.00    -0.080 Cl
ATOM     27 CL   UNL     1      38.399 -23.080 -15.682  0.00  0.00    -0.082 Cl
ATOM     28  F   UNL     1      33.759 -24.361 -12.345  0.00  0.00    -0.203 F 
ATOM     29  C   UNL     1      35.784 -22.820 -14.944  0.00  0.00    +0.041 C 
ATOM     30  C   UNL     1      34.681 -23.120 -14.154  0.00  0.00    +0.085 C 
ATOM     31  C   UNL     1      37.010 -23.433 -14.719  0.00  0.00    +0.058 C 
ATOM     32  C   UNL     1      34.807 -24.051 -13.123  0.00  0.00    +0.150 C 
ATOM     33  C   UNL     1      37.135 -24.362 -13.687  0.00  0.00    +0.014 C 
ATOM     34  C   UNL     1      36.034 -24.671 -12.889  0.00  0.00    +0.031 C 
ENDBRANCH  24  29
ENDBRANCH  23  24
ENDBRANCH   5  23
TORSDOF 5
ENDMDL
MODEL 3
REMARK VINA RESULT:     -11.6      1.336      1.903
REMARK  Name = 11626560
REMARK  5 active torsions:
REMARK  status: ('A' for Active; 'I' for Inactive)
REMARK    1  A    between atoms: C_2  and  C_10
REMARK    2  A    between atoms: C_5  and  O_23
REMARK    3  A    between atoms: N_7  and  C_13
REMARK    4  A    between atoms: O_23  and  C_24
REMARK    5  A    between atoms: C_24  and  C_29
REMARK                            x       y       z     vdW  Elec       q    Type
REMARK                         _______ _______ _______ _____ _____    ______ ____
ROOT
ATOM      1  N   UNL     1      31.873 -22.221 -17.612  0.00  0.00    -0.226 NA
ATOM      2  C   UNL     1      33.757 -21.210 -18.746  0.00  0.00    +0.025 C 
ATOM      3  C   UNL     1      34.633 -21.875 -17.890  0.00  0.00    +0.041 C 
ATOM      4  C   UNL     1      32.398 -21.417 -18.563  0.00  0.00    +0.101 C 
ATOM      5  C   UNL     1      34.131 -22.710 -16.899  0.00  0.00    +0.170 C 
ATOM      6  C   UNL     1      32.756 -22.848 -16.802  0.00  0.00    +0.160 C 
ATOM      7  N   UNL     1      32.242 -23.700 -15.793  0.00  0.00    -0.340 N 
ATOM      8  H   UNL     1      31.270 -23.820 -15.697  0.00  0.00    +0.144 HD
ATOM      9  H   UNL     1      32.859 -24.173 -15.187  0.00  0.00    +0.144 HD
ENDROOT
BRANCH   2  13
ATOM     10  N   UNL     1      34.303 -18.822 -21.334  0.00  0.00    -0.212 N 
ATOM     11  N   UNL     1      35.570 -19.260 -21.286  0.00  0.00    -0.176 NA
ATOM     12  C   UNL     1      33.468 -19.435 -20.451  0.00  0.00    +0.086 C 
ATOM     13  C   UNL     1      34.244 -20.345 -19.775  0.00  0.00    +0.039 C 
ATOM     14  C   UNL     1      35.529 -20.193 -20.331  0.00  0.00    +0.119 C 
BRANCH  10  16
ATOM     15  N   UNL     1      34.474 -15.938 -24.500  0.00  0.00    +0.384 N 
ATOM     16  C   UNL     1      33.936 -17.767 -22.285  0.00  0.00    +0.092 C 
ATOM     17  C   UNL     1      33.986 -18.243 -23.746  0.00  0.00    -0.002 C 
ATOM     18  C   UNL     1      34.772 -16.490 -22.107  0.00  0.00    -0.002 C 
ATOM     19  C   UNL     1      33.619 -17.108 -24.701  0.00  0.00    -0.080 C 
ATOM     20  C   UNL     1      34.372 -15.428 -23.132  0.00  0.00    -0.080 C 
ATOM     21  H   UNL     1      34.190 -15.203 -25.148  0.00  0.00    -0.085 HD
ATOM     22  H   UNL     1      35.441 -16.215 -24.666  0.00  0.00    -0.085 HD
ENDBRANCH  10  16
ENDBRANCH   2  13
BRANCH   5  23
ATOM     23  O   UNL     1      34.985 -23.360 -16.065  0.00  0.00    -0.472 OA
BRANCH  23  24
ATOM     24  C   UNL     1      35.537 -22.609 -14.983  0.00  0.00    +0.190 C 
ATOM     25  C   UNL     1      36.517 -21.578 -15.530  0.00  0.00    +0.052 C 
BRANCH  24  29
ATOM     26 CL   UNL     1      38.459 -23.297 -15.504  0.00  0.00    -0.080 Cl
ATOM     27 CL   UNL     1      33.805 -23.638 -12.689  0.00  0.00    -0.082 Cl
ATOM     28  F   UNL     1      39.417 -25.143 -13.432  0.00  0.00    -0.203 F 
ATOM     29  C   UNL     1      36.195 -23.555 -14.006  0.00  0.00    +0.041 C 
ATOM     30  C   UNL     1      37.526 -23.910 -14.186  0.00  0.00    +0.085 C 
ATOM     31  C   UNL     1      35.461 -24.059 -12.939  0.00  0.00    +0.058 C 
ATOM     32  C   UNL     1      38.133 -24.783 -13.283  0.00  0.00    +0.150 C 
ATOM     33  C   UNL     1      36.069 -24.932 -12.038  0.00  0.00    +0.014 C 
ATOM     34  C   UNL     1      37.404 -25.294 -12.209  0.00  0.00    +0.031 C 
ENDBRANCH  24  29
ENDBRANCH  23  24
ENDBRANCH   5  23
TORSDOF 5
ENDMDL
MODEL 4
REMARK VINA RESULT:     -11.6      5.782     10.758
REMARK  Name = 11626560
REMARK  5 active torsions:
REMARK  status: ('A' for Active; 'I' for Inactive)
REMARK    1  A    between atoms: C_2  and  C_10
REMARK    2  A    between atoms: C_5  and  O_23
REMARK    3  A    between atoms: N_7  and  C_13
REMARK    4  A    between atoms: O_23  and  C_24
REMARK    5  A    between atoms: C_24  and  C_29
REMARK                            x       y       z     vdW  Elec       q    Type
REMARK                         _______ _______ _______ _____ _____    ______ ____
ROOT
ATOM      1  N   UNL     1      33.263 -16.467 -24.950  0.00  0.00    -0.226 NA
ATOM      2  C   UNL     1      34.467 -16.916 -22.899  0.00  0.00    +0.025 C 
ATOM      3  C   UNL     1      34.553 -15.549 -22.647  0.00  0.00    +0.041 C 
ATOM      4  C   UNL     1      33.816 -17.317 -24.056  0.00  0.00    +0.101 C 
ATOM      5  C   UNL     1      33.998 -14.643 -23.542  0.00  0.00    +0.170 C 
ATOM      6  C   UNL     1      33.369 -15.148 -24.669  0.00  0.00    +0.160 C 
ATOM      7  N   UNL     1      32.799 -14.226 -25.582  0.00  0.00    -0.340 N 
ATOM      8  H   UNL     1      32.345 -14.552 -26.393  0.00  0.00    +0.144 HD
ATOM      9  H   UNL     1      32.858 -13.259 -25.406  0.00  0.00    +0.144 HD
ENDROOT
BRANCH   2  13
ATOM     10  N   UNL     1      35.216 -19.566 -20.636  0.00  0.00    -0.212 N 
ATOM     11  N   UNL     1      36.457 -19.058 -20.666  0.00  0.00    -0.176 NA
ATOM     12  C   UNL     1      34.322 -18.896 -21.414  0.00  0.00    +0.086 C 
ATOM     13  C   UNL     1      35.029 -17.872 -21.997  0.00  0.00    +0.039 C 
ATOM     14  C   UNL     1      36.339 -18.022 -21.499  0.00  0.00    +0.119 C 
BRANCH  10  16
ATOM     15  N   UNL     1      34.007 -22.077 -17.380  0.00  0.00    +0.384 N 
ATOM     16  C   UNL     1      34.934 -20.744 -19.810  0.00  0.00    +0.092 C 
ATOM     17  C   UNL     1      33.441 -20.890 -19.475  0.00  0.00    -0.002 C 
ATOM     18  C   UNL     1      35.780 -20.788 -18.528  0.00  0.00    -0.002 C 
ATOM     19  C   UNL     1      33.197 -22.117 -18.597  0.00  0.00    -0.080 C 
ATOM     20  C   UNL     1      35.437 -22.019 -17.689  0.00  0.00    -0.080 C 
ATOM     21  H   UNL     1      33.822 -22.915 -16.829  0.00  0.00    -0.085 HD
ATOM     22  H   UNL     1      33.759 -21.237 -16.857  0.00  0.00    -0.085 HD
ENDBRANCH  10  16
ENDBRANCH   2  13
BRANCH   5  23
ATOM     23  O   UNL     1      34.081 -13.310 -23.296  0.00  0.00    -0.472 OA
BRANCH  23  24
ATOM     24  C   UNL     1      33.828 -12.876 -21.959  0.00  0.00    +0.190 C 
ATOM     25  C   UNL     1      33.522 -14.086 -21.083  0.00  0.00    +0.052 C 
BRANCH  24  29
ATOM     26 CL   UNL     1      34.039 -10.580 -23.952  0.00  0.00    -0.080 Cl
ATOM     27 CL   UNL     1      31.559 -13.364 -19.976  0.00  0.00    -0.082 Cl
ATOM     28  F   UNL     1      31.686  -8.844 -23.699  0.00  0.00    -0.203 F 
ATOM     29  C   UNL     1      32.693 -11.878 -21.966  0.00  0.00    +0.041 C 
ATOM     30  C   UNL     1      32.728 -10.807 -22.850  0.00  0.00    +0.085 C 
ATOM     31  C   UNL     1      31.630 -12.044 -21.088  0.00  0.00    +0.058 C 
ATOM     32  C   UNL     1      31.679  -9.887 -22.856  0.00  0.00    +0.150 C 
ATOM     33  C   UNL     1      30.583 -11.123 -21.094  0.00  0.00    +0.014 C 
ATOM     34  C   UNL     1      30.608 -10.044 -21.977  0.00  0.00    +0.031 C 
ENDBRANCH  24  29
ENDBRANCH  23  24
ENDBRANCH   5  23
TORSDOF 5
ENDMDL
MODEL 5
REMARK VINA RESULT:     -11.4      8.923     13.907
REMARK  Name = 11626560
REMARK  5 active torsions:
REMARK  status: ('A' for Active; 'I' for Inactive)
REMARK    1  A    between atoms: C_2  and  C_10
REMARK    2  A    between atoms: C_5  and  O_23
REMARK    3  A    between atoms: N_7  and  C_13
REMARK    4  A    between atoms: O_23  and  C_24
REMARK    5  A    between atoms: C_24  and  C_29
REMARK                            x       y       z     vdW  Elec       q    Type
REMARK                         _______ _______ _______ _____ _____    ______ ____
ROOT
ATOM      1  N   UNL     1      31.416 -11.207 -19.879  0.00  0.00    -0.226 NA
ATOM      2  C   UNL     1      32.171 -11.854 -22.086  0.00  0.00    +0.025 C 
ATOM      3  C   UNL     1      32.004 -10.545 -22.530  0.00  0.00    +0.041 C 
ATOM      4  C   UNL     1      31.864 -12.128 -20.761  0.00  0.00    +0.101 C 
ATOM      5  C   UNL     1      31.544  -9.569 -21.654  0.00  0.00    +0.170 C 
ATOM      6  C   UNL     1      31.267  -9.948 -20.350  0.00  0.00    +0.160 C 
ATOM      7  N   UNL     1      30.801  -8.954 -19.454  0.00  0.00    -0.340 N 
ATOM      8  H   UNL     1      30.594  -9.190 -18.521  0.00  0.00    +0.144 HD
ATOM      9  H   UNL     1      30.682  -8.027 -19.765  0.00  0.00    +0.144 HD
ENDROOT
BRANCH   2  13
ATOM     10  N   UNL     1      33.506 -14.750 -23.679  0.00  0.00    -0.212 N 
ATOM     11  N   UNL     1      33.196 -14.103 -24.812  0.00  0.00    -0.176 NA
ATOM     12  C   UNL     1      33.195 -14.064 -22.544  0.00  0.00    +0.086 C 
ATOM     13  C   UNL     1      32.642 -12.879 -22.964  0.00  0.00    +0.039 C 
ATOM     14  C   UNL     1      32.668 -12.958 -24.370  0.00  0.00    +0.119 C 
BRANCH  10  16
ATOM     15  N   UNL     1      34.328 -18.907 -23.043  0.00  0.00    +0.384 N 
ATOM     16  C   UNL     1      34.122 -16.079 -23.747  0.00  0.00    +0.092 C 
ATOM     17  C   UNL     1      33.178 -17.140 -24.337  0.00  0.00    -0.002 C 
ATOM     18  C   UNL     1      34.679 -16.546 -22.393  0.00  0.00    -0.002 C 
ATOM     19  C   UNL     1      33.852 -18.511 -24.369  0.00  0.00    -0.080 C 
ATOM     20  C   UNL     1      35.289 -17.943 -22.507  0.00  0.00    -0.080 C 
ATOM     21  H   UNL     1      34.778 -19.820 -23.111  0.00  0.00    -0.085 HD
ATOM     22  H   UNL     1      33.527 -18.944 -22.413  0.00  0.00    -0.085 HD
ENDBRANCH  10  16
ENDBRANCH   2  13
BRANCH   5  23
ATOM     23  O   UNL     1      31.382  -8.292 -22.087  0.00  0.00    -0.472 OA
BRANCH  23  24
ATOM     24  C   UNL     1      32.551  -7.475 -22.161  0.00  0.00    +0.190 C 
ATOM     25  C   UNL     1      32.638  -6.601 -20.915  0.00  0.00    +0.052 C 
BRANCH  24  29
ATOM     26 CL   UNL     1      34.902  -7.780 -24.074  0.00  0.00    -0.080 Cl
ATOM     27 CL   UNL     1      30.113  -5.678 -22.544  0.00  0.00    -0.082 Cl
ATOM     28  F   UNL     1      34.492  -6.056 -26.414  0.00  0.00    -0.203 F 
ATOM     29  C   UNL     1      32.504  -6.653 -23.428  0.00  0.00    +0.041 C 
ATOM     30  C   UNL     1      33.546  -6.745 -24.343  0.00  0.00    +0.085 C 
ATOM     31  C   UNL     1      31.421  -5.816 -23.662  0.00  0.00    +0.058 C 
ATOM     32  C   UNL     1      33.502  -5.987 -25.513  0.00  0.00    +0.150 C 
ATOM     33  C   UNL     1      31.378  -5.057 -24.832  0.00  0.00    +0.014 C 
ATOM     34  C   UNL     1      32.419  -5.142 -25.757  0.00  0.00    +0.031 C 
ENDBRANCH  24  29
ENDBRANCH  23  24
ENDBRANCH   5  23
TORSDOF 5
ENDMDL
MODEL 6
REMARK VINA RESULT:     -11.3      4.909     10.260
REMARK  Name = 11626560
REMARK  5 active torsions:
REMARK  status: ('A' for Active; 'I' for Inactive)
REMARK    1  A    between atoms: C_2  and  C_10
REMARK    2  A    between atoms: C_5  and  O_23
REMARK    3  A    between atoms: N_7  and  C_13
REMARK    4  A    between atoms: O_23  and  C_24
REMARK    5  A    between atoms: C_24  and  C_29
REMARK                            x       y       z     vdW  Elec       q    Type
REMARK                         _______ _______ _______ _____ _____    ______ ____
ROOT
ATOM      1  N   UNL     1      36.720 -19.635 -20.547  0.00  0.00    -0.226 NA
ATOM      2  C   UNL     1      34.440 -20.101 -19.881  0.00  0.00    +0.025 C 
ATOM      3  C   UNL     1      33.982 -19.105 -20.739  0.00  0.00    +0.041 C 
ATOM      4  C   UNL     1      35.808 -20.323 -19.824  0.00  0.00    +0.101 C 
ATOM      5  C   UNL     1      34.889 -18.375 -21.499  0.00  0.00    +0.170 C 
ATOM      6  C   UNL     1      36.235 -18.676 -21.367  0.00  0.00    +0.160 C 
ATOM      7  N   UNL     1      37.161 -17.934 -22.143  0.00  0.00    -0.340 N 
ATOM      8  H   UNL     1      38.125 -18.123 -22.073  0.00  0.00    +0.144 HD
ATOM      9  H   UNL     1      36.841 -17.229 -22.751  0.00  0.00    +0.144 HD
ENDROOT
BRANCH   2  13
ATOM     10  N   UNL     1      32.758 -22.222 -17.563  0.00  0.00    -0.212 N 
ATOM     11  N   UNL     1      31.652 -21.822 -18.207  0.00  0.00    -0.176 NA
ATOM     12  C   UNL     1      33.910 -21.682 -18.047  0.00  0.00    +0.086 C 
ATOM     13  C   UNL     1      33.531 -20.868 -19.087  0.00  0.00    +0.039 C 
ATOM     14  C   UNL     1      32.129 -20.994 -19.140  0.00  0.00    +0.119 C 
BRANCH  10  16
ATOM     15  N   UNL     1      32.422 -23.839 -13.608  0.00  0.00    +0.384 N 
ATOM     16  C   UNL     1      32.645 -23.161 -16.442  0.00  0.00    +0.092 C 
ATOM     17  C   UNL     1      31.330 -22.998 -15.662  0.00  0.00    -0.002 C 
ATOM     18  C   UNL     1      33.848 -23.095 -15.488  0.00  0.00    -0.002 C 
ATOM     19  C   UNL     1      31.265 -23.979 -14.492  0.00  0.00    -0.080 C 
ATOM     20  C   UNL     1      33.677 -24.072 -14.324  0.00  0.00    -0.080 C 
ATOM     21  H   UNL     1      32.344 -24.516 -12.849  0.00  0.00    -0.085 HD
ATOM     22  H   UNL     1      32.434 -22.886 -13.244  0.00  0.00    -0.085 HD
ENDBRANCH  10  16
ENDBRANCH   2  13
BRANCH   5  23
ATOM     23  O   UNL     1      34.443 -17.403 -22.337  0.00  0.00    -0.472 OA
BRANCH  23  24
ATOM     24  C   UNL     1      34.651 -16.049 -21.935  0.00  0.00    +0.190 C 
ATOM     25  C   UNL     1      34.095 -15.845 -20.531  0.00  0.00    +0.052 C 
BRANCH  24  29
ATOM     26 CL   UNL     1      34.114 -13.192 -21.021  0.00  0.00    -0.080 Cl
ATOM     27 CL   UNL     1      34.016 -17.234 -24.675  0.00  0.00    -0.082 Cl
ATOM     28  F   UNL     1      32.861 -11.683 -23.205  0.00  0.00    -0.203 F 
ATOM     29  C   UNL     1      34.005 -15.125 -22.941  0.00  0.00    +0.041 C 
ATOM     30  C   UNL     1      33.732 -13.810 -22.588  0.00  0.00    +0.085 C 
ATOM     31  C   UNL     1      33.691 -15.604 -24.207  0.00  0.00    +0.058 C 
ATOM     32  C   UNL     1      33.135 -12.958 -23.518  0.00  0.00    +0.150 C 
ATOM     33  C   UNL     1      33.094 -14.752 -25.136  0.00  0.00    +0.014 C 
ATOM     34  C   UNL     1      32.816 -13.429 -24.791  0.00  0.00    +0.031 C 
ENDBRANCH  24  29
ENDBRANCH  23  24
ENDBRANCH   5  23
TORSDOF 5
ENDMDL
MODEL 7
REMARK VINA RESULT:     -11.0      2.295      3.998
REMARK  Name = 11626560
REMARK  5 active torsions:
REMARK  status: ('A' for Active; 'I' for Inactive)
REMARK    1  A    between atoms: C_2  and  C_10
REMARK    2  A    between atoms: C_5  and  O_23
REMARK    3  A    between atoms: N_7  and  C_13
REMARK    4  A    between atoms: O_23  and  C_24
REMARK    5  A    between atoms: C_24  and  C_29
REMARK                            x       y       z     vdW  Elec       q    Type
REMARK                         _______ _______ _______ _____ _____    ______ ____
ROOT
ATOM      1  N   UNL     1      31.310 -23.268 -15.305  0.00  0.00    -0.226 NA
ATOM      2  C   UNL     1      32.692 -22.388 -17.087  0.00  0.00    +0.025 C 
ATOM      3  C   UNL     1      33.797 -23.052 -16.562  0.00  0.00    +0.041 C 
ATOM      4  C   UNL     1      31.482 -22.528 -16.424  0.00  0.00    +0.101 C 
ATOM      5  C   UNL     1      33.662 -23.821 -15.413  0.00  0.00    +0.170 C 
ATOM      6  C   UNL     1      32.408 -23.897 -14.827  0.00  0.00    +0.160 C 
ATOM      7  N   UNL     1      32.267 -24.683 -13.656  0.00  0.00    -0.340 N 
ATOM      8  H   UNL     1      31.390 -24.757 -13.215  0.00  0.00    +0.144 HD
ATOM      9  H   UNL     1      33.047 -25.154 -13.283  0.00  0.00    +0.144 HD
ENDROOT
BRANCH   2  13
ATOM     10  N   UNL     1      33.657 -20.503 -19.954  0.00  0.00    -0.212 N 
ATOM     11  N   UNL     1      32.338 -20.302 -20.098  0.00  0.00    -0.176 NA
ATOM     12  C   UNL     1      33.989 -21.266 -18.876  0.00  0.00    +0.086 C 
ATOM     13  C   UNL     1      32.801 -21.588 -18.267  0.00  0.00    +0.039 C 
ATOM     14  C   UNL     1      31.818 -20.968 -19.063  0.00  0.00    +0.119 C 
BRANCH  10  16
ATOM     15  N   UNL     1      35.968 -17.681 -22.203  0.00  0.00    +0.384 N 
ATOM     16  C   UNL     1      34.589 -19.916 -20.921  0.00  0.00    +0.092 C 
ATOM     17  C   UNL     1      35.758 -19.180 -20.247  0.00  0.00    -0.002 C 
ATOM     18  C   UNL     1      33.892 -18.999 -21.938  0.00  0.00    -0.002 C 
ATOM     19  C   UNL     1      36.691 -18.566 -21.290  0.00  0.00    -0.080 C 
ATOM     20  C   UNL     1      34.903 -18.392 -22.911  0.00  0.00    -0.080 C 
ATOM     21  H   UNL     1      36.623 -17.301 -22.887  0.00  0.00    -0.085 HD
ATOM     22  H   UNL     1      35.543 -16.933 -21.654  0.00  0.00    -0.085 HD
ENDBRANCH  10  16
ENDBRANCH   2  13
BRANCH   5  23
ATOM     23  O   UNL     1      34.740 -24.470 -14.901  0.00  0.00    -0.472 OA
BRANCH  23  24
ATOM     24  C   UNL     1      35.522 -23.772 -13.931  0.00  0.00    +0.190 C 
ATOM     25  C   UNL     1      35.187 -22.286 -13.985  0.00  0.00    +0.052 C 
BRANCH  24  29
ATOM     26 CL   UNL     1      36.863 -25.884 -12.191  0.00  0.00    -0.080 Cl
ATOM     27 CL   UNL     1      36.837 -22.132 -16.144  0.00  0.00    -0.082 Cl
ATOM     28  F   UNL     1      39.685 -26.137 -12.957  0.00  0.00    -0.203 F 
ATOM     29  C   UNL     1      36.987 -24.034 -14.191  0.00  0.00    +0.041 C 
ATOM     30  C   UNL     1      37.659 -24.984 -13.432  0.00  0.00    +0.085 C 
ATOM     31  C   UNL     1      37.644 -23.320 -15.185  0.00  0.00    +0.058 C 
ATOM     32  C   UNL     1      39.012 -25.225 -13.673  0.00  0.00    +0.150 C 
ATOM     33  C   UNL     1      38.997 -23.562 -15.425  0.00  0.00    +0.014 C 
ATOM     34  C   UNL     1      39.680 -24.513 -14.669  0.00  0.00    +0.031 C 
ENDBRANCH  24  29
ENDBRANCH  23  24
ENDBRANCH   5  23
TORSDOF 5
ENDMDL
MODEL 8
REMARK VINA RESULT:     -10.9      3.740      5.680
REMARK  Name = 11626560
REMARK  5 active torsions:
REMARK  status: ('A' for Active; 'I' for Inactive)
REMARK    1  A    between atoms: C_2  and  C_10
REMARK    2  A    between atoms: C_5  and  O_23
REMARK    3  A    between atoms: N_7  and  C_13
REMARK    4  A    between atoms: O_23  and  C_24
REMARK    5  A    between atoms: C_24  and  C_29
REMARK                            x       y       z     vdW  Elec       q    Type
REMARK                         _______ _______ _______ _____ _____    ______ ____
ROOT
ATOM      1  N   UNL     1      36.657 -23.761 -14.393  0.00  0.00    -0.226 NA
ATOM      2  C   UNL     1      35.812 -22.261 -16.095  0.00  0.00    +0.025 C 
ATOM      3  C   UNL     1      34.507 -22.626 -15.773  0.00  0.00    +0.041 C 
ATOM      4  C   UNL     1      36.841 -22.854 -15.380  0.00  0.00    +0.101 C 
ATOM      5  C   UNL     1      34.277 -23.555 -14.766  0.00  0.00    +0.170 C 
ATOM      6  C   UNL     1      35.376 -24.089 -14.111  0.00  0.00    +0.160 C 
ATOM      7  N   UNL     1      35.143 -25.034 -13.082  0.00  0.00    -0.340 N 
ATOM      8  H   UNL     1      35.902 -25.432 -12.598  0.00  0.00    +0.144 HD
ATOM      9  H   UNL     1      34.221 -25.294 -12.851  0.00  0.00    +0.144 HD
ENDROOT
BRANCH   2  13
ATOM     10  N   UNL     1      36.003 -20.255 -19.035  0.00  0.00    -0.212 N 
ATOM     11  N   UNL     1      36.909 -19.555 -18.334  0.00  0.00    -0.176 NA
ATOM     12  C   UNL     1      35.475 -21.313 -18.360  0.00  0.00    +0.086 C 
ATOM     13  C   UNL     1      36.080 -21.308 -17.127  0.00  0.00    +0.039 C 
ATOM     14  C   UNL     1      36.954 -20.204 -17.168  0.00  0.00    +0.119 C 
BRANCH  10  16
ATOM     15  N   UNL     1      34.595 -17.987 -22.387  0.00  0.00    +0.384 N 
ATOM     16  C   UNL     1      35.668 -19.843 -20.402  0.00  0.00    +0.092 C 
ATOM     17  C   UNL     1      36.436 -18.589 -20.849  0.00  0.00    -0.002 C 
ATOM     18  C   UNL     1      34.157 -19.652 -20.611  0.00  0.00    -0.002 C 
ATOM     19  C   UNL     1      36.040 -18.184 -22.268  0.00  0.00    -0.080 C 
ATOM     20  C   UNL     1      33.857 -19.202 -22.041  0.00  0.00    -0.080 C 
ATOM     21  H   UNL     1      34.373 -17.728 -23.349  0.00  0.00    -0.085 HD
ATOM     22  H   UNL     1      34.318 -17.249 -21.740  0.00  0.00    -0.085 HD
ENDBRANCH  10  16
ENDBRANCH   2  13
BRANCH   5  23
ATOM     23  O   UNL     1      33.004 -23.911 -14.451  0.00  0.00    -0.472 OA
BRANCH  23  24
ATOM     24  C   UNL     1      32.042 -22.862 -14.339  0.00  0.00    +0.190 C 
ATOM     25  C   UNL     1      31.950 -22.410 -12.886  0.00  0.00    +0.052 C 
BRANCH  24  29
ATOM     26 CL   UNL     1      30.431 -24.693 -12.512  0.00  0.00    -0.080 Cl
ATOM     27 CL   UNL     1      31.242 -21.911 -17.127  0.00  0.00    -0.082 Cl
ATOM     28  F   UNL     1      27.923 -25.443 -13.839  0.00  0.00    -0.203 F 
ATOM     29  C   UNL     1      30.712 -23.348 -14.868  0.00  0.00    +0.041 C 
ATOM     30  C   UNL     1      29.928 -24.186 -14.085  0.00  0.00    +0.085 C 
ATOM     31  C   UNL     1      30.290 -22.950 -16.130  0.00  0.00    +0.058 C 
ATOM     32  C   UNL     1      28.700 -24.634 -14.573  0.00  0.00    +0.150 C 
ATOM     33  C   UNL     1      29.063 -23.399 -16.617  0.00  0.00    +0.014 C 
ATOM     34  C   UNL     1      28.268 -24.241 -15.840  0.00  0.00    +0.031 C 
ENDBRANCH  24  29
ENDBRANCH  23  24
ENDBRANCH   5  23
TORSDOF 5
ENDMDL
MODEL 9
REMARK VINA RESULT:     -10.7      3.693      4.942
REMARK  Name = 11626560
REMARK  5 active torsions:
REMARK  status: ('A' for Active; 'I' for Inactive)
REMARK    1  A    between atoms: C_2  and  C_10
REMARK    2  A    between atoms: C_5  and  O_23
REMARK    3  A    between atoms: N_7  and  C_13
REMARK    4  A    between atoms: O_23  and  C_24
REMARK    5  A    between atoms: C_24  and  C_29
REMARK                            x       y       z     vdW  Elec       q    Type
REMARK                         _______ _______ _______ _____ _____    ______ ____
ROOT
ATOM      1  N   UNL     1      36.199 -22.310 -16.531  0.00  0.00    -0.226 NA
ATOM      2  C   UNL     1      34.393 -21.606 -17.980  0.00  0.00    +0.025 C 
ATOM      3  C   UNL     1      33.478 -22.270 -17.167  0.00  0.00    +0.041 C 
ATOM      4  C   UNL     1      35.731 -21.658 -17.619  0.00  0.00    +0.101 C 
ATOM      5  C   UNL     1      33.920 -22.952 -16.040  0.00  0.00    +0.170 C 
ATOM      6  C   UNL     1      35.279 -22.942 -15.768  0.00  0.00    +0.160 C 
ATOM      7  N   UNL     1      35.733 -23.634 -14.618  0.00  0.00    -0.340 N 
ATOM      8  H   UNL     1      36.692 -23.647 -14.396  0.00  0.00    +0.144 HD
ATOM      9  H   UNL     1      35.088 -24.104 -14.040  0.00  0.00    +0.144 HD
ENDROOT
BRANCH   2  13
ATOM     10  N   UNL     1      34.006 -19.631 -20.922  0.00  0.00    -0.212 N 
ATOM     11  N   UNL     1      32.726 -20.027 -20.855  0.00  0.00    -0.176 NA
ATOM     12  C   UNL     1      34.793 -20.123 -19.925  0.00  0.00    +0.086 C 
ATOM     13  C   UNL     1      33.967 -20.897 -19.146  0.00  0.00    +0.039 C 
ATOM     14  C   UNL     1      32.706 -20.800 -19.767  0.00  0.00    +0.119 C 
BRANCH  10  16
ATOM     15  N   UNL     1      34.115 -16.473 -23.817  0.00  0.00    +0.384 N 
ATOM     16  C   UNL     1      34.437 -18.748 -22.010  0.00  0.00    +0.092 C 
ATOM     17  C   UNL     1      34.651 -17.298 -21.547  0.00  0.00    -0.002 C 
ATOM     18  C   UNL     1      33.491 -18.792 -23.221  0.00  0.00    -0.002 C 
ATOM     19  C   UNL     1      35.076 -16.409 -22.716  0.00  0.00    -0.080 C 
ATOM     20  C   UNL     1      33.965 -17.840 -24.319  0.00  0.00    -0.080 C 
ATOM     21  H   UNL     1      34.441 -15.876 -24.577  0.00  0.00    -0.085 HD
ATOM     22  H   UNL     1      33.209 -16.159 -23.471  0.00  0.00    -0.085 HD
ENDBRANCH  10  16
ENDBRANCH   2  13
BRANCH   5  23
ATOM     23  O   UNL     1      33.028 -23.599 -15.245  0.00  0.00    -0.472 OA
BRANCH  23  24
ATOM     24  C   UNL     1      32.010 -22.809 -14.630  0.00  0.00    +0.190 C 
ATOM     25  C   UNL     1      32.335 -22.626 -13.151  0.00  0.00    +0.052 C 
BRANCH  24  29
ATOM     26 CL   UNL     1      30.330 -21.796 -16.961  0.00  0.00    -0.080 Cl
ATOM     27 CL   UNL     1      31.260 -25.028 -12.673  0.00  0.00    -0.082 Cl
ATOM     28  F   UNL     1      27.808 -23.295 -17.077  0.00  0.00    -0.203 F 
ATOM     29  C   UNL     1      30.669 -23.473 -14.838  0.00  0.00    +0.041 C 
ATOM     30  C   UNL     1      29.854 -23.059 -15.883  0.00  0.00    +0.085 C 
ATOM     31  C   UNL     1      30.269 -24.491 -13.982  0.00  0.00    +0.058 C 
ATOM     32  C   UNL     1      28.616 -23.674 -16.076  0.00  0.00    +0.150 C 
ATOM     33  C   UNL     1      29.032 -25.105 -14.174  0.00  0.00    +0.014 C 
ATOM     34  C   UNL     1      28.205 -24.696 -15.220  0.00  0.00    +0.031 C 
ENDBRANCH  24  29
ENDBRANCH  23  24
ENDBRANCH   5  23
TORSDOF 5
ENDMDL
