MODEL 1
REMARK VINA RESULT:     -11.6      0.000      0.000
REMARK  Name = 46937117
REMARK  6 active torsions:
REMARK  status: ('A' for Active; 'I' for Inactive)
REMARK    1  A    between atoms: N_1  and  C_21
REMARK    2  A    between atoms: C_4  and  C_9
REMARK    3  A    between atoms: C_9  and  C_12
REMARK    4  A    between atoms: C_9  and  C_20
REMARK    5  A    between atoms: C_21  and  C_22
REMARK    6  A    between atoms: C_22  and  C_24
REMARK                            x       y       z     vdW  Elec       q    Type
REMARK                         _______ _______ _______ _____ _____    ______ ____
ROOT
ATOM      1  N   UNL     1      35.178 -23.523 -13.976  0.00  0.00    -0.268 N 
ATOM      2  N   UNL     1      34.663 -22.782 -16.142  0.00  0.00    -0.341 NA
ATOM      3  N   UNL     1      36.715 -22.122 -15.064  0.00  0.00    -0.170 NA
ATOM      4  C   UNL     1      35.036 -22.054 -17.216  0.00  0.00    +0.144 C 
ATOM      5  C   UNL     1      35.536 -22.772 -15.117  0.00  0.00    +0.144 C 
ATOM      6  C   UNL     1      36.217 -21.343 -17.287  0.00  0.00    +0.052 C 
ATOM      7  C   UNL     1      37.025 -21.415 -16.171  0.00  0.00    +0.114 C 
ATOM      8  H   UNL     1      35.795 -23.536 -13.210  0.00  0.00    +0.159 HD
ENDROOT
BRANCH   4   9
ATOM      9  C   UNL     1      34.069 -22.038 -18.412  0.00  0.00    +0.202 C 
BRANCH   9  12
ATOM     10  S   UNL     1      33.101 -20.298 -20.313  0.00  0.00    -0.056 S 
ATOM     11  N   UNL     1      35.574 -20.480 -19.601  0.00  0.00    -0.402 NA
ATOM     12  C   UNL     1      34.373 -20.967 -19.386  0.00  0.00    +0.159 C 
ATOM     13  C   UNL     1      34.230 -19.250 -21.087  0.00  0.00    +0.057 C 
ATOM     14  C   UNL     1      35.507 -19.493 -20.574  0.00  0.00    +0.120 C 
ATOM     15  C   UNL     1      34.001 -18.282 -22.079  0.00  0.00    +0.008 C 
ATOM     16  C   UNL     1      36.592 -18.740 -21.072  0.00  0.00    +0.085 C 
ATOM     17  C   UNL     1      35.092 -17.550 -22.554  0.00  0.00    -0.004 C 
ATOM     18  C   UNL     1      36.372 -17.775 -22.058  0.00  0.00    -0.019 C 
ENDBRANCH   9  12
BRANCH   9  20
ATOM     19  N   UNL     1      31.543 -22.076 -17.588  0.00  0.00    -0.195 NA
ATOM     20  C   UNL     1      32.644 -22.074 -17.954  0.00  0.00    +0.087 C 
ENDBRANCH   9  20
ENDBRANCH   4   9
BRANCH   1  21
ATOM     21  C   UNL     1      33.960 -24.264 -13.888  0.00  0.00    +0.103 C 
BRANCH  21  22
ATOM     22  C   UNL     1      32.917 -23.504 -13.070  0.00  0.00    +0.050 C 
BRANCH  22  24
ATOM     23  N   UNL     1      29.616 -24.936 -14.259  0.00  0.00    -0.243 NA
ATOM     24  C   UNL     1      31.529 -23.585 -13.659  0.00  0.00    -0.001 C 
ATOM     25  C   UNL     1      30.884 -22.448 -14.133  0.00  0.00    -0.001 C 
ATOM     26  C   UNL     1      30.858 -24.794 -13.743  0.00  0.00    +0.095 C 
ATOM     27  C   UNL     1      29.607 -22.554 -14.671  0.00  0.00    +0.020 C 
ATOM     28  C   UNL     1      29.021 -23.810 -14.710  0.00  0.00    +0.099 C 
ENDBRANCH  22  24
ENDBRANCH  21  22
ENDBRANCH   1  21
TORSDOF 6
ENDMDL
MODEL 2
REMARK VINA RESULT:     -11.4      2.571      5.491
REMARK  Name = 46937117
REMARK  6 active torsions:
REMARK  status: ('A' for Active; 'I' for Inactive)
REMARK    1  A    between atoms: N_1  and  C_21
REMARK    2  A    between atoms: C_4  and  C_9
REMARK    3  A    between atoms: C_9  and  C_12
REMARK    4  A    between atoms: C_9  and  C_20
REMARK    5  A    between atoms: C_21  and  C_22
REMARK    6  A    between atoms: C_22  and  C_24
REMARK                            x       y       z     vdW  Elec       q    Type
REMARK                         _______ _______ _______ _____ _____    ______ ____
ROOT
ATOM      1  N   UNL     1      34.318 -24.310 -13.382  0.00  0.00    -0.268 N 
ATOM      2  N   UNL     1      32.659 -23.614 -14.887  0.00  0.00    -0.341 NA
ATOM      3  N   UNL     1      32.406 -23.261 -12.516  0.00  0.00    -0.170 NA
ATOM      4  C   UNL     1      31.458 -23.024 -15.065  0.00  0.00    +0.144 C 
ATOM      5  C   UNL     1      33.066 -23.698 -13.606  0.00  0.00    +0.144 C 
ATOM      6  C   UNL     1      30.684 -22.534 -14.032  0.00  0.00    +0.052 C 
ATOM      7  C   UNL     1      31.214 -22.681 -12.767  0.00  0.00    +0.114 C 
ATOM      8  H   UNL     1      34.645 -24.388 -12.457  0.00  0.00    +0.159 HD
ENDROOT
BRANCH   4   9
ATOM      9  C   UNL     1      30.953 -22.904 -16.513  0.00  0.00    +0.202 C 
BRANCH   9  12
ATOM     10  S   UNL     1      33.597 -22.618 -17.227  0.00  0.00    -0.056 S 
ATOM     11  N   UNL     1      31.620 -21.423 -18.375  0.00  0.00    -0.402 NA
ATOM     12  C   UNL     1      31.934 -22.264 -17.416  0.00  0.00    +0.159 C 
ATOM     13  C   UNL     1      33.961 -21.561 -18.539  0.00  0.00    +0.057 C 
ATOM     14  C   UNL     1      32.773 -21.012 -19.028  0.00  0.00    +0.120 C 
ATOM     15  C   UNL     1      35.210 -21.241 -19.095  0.00  0.00    +0.008 C 
ATOM     16  C   UNL     1      32.839 -20.111 -20.113  0.00  0.00    +0.085 C 
ATOM     17  C   UNL     1      35.248 -20.347 -20.169  0.00  0.00    -0.004 C 
ATOM     18  C   UNL     1      34.078 -19.788 -20.672  0.00  0.00    -0.019 C 
ENDBRANCH   9  12
BRANCH   9  20
ATOM     19  N   UNL     1      28.510 -21.861 -16.598  0.00  0.00    -0.195 NA
ATOM     20  C   UNL     1      29.583 -22.302 -16.559  0.00  0.00    +0.087 C 
ENDBRANCH   9  20
ENDBRANCH   4   9
BRANCH   1  21
ATOM     21  C   UNL     1      35.131 -24.822 -14.440  0.00  0.00    +0.103 C 
BRANCH  21  22
ATOM     22  C   UNL     1      36.295 -23.880 -14.740  0.00  0.00    +0.050 C 
BRANCH  22  24
ATOM     23  N   UNL     1      38.923 -26.561 -14.229  0.00  0.00    -0.243 NA
ATOM     24  C   UNL     1      37.643 -24.546 -14.613  0.00  0.00    -0.001 C 
ATOM     25  C   UNL     1      38.820 -23.817 -14.752  0.00  0.00    -0.001 C 
ATOM     26  C   UNL     1      37.749 -25.903 -14.355  0.00  0.00    +0.095 C 
ATOM     27  C   UNL     1      40.047 -24.458 -14.629  0.00  0.00    +0.020 C 
ATOM     28  C   UNL     1      40.044 -25.820 -14.370  0.00  0.00    +0.099 C 
ENDBRANCH  22  24
ENDBRANCH  21  22
ENDBRANCH   1  21
TORSDOF 6
ENDMDL
MODEL 3
REMARK VINA RESULT:     -11.4      2.487      7.051
REMARK  Name = 46937117
REMARK  6 active torsions:
REMARK  status: ('A' for Active; 'I' for Inactive)
REMARK    1  A    between atoms: N_1  and  C_21
REMARK    2  A    between atoms: C_4  and  C_9
REMARK    3  A    between atoms: C_9  and  C_12
REMARK    4  A    between atoms: C_9  and  C_20
REMARK    5  A    between atoms: C_21  and  C_22
REMARK    6  A    between atoms: C_22  and  C_24
REMARK                            x       y       z     vdW  Elec       q    Type
REMARK                         _______ _______ _______ _____ _____    ______ ____
ROOT
ATOM      1  N   UNL     1      37.620 -22.432 -16.116  0.00  0.00    -0.268 N 
ATOM      2  N   UNL     1      36.614 -23.467 -14.266  0.00  0.00    -0.341 NA
ATOM      3  N   UNL     1      38.956 -23.781 -14.738  0.00  0.00    -0.170 NA
ATOM      4  C   UNL     1      36.761 -24.272 -13.192  0.00  0.00    +0.144 C 
ATOM      5  C   UNL     1      37.736 -23.268 -14.984  0.00  0.00    +0.144 C 
ATOM      6  C   UNL     1      37.956 -24.859 -12.832  0.00  0.00    +0.052 C 
ATOM      7  C   UNL     1      39.031 -24.575 -13.649  0.00  0.00    +0.114 C 
ATOM      8  H   UNL     1      38.421 -22.266 -16.662  0.00  0.00    +0.159 HD
ENDROOT
BRANCH   4   9
ATOM      9  C   UNL     1      35.505 -24.527 -12.342  0.00  0.00    +0.202 C 
BRANCH   9  12
ATOM     10  S   UNL     1      34.112 -24.253 -14.701  0.00  0.00    -0.056 S 
ATOM     11  N   UNL     1      33.230 -23.563 -12.377  0.00  0.00    -0.402 NA
ATOM     12  C   UNL     1      34.258 -24.086 -13.005  0.00  0.00    +0.159 C 
ATOM     13  C   UNL     1      32.532 -23.569 -14.622  0.00  0.00    +0.057 C 
ATOM     14  C   UNL     1      32.231 -23.261 -13.292  0.00  0.00    +0.120 C 
ATOM     15  C   UNL     1      31.622 -23.322 -15.664  0.00  0.00    +0.008 C 
ATOM     16  C   UNL     1      30.977 -22.687 -12.996  0.00  0.00    +0.085 C 
ATOM     17  C   UNL     1      30.387 -22.753 -15.343  0.00  0.00    -0.004 C 
ATOM     18  C   UNL     1      30.067 -22.438 -14.027  0.00  0.00    -0.019 C 
ENDBRANCH   9  12
BRANCH   9  20
ATOM     19  N   UNL     1      35.812 -23.631  -9.858  0.00  0.00    -0.195 NA
ATOM     20  C   UNL     1      35.682 -24.008 -10.948  0.00  0.00    +0.087 C 
ENDBRANCH   9  20
ENDBRANCH   4   9
BRANCH   1  21
ATOM     21  C   UNL     1      36.389 -21.817 -16.502  0.00  0.00    +0.103 C 
BRANCH  21  22
ATOM     22  C   UNL     1      36.436 -21.369 -17.961  0.00  0.00    +0.050 C 
BRANCH  22  24
ATOM     23  N   UNL     1      32.735 -21.868 -18.605  0.00  0.00    -0.243 NA
ATOM     24  C   UNL     1      35.066 -21.228 -18.581  0.00  0.00    -0.001 C 
ATOM     25  C   UNL     1      34.850 -20.373 -19.656  0.00  0.00    -0.001 C 
ATOM     26  C   UNL     1      33.985 -21.946 -18.096  0.00  0.00    +0.095 C 
ATOM     27  C   UNL     1      33.578 -20.265 -20.207  0.00  0.00    +0.020 C 
ATOM     28  C   UNL     1      32.563 -21.027 -19.649  0.00  0.00    +0.099 C 
ENDBRANCH  22  24
ENDBRANCH  21  22
ENDBRANCH   1  21
TORSDOF 6
ENDMDL
MODEL 4
REMARK VINA RESULT:     -11.4      2.861      8.916
REMARK  Name = 46937117
REMARK  6 active torsions:
REMARK  status: ('A' for Active; 'I' for Inactive)
REMARK    1  A    between atoms: N_1  and  C_21
REMARK    2  A    between atoms: C_4  and  C_9
REMARK    3  A    between atoms: C_9  and  C_12
REMARK    4  A    between atoms: C_9  and  C_20
REMARK    5  A    between atoms: C_21  and  C_22
REMARK    6  A    between atoms: C_22  and  C_24
REMARK                            x       y       z     vdW  Elec       q    Type
REMARK                         _______ _______ _______ _____ _____    ______ ____
ROOT
ATOM      1  N   UNL     1      33.312 -20.169 -20.264  0.00  0.00    -0.268 N 
ATOM      2  N   UNL     1      34.720 -21.022 -18.592  0.00  0.00    -0.341 NA
ATOM      3  N   UNL     1      32.412 -21.702 -18.733  0.00  0.00    -0.170 NA
ATOM      4  C   UNL     1      34.854 -21.832 -17.520  0.00  0.00    +0.144 C 
ATOM      5  C   UNL     1      33.490 -21.006 -19.141  0.00  0.00    +0.144 C 
ATOM      6  C   UNL     1      33.827 -22.596 -17.004  0.00  0.00    +0.052 C 
ATOM      7  C   UNL     1      32.617 -22.491 -17.657  0.00  0.00    +0.114 C 
ATOM      8  H   UNL     1      32.425 -20.134 -20.689  0.00  0.00    +0.159 HD
ENDROOT
BRANCH   4   9
ATOM      9  C   UNL     1      36.242 -21.884 -16.861  0.00  0.00    +0.202 C 
BRANCH   9  12
ATOM     10  S   UNL     1      37.537 -23.539 -15.082  0.00  0.00    -0.056 S 
ATOM     11  N   UNL     1      35.263 -22.398 -14.651  0.00  0.00    -0.402 NA
ATOM     12  C   UNL     1      36.228 -22.534 -15.532  0.00  0.00    +0.159 C 
ATOM     13  C   UNL     1      36.773 -23.837 -13.566  0.00  0.00    +0.057 C 
ATOM     14  C   UNL     1      35.562 -23.140 -13.517  0.00  0.00    +0.120 C 
ATOM     15  C   UNL     1      37.213 -24.632 -12.495  0.00  0.00    +0.008 C 
ATOM     16  C   UNL     1      34.766 -23.242 -12.356  0.00  0.00    +0.085 C 
ATOM     17  C   UNL     1      36.407 -24.717 -11.357  0.00  0.00    -0.004 C 
ATOM     18  C   UNL     1      35.199 -24.032 -11.287  0.00  0.00    -0.019 C 
ENDBRANCH   9  12
BRANCH   9  20
ATOM     19  N   UNL     1      37.439 -19.510 -16.902  0.00  0.00    -0.195 NA
ATOM     20  C   UNL     1      36.902 -20.540 -16.886  0.00  0.00    +0.087 C 
ENDBRANCH   9  20
ENDBRANCH   4   9
BRANCH   1  21
ATOM     21  C   UNL     1      34.365 -19.372 -20.810  0.00  0.00    +0.103 C 
BRANCH  21  22
ATOM     22  C   UNL     1      34.308 -19.362 -22.336  0.00  0.00    +0.050 C 
BRANCH  22  24
ATOM     23  N   UNL     1      33.603 -16.536 -24.759  0.00  0.00    -0.243 NA
ATOM     24  C   UNL     1      34.227 -17.971 -22.917  0.00  0.00    -0.001 C 
ATOM     25  C   UNL     1      34.676 -16.868 -22.200  0.00  0.00    -0.001 C 
ATOM     26  C   UNL     1      33.703 -17.754 -24.181  0.00  0.00    +0.095 C 
ATOM     27  C   UNL     1      34.590 -15.599 -22.761  0.00  0.00    +0.020 C 
ATOM     28  C   UNL     1      34.049 -15.487 -24.032  0.00  0.00    +0.099 C 
ENDBRANCH  22  24
ENDBRANCH  21  22
ENDBRANCH   1  21
TORSDOF 6
ENDMDL
MODEL 5
REMARK VINA RESULT:     -11.0      2.504      4.536
REMARK  Name = 46937117
REMARK  6 active torsions:
REMARK  status: ('A' for Active; 'I' for Inactive)
REMARK    1  A    between atoms: N_1  and  C_21
REMARK    2  A    between atoms: C_4  and  C_9
REMARK    3  A    between atoms: C_9  and  C_12
REMARK    4  A    between atoms: C_9  and  C_20
REMARK    5  A    between atoms: C_21  and  C_22
REMARK    6  A    between atoms: C_22  and  C_24
REMARK                            x       y       z     vdW  Elec       q    Type
REMARK                         _______ _______ _______ _____ _____    ______ ____
ROOT
ATOM      1  N   UNL     1      32.834 -24.264 -12.703  0.00  0.00    -0.268 N 
ATOM      2  N   UNL     1      34.941 -23.581 -13.477  0.00  0.00    -0.341 NA
ATOM      3  N   UNL     1      34.562 -24.010 -11.136  0.00  0.00    -0.170 NA
ATOM      4  C   UNL     1      36.220 -23.273 -13.175  0.00  0.00    +0.144 C 
ATOM      5  C   UNL     1      34.179 -23.936 -12.425  0.00  0.00    +0.144 C 
ATOM      6  C   UNL     1      36.736 -23.310 -11.896  0.00  0.00    +0.052 C 
ATOM      7  C   UNL     1      35.853 -23.690 -10.906  0.00  0.00    +0.114 C 
ATOM      8  H   UNL     1      32.250 -24.527 -11.956  0.00  0.00    +0.159 HD
ENDROOT
BRANCH   4   9
ATOM      9  C   UNL     1      37.129 -22.864 -14.347  0.00  0.00    +0.202 C 
BRANCH   9  12
ATOM     10  S   UNL     1      37.129 -21.465 -16.718  0.00  0.00    -0.056 S 
ATOM     11  N   UNL     1      35.132 -22.816 -15.801  0.00  0.00    -0.402 NA
ATOM     12  C   UNL     1      36.371 -22.460 -15.552  0.00  0.00    +0.159 C 
ATOM     13  C   UNL     1      35.687 -21.491 -17.663  0.00  0.00    +0.057 C 
ATOM     14  C   UNL     1      34.725 -22.268 -17.010  0.00  0.00    +0.120 C 
ATOM     15  C   UNL     1      35.426 -20.870 -18.895  0.00  0.00    +0.008 C 
ATOM     16  C   UNL     1      33.459 -22.426 -17.611  0.00  0.00    +0.085 C 
ATOM     17  C   UNL     1      34.164 -21.043 -19.470  0.00  0.00    -0.004 C 
ATOM     18  C   UNL     1      33.192 -21.810 -18.838  0.00  0.00    -0.019 C 
ENDBRANCH   9  12
BRANCH   9  20
ATOM     19  N   UNL     1      39.024 -24.677 -14.773  0.00  0.00    -0.195 NA
ATOM     20  C   UNL     1      38.186 -23.894 -14.595  0.00  0.00    +0.087 C 
ENDBRANCH   9  20
ENDBRANCH   4   9
BRANCH   1  21
ATOM     21  C   UNL     1      32.286 -24.230 -14.022  0.00  0.00    +0.103 C 
BRANCH  21  22
ATOM     22  C   UNL     1      31.609 -22.889 -14.299  0.00  0.00    +0.050 C 
BRANCH  22  24
ATOM     23  N   UNL     1      28.842 -22.269 -16.812  0.00  0.00    -0.243 NA
ATOM     24  C   UNL     1      30.302 -23.027 -15.040  0.00  0.00    -0.001 C 
ATOM     25  C   UNL     1      29.368 -23.991 -14.674  0.00  0.00    -0.001 C 
ATOM     26  C   UNL     1      29.994 -22.199 -16.107  0.00  0.00    +0.095 C 
ATOM     27  C   UNL     1      28.173 -24.094 -15.375  0.00  0.00    +0.020 C 
ATOM     28  C   UNL     1      27.959 -23.217 -16.427  0.00  0.00    +0.099 C 
ENDBRANCH  22  24
ENDBRANCH  21  22
ENDBRANCH   1  21
TORSDOF 6
ENDMDL
MODEL 6
REMARK VINA RESULT:     -11.0      2.179      7.661
REMARK  Name = 46937117
REMARK  6 active torsions:
REMARK  status: ('A' for Active; 'I' for Inactive)
REMARK    1  A    between atoms: N_1  and  C_21
REMARK    2  A    between atoms: C_4  and  C_9
REMARK    3  A    between atoms: C_9  and  C_12
REMARK    4  A    between atoms: C_9  and  C_20
REMARK    5  A    between atoms: C_21  and  C_22
REMARK    6  A    between atoms: C_22  and  C_24
REMARK                            x       y       z     vdW  Elec       q    Type
REMARK                         _______ _______ _______ _____ _____    ______ ____
ROOT
ATOM      1  N   UNL     1      35.864 -20.414 -19.115  0.00  0.00    -0.268 N 
ATOM      2  N   UNL     1      35.369 -21.992 -17.451  0.00  0.00    -0.341 NA
ATOM      3  N   UNL     1      37.066 -20.317 -17.102  0.00  0.00    -0.170 NA
ATOM      4  C   UNL     1      35.632 -22.463 -16.214  0.00  0.00    +0.144 C 
ATOM      5  C   UNL     1      36.111 -20.934 -17.826  0.00  0.00    +0.144 C 
ATOM      6  C   UNL     1      36.583 -21.922 -15.374  0.00  0.00    +0.052 C 
ATOM      7  C   UNL     1      37.276 -20.839 -15.875  0.00  0.00    +0.114 C 
ATOM      8  H   UNL     1      36.391 -19.640 -19.419  0.00  0.00    +0.159 HD
ENDROOT
BRANCH   4   9
ATOM      9  C   UNL     1      34.805 -23.672 -15.743  0.00  0.00    +0.202 C 
BRANCH   9  12
ATOM     10  S   UNL     1      32.740 -23.401 -13.942  0.00  0.00    -0.056 S 
ATOM     11  N   UNL     1      32.542 -23.015 -16.485  0.00  0.00    -0.402 NA
ATOM     12  C   UNL     1      33.378 -23.348 -15.528  0.00  0.00    +0.159 C 
ATOM     13  C   UNL     1      31.198 -22.939 -14.557  0.00  0.00    +0.057 C 
ATOM     14  C   UNL     1      31.287 -22.777 -15.943  0.00  0.00    +0.120 C 
ATOM     15  C   UNL     1      29.994 -22.735 -13.863  0.00  0.00    +0.008 C 
ATOM     16  C   UNL     1      30.130 -22.397 -16.657  0.00  0.00    +0.085 C 
ATOM     17  C   UNL     1      28.864 -22.358 -14.593  0.00  0.00    -0.004 C 
ATOM     18  C   UNL     1      28.929 -22.192 -15.972  0.00  0.00    -0.019 C 
ENDBRANCH   9  12
BRANCH   9  20
ATOM     19  N   UNL     1      35.966 -24.919 -13.703  0.00  0.00    -0.195 NA
ATOM     20  C   UNL     1      35.465 -24.361 -14.589  0.00  0.00    +0.087 C 
ENDBRANCH   9  20
ENDBRANCH   4   9
BRANCH   1  21
ATOM     21  C   UNL     1      34.883 -20.964 -19.996  0.00  0.00    +0.103 C 
BRANCH  21  22
ATOM     22  C   UNL     1      33.741 -19.976 -20.227  0.00  0.00    +0.050 C 
BRANCH  22  24
ATOM     23  N   UNL     1      33.919 -18.246 -23.594  0.00  0.00    -0.243 NA
ATOM     24  C   UNL     1      34.056 -18.944 -21.283  0.00  0.00    -0.001 C 
ATOM     25  C   UNL     1      34.743 -17.778 -20.964  0.00  0.00    -0.001 C 
ATOM     26  C   UNL     1      33.669 -19.129 -22.601  0.00  0.00    +0.095 C 
ATOM     27  C   UNL     1      35.019 -16.847 -21.958  0.00  0.00    +0.020 C 
ATOM     28  C   UNL     1      34.590 -17.125 -23.246  0.00  0.00    +0.099 C 
ENDBRANCH  22  24
ENDBRANCH  21  22
ENDBRANCH   1  21
TORSDOF 6
ENDMDL
MODEL 7
REMARK VINA RESULT:     -10.6      2.421      8.527
REMARK  Name = 46937117
REMARK  6 active torsions:
REMARK  status: ('A' for Active; 'I' for Inactive)
REMARK    1  A    between atoms: N_1  and  C_21
REMARK    2  A    between atoms: C_4  and  C_9
REMARK    3  A    between atoms: C_9  and  C_12
REMARK    4  A    between atoms: C_9  and  C_20
REMARK    5  A    between atoms: C_21  and  C_22
REMARK    6  A    between atoms: C_22  and  C_24
REMARK                            x       y       z     vdW  Elec       q    Type
REMARK                         _______ _______ _______ _____ _____    ______ ____
ROOT
ATOM      1  N   UNL     1      35.573 -18.723 -20.812  0.00  0.00    -0.268 N 
ATOM      2  N   UNL     1      34.394 -20.516 -19.865  0.00  0.00    -0.341 NA
ATOM      3  N   UNL     1      36.523 -19.825 -18.972  0.00  0.00    -0.170 NA
ATOM      4  C   UNL     1      34.351 -21.477 -18.917  0.00  0.00    +0.144 C 
ATOM      5  C   UNL     1      35.493 -19.738 -19.835  0.00  0.00    +0.144 C 
ATOM      6  C   UNL     1      35.341 -21.670 -17.976  0.00  0.00    +0.052 C 
ATOM      7  C   UNL     1      36.414 -20.806 -18.051  0.00  0.00    +0.114 C 
ATOM      8  H   UNL     1      36.364 -18.136 -20.818  0.00  0.00    +0.159 HD
ENDROOT
BRANCH   4   9
ATOM      9  C   UNL     1      33.112 -22.389 -18.913  0.00  0.00    +0.202 C 
BRANCH   9  12
ATOM     10  S   UNL     1      33.480 -23.023 -16.259  0.00  0.00    -0.056 S 
ATOM     11  N   UNL     1      31.237 -22.296 -17.307  0.00  0.00    -0.402 NA
ATOM     12  C   UNL     1      32.502 -22.528 -17.572  0.00  0.00    +0.159 C 
ATOM     13  C   UNL     1      32.110 -22.929 -15.217  0.00  0.00    +0.057 C 
ATOM     14  C   UNL     1      30.997 -22.521 -15.959  0.00  0.00    +0.120 C 
ATOM     15  C   UNL     1      32.025 -23.196 -13.841  0.00  0.00    +0.008 C 
ATOM     16  C   UNL     1      29.758 -22.377 -15.299  0.00  0.00    +0.085 C 
ATOM     17  C   UNL     1      30.787 -23.045 -13.211  0.00  0.00    -0.004 C 
ATOM     18  C   UNL     1      29.667 -22.641 -13.929  0.00  0.00    -0.019 C 
ENDBRANCH   9  12
BRANCH   9  20
ATOM     19  N   UNL     1      33.617 -24.680 -20.163  0.00  0.00    -0.195 NA
ATOM     20  C   UNL     1      33.396 -23.687 -19.603  0.00  0.00    +0.087 C 
ENDBRANCH   9  20
ENDBRANCH   4   9
BRANCH   1  21
ATOM     21  C   UNL     1      34.557 -18.510 -21.793  0.00  0.00    +0.103 C 
BRANCH  21  22
ATOM     22  C   UNL     1      34.954 -17.395 -22.759  0.00  0.00    +0.050 C 
BRANCH  22  24
ATOM     23  N   UNL     1      33.896 -14.556 -20.484  0.00  0.00    -0.243 NA
ATOM     24  C   UNL     1      34.504 -16.029 -22.302  0.00  0.00    -0.001 C 
ATOM     25  C   UNL     1      34.283 -15.003 -23.216  0.00  0.00    -0.001 C 
ATOM     26  C   UNL     1      34.299 -15.756 -20.960  0.00  0.00    +0.095 C 
ATOM     27  C   UNL     1      33.869 -13.756 -22.765  0.00  0.00    +0.020 C 
ATOM     28  C   UNL     1      33.691 -13.584 -21.401  0.00  0.00    +0.099 C 
ENDBRANCH  22  24
ENDBRANCH  21  22
ENDBRANCH   1  21
TORSDOF 6
ENDMDL
MODEL 8
REMARK VINA RESULT:     -10.5      2.186      7.352
REMARK  Name = 46937117
REMARK  6 active torsions:
REMARK  status: ('A' for Active; 'I' for Inactive)
REMARK    1  A    between atoms: N_1  and  C_21
REMARK    2  A    between atoms: C_4  and  C_9
REMARK    3  A    between atoms: C_9  and  C_12
REMARK    4  A    between atoms: C_9  and  C_20
REMARK    5  A    between atoms: C_21  and  C_22
REMARK    6  A    between atoms: C_22  and  C_24
REMARK                            x       y       z     vdW  Elec       q    Type
REMARK                         _______ _______ _______ _____ _____    ______ ____
ROOT
ATOM      1  N   UNL     1      36.029 -21.589 -17.407  0.00  0.00    -0.268 N 
ATOM      2  N   UNL     1      35.327 -22.941 -15.623  0.00  0.00    -0.341 NA
ATOM      3  N   UNL     1      37.623 -22.232 -15.809  0.00  0.00    -0.170 NA
ATOM      4  C   UNL     1      35.661 -23.599 -14.493  0.00  0.00    +0.144 C 
ATOM      5  C   UNL     1      36.341 -22.289 -16.221  0.00  0.00    +0.144 C 
ATOM      6  C   UNL     1      36.937 -23.619 -13.966  0.00  0.00    +0.052 C 
ATOM      7  C   UNL     1      37.886 -22.911 -14.673  0.00  0.00    +0.114 C 
ATOM      8  H   UNL     1      36.748 -21.102 -17.869  0.00  0.00    +0.159 HD
ENDROOT
BRANCH   4   9
ATOM      9  C   UNL     1      34.533 -24.358 -13.774  0.00  0.00    +0.202 C 
BRANCH   9  12
ATOM     10  S   UNL     1      31.816 -24.449 -13.335  0.00  0.00    -0.056 S 
ATOM     11  N   UNL     1      32.952 -23.263 -15.325  0.00  0.00    -0.402 NA
ATOM     12  C   UNL     1      33.185 -23.968 -14.241  0.00  0.00    +0.159 C 
ATOM     13  C   UNL     1      30.795 -23.656 -14.475  0.00  0.00    +0.057 C 
ATOM     14  C   UNL     1      31.585 -23.076 -15.472  0.00  0.00    +0.120 C 
ATOM     15  C   UNL     1      29.394 -23.553 -14.485  0.00  0.00    +0.008 C 
ATOM     16  C   UNL     1      30.949 -22.369 -16.515  0.00  0.00    +0.085 C 
ATOM     17  C   UNL     1      28.789 -22.847 -15.529  0.00  0.00    -0.004 C 
ATOM     18  C   UNL     1      29.555 -22.263 -16.532  0.00  0.00    -0.019 C 
ENDBRANCH   9  12
BRANCH   9  20
ATOM     19  N   UNL     1      34.827 -24.290 -11.133  0.00  0.00    -0.195 NA
ATOM     20  C   UNL     1      34.712 -24.311 -12.288  0.00  0.00    +0.087 C 
ENDBRANCH   9  20
ENDBRANCH   4   9
BRANCH   1  21
ATOM     21  C   UNL     1      34.714 -21.559 -17.965  0.00  0.00    +0.103 C 
BRANCH  21  22
ATOM     22  C   UNL     1      34.766 -21.602 -19.491  0.00  0.00    +0.050 C 
BRANCH  22  24
ATOM     23  N   UNL     1      36.486 -18.404 -20.572  0.00  0.00    -0.243 NA
ATOM     24  C   UNL     1      34.988 -20.245 -20.113  0.00  0.00    -0.001 C 
ATOM     25  C   UNL     1      33.961 -19.586 -20.781  0.00  0.00    -0.001 C 
ATOM     26  C   UNL     1      36.220 -19.617 -20.038  0.00  0.00    +0.095 C 
ATOM     27  C   UNL     1      34.195 -18.337 -21.344  0.00  0.00    +0.020 C 
ATOM     28  C   UNL     1      35.464 -17.794 -21.213  0.00  0.00    +0.099 C 
ENDBRANCH  22  24
ENDBRANCH  21  22
ENDBRANCH   1  21
TORSDOF 6
ENDMDL
MODEL 9
REMARK VINA RESULT:     -10.5      2.312      7.817
REMARK  Name = 46937117
REMARK  6 active torsions:
REMARK  status: ('A' for Active; 'I' for Inactive)
REMARK    1  A    between atoms: N_1  and  C_21
REMARK    2  A    between atoms: C_4  and  C_9
REMARK    3  A    between atoms: C_9  and  C_12
REMARK    4  A    between atoms: C_9  and  C_20
REMARK    5  A    between atoms: C_21  and  C_22
REMARK    6  A    between atoms: C_22  and  C_24
REMARK                            x       y       z     vdW  Elec       q    Type
REMARK                         _______ _______ _______ _____ _____    ______ ____
ROOT
ATOM      1  N   UNL     1      33.155 -21.711 -18.485  0.00  0.00    -0.268 N 
ATOM      2  N   UNL     1      32.958 -22.455 -16.269  0.00  0.00    -0.341 NA
ATOM      3  N   UNL     1      31.001 -22.042 -17.614  0.00  0.00    -0.170 NA
ATOM      4  C   UNL     1      32.140 -22.808 -15.255  0.00  0.00    +0.144 C 
ATOM      5  C   UNL     1      32.331 -22.088 -17.403  0.00  0.00    +0.144 C 
ATOM      6  C   UNL     1      30.763 -22.804 -15.344  0.00  0.00    +0.052 C 
ATOM      7  C   UNL     1      30.244 -22.409 -16.559  0.00  0.00    +0.114 C 
ATOM      8  H   UNL     1      32.727 -21.437 -19.329  0.00  0.00    +0.159 HD
ENDROOT
BRANCH   4   9
ATOM      9  C   UNL     1      32.813 -23.236 -13.940  0.00  0.00    +0.202 C 
BRANCH   9  12
ATOM     10  S   UNL     1      35.449 -22.518 -14.282  0.00  0.00    -0.056 S 
ATOM     11  N   UNL     1      34.581 -24.946 -14.181  0.00  0.00    -0.402 NA
ATOM     12  C   UNL     1      34.210 -23.687 -14.125  0.00  0.00    +0.159 C 
ATOM     13  C   UNL     1      36.609 -23.784 -14.442  0.00  0.00    +0.057 C 
ATOM     14  C   UNL     1      35.955 -25.017 -14.362  0.00  0.00    +0.120 C 
ATOM     15  C   UNL     1      37.998 -23.692 -14.625  0.00  0.00    +0.008 C 
ATOM     16  C   UNL     1      36.720 -26.198 -14.470  0.00  0.00    +0.085 C 
ATOM     17  C   UNL     1      38.733 -24.876 -14.727  0.00  0.00    -0.004 C 
ATOM     18  C   UNL     1      38.103 -26.114 -14.651  0.00  0.00    -0.019 C 
ENDBRANCH   9  12
BRANCH   9  20
ATOM     19  N   UNL     1      31.275 -24.948 -12.610  0.00  0.00    -0.195 NA
ATOM     20  C   UNL     1      31.949 -24.192 -13.177  0.00  0.00    +0.087 C 
ENDBRANCH   9  20
ENDBRANCH   4   9
BRANCH   1  21
ATOM     21  C   UNL     1      34.581 -21.710 -18.409  0.00  0.00    +0.103 C 
BRANCH  21  22
ATOM     22  C   UNL     1      35.203 -21.603 -19.800  0.00  0.00    +0.050 C 
BRANCH  22  24
ATOM     23  N   UNL     1      36.417 -18.098 -20.578  0.00  0.00    -0.243 NA
ATOM     24  C   UNL     1      35.229 -20.190 -20.330  0.00  0.00    -0.001 C 
ATOM     25  C   UNL     1      34.148 -19.667 -21.032  0.00  0.00    -0.001 C 
ATOM     26  C   UNL     1      36.330 -19.372 -20.132  0.00  0.00    +0.095 C 
ATOM     27  C   UNL     1      34.200 -18.362 -21.507  0.00  0.00    +0.020 C 
ATOM     28  C   UNL     1      35.348 -17.626 -21.256  0.00  0.00    +0.099 C 
ENDBRANCH  22  24
ENDBRANCH  21  22
ENDBRANCH   1  21
TORSDOF 6
ENDMDL
