MODEL 1
REMARK VINA RESULT:     -11.2      0.000      0.000
REMARK  Name = 11494891
REMARK  8 active torsions:
REMARK  status: ('A' for Active; 'I' for Inactive)
REMARK    1  A    between atoms: N_5  and  C_25
REMARK    2  A    between atoms: C_10  and  C_18
REMARK    3  A    between atoms: C_18  and  O_19
REMARK    4  A    between atoms: O_19  and  C_20
REMARK    5  A    between atoms: C_20  and  C_22
REMARK    6  A    between atoms: C_22  and  O_23
REMARK    7  A    between atoms: C_25  and  C_27
REMARK    8  A    between atoms: C_27  and  O_28
REMARK                            x       y       z     vdW  Elec       q    Type
REMARK                         _______ _______ _______ _____ _____    ______ ____
ROOT
ATOM      1  S   UNL     1      33.917 -23.602 -14.545  0.00  0.00    +0.080 S 
ATOM      2  O   UNL     1      34.004 -22.769 -13.365  0.00  0.00    -0.150 OA
ATOM      3  O   UNL     1      34.392 -24.968 -14.594  0.00  0.00    -0.150 OA
ATOM      4  O   UNL     1      31.266 -22.630 -17.132  0.00  0.00    -0.268 OA
ATOM      5  N   UNL     1      32.353 -23.497 -15.228  0.00  0.00    -0.145 N 
ATOM      6  C   UNL     1      34.607 -22.731 -15.886  0.00  0.00    +0.136 C 
ATOM      7  C   UNL     1      33.658 -22.363 -16.847  0.00  0.00    +0.074 C 
ATOM      8  C   UNL     1      34.057 -21.649 -17.996  0.00  0.00    +0.006 C 
ATOM      9  C   UNL     1      32.282 -22.810 -16.486  0.00  0.00    +0.269 C 
ATOM     10  C   UNL     1      35.948 -22.434 -15.992  0.00  0.00    +0.095 C 
ATOM     11  C   UNL     1      35.440 -21.335 -18.119  0.00  0.00    +0.000 C 
ATOM     12  C   UNL     1      36.358 -21.730 -17.120  0.00  0.00    +0.008 C 
ATOM     13  C   UNL     1      33.187 -21.226 -19.027  0.00  0.00    +0.000 C 
ATOM     14  C   UNL     1      35.895 -20.626 -19.243  0.00  0.00    +0.000 C 
ATOM     15  C   UNL     1      33.661 -20.521 -20.135  0.00  0.00    +0.000 C 
ATOM     16  C   UNL     1      35.012 -20.221 -20.243  0.00  0.00    +0.000 C 
ENDROOT
BRANCH  10  18
ATOM     17  O   UNL     1      37.206 -22.146 -13.987  0.00  0.00    -0.245 OA
ATOM     18  C   UNL     1      36.927 -22.819 -14.988  0.00  0.00    +0.343 C 
BRANCH  18  19
ATOM     19  O   UNL     1      37.504 -24.024 -15.284  0.00  0.00    -0.433 OA
BRANCH  19  20
ATOM     20  C   UNL     1      38.273 -24.644 -14.249  0.00  0.00    +0.317 C 
BRANCH  20  22
ATOM     21  O   UNL     1      40.633 -24.079 -14.119  0.00  0.00    -0.246 OA
ATOM     22  C   UNL     1      39.721 -24.694 -14.651  0.00  0.00    +0.359 C 
BRANCH  22  23
ATOM     23  O   UNL     1      39.886 -25.530 -15.707  0.00  0.00    -0.478 OA
ATOM     24  H   UNL     1      40.174 -26.410 -15.568  0.00  0.00    +0.295 HD
ENDBRANCH  22  23
ENDBRANCH  20  22
ENDBRANCH  19  20
ENDBRANCH  18  19
ENDBRANCH  10  18
BRANCH   5  25
ATOM     25  C   UNL     1      31.167 -24.071 -14.575  0.00  0.00    +0.228 C 
BRANCH  25  27
ATOM     26  O   UNL     1      30.568 -23.041 -12.483  0.00  0.00    -0.248 OA
ATOM     27  C   UNL     1      30.441 -23.080 -13.701  0.00  0.00    +0.336 C 
BRANCH  27  28
ATOM     28  O   UNL     1      29.635 -22.239 -14.389  0.00  0.00    -0.479 OA
ATOM     29  H   UNL     1      28.927 -21.807 -13.954  0.00  0.00    +0.295 HD
ENDBRANCH  27  28
ENDBRANCH  25  27
ENDBRANCH   5  25
TORSDOF 8
ENDMDL
MODEL 2
REMARK VINA RESULT:     -10.6      2.301      6.441
REMARK  Name = 11494891
REMARK  8 active torsions:
REMARK  status: ('A' for Active; 'I' for Inactive)
REMARK    1  A    between atoms: N_5  and  C_25
REMARK    2  A    between atoms: C_10  and  C_18
REMARK    3  A    between atoms: C_18  and  O_19
REMARK    4  A    between atoms: O_19  and  C_20
REMARK    5  A    between atoms: C_20  and  C_22
REMARK    6  A    between atoms: C_22  and  O_23
REMARK    7  A    between atoms: C_25  and  C_27
REMARK    8  A    between atoms: C_27  and  O_28
REMARK                            x       y       z     vdW  Elec       q    Type
REMARK                         _______ _______ _______ _____ _____    ______ ____
ROOT
ATOM      1  S   UNL     1      32.619 -23.586 -13.513  0.00  0.00    +0.080 S 
ATOM      2  O   UNL     1      32.354 -25.009 -13.532  0.00  0.00    -0.150 OA
ATOM      3  O   UNL     1      31.825 -22.637 -12.765  0.00  0.00    -0.150 OA
ATOM      4  O   UNL     1      36.185 -22.501 -14.392  0.00  0.00    -0.268 OA
ATOM      5  N   UNL     1      34.285 -23.299 -13.249  0.00  0.00    -0.145 N 
ATOM      6  C   UNL     1      32.741 -23.027 -15.158  0.00  0.00    +0.136 C 
ATOM      7  C   UNL     1      34.036 -22.623 -15.505  0.00  0.00    +0.074 C 
ATOM      8  C   UNL     1      34.302 -22.145 -16.805  0.00  0.00    +0.006 C 
ATOM      9  C   UNL     1      34.999 -22.773 -14.376  0.00  0.00    +0.269 C 
ATOM     10  C   UNL     1      31.675 -22.985 -16.029  0.00  0.00    +0.095 C 
ATOM     11  C   UNL     1      33.208 -22.096 -17.716  0.00  0.00    +0.000 C 
ATOM     12  C   UNL     1      31.920 -22.514 -17.315  0.00  0.00    +0.008 C 
ATOM     13  C   UNL     1      35.568 -21.715 -17.264  0.00  0.00    +0.000 C 
ATOM     14  C   UNL     1      33.415 -21.628 -19.024  0.00  0.00    +0.000 C 
ATOM     15  C   UNL     1      35.749 -21.254 -18.570  0.00  0.00    +0.000 C 
ATOM     16  C   UNL     1      34.675 -21.210 -19.448  0.00  0.00    +0.000 C 
ENDROOT
BRANCH  10  18
ATOM     17  O   UNL     1      29.981 -24.586 -15.526  0.00  0.00    -0.245 OA
ATOM     18  C   UNL     1      30.333 -23.405 -15.660  0.00  0.00    +0.343 C 
BRANCH  18  19
ATOM     19  O   UNL     1      29.502 -22.335 -15.475  0.00  0.00    -0.433 OA
BRANCH  19  20
ATOM     20  C   UNL     1      28.112 -22.620 -15.287  0.00  0.00    +0.317 C 
BRANCH  20  22
ATOM     21  O   UNL     1      27.164 -23.427 -17.373  0.00  0.00    -0.246 OA
ATOM     22  C   UNL     1      27.387 -22.508 -16.600  0.00  0.00    +0.359 C 
BRANCH  22  23
ATOM     23  O   UNL     1      27.005 -21.224 -16.817  0.00  0.00    -0.478 OA
ATOM     24  H   UNL     1      27.525 -20.519 -16.487  0.00  0.00    +0.295 HD
ENDBRANCH  22  23
ENDBRANCH  20  22
ENDBRANCH  19  20
ENDBRANCH  18  19
ENDBRANCH  10  18
BRANCH   5  25
ATOM     25  C   UNL     1      34.936 -23.572 -11.959  0.00  0.00    +0.228 C 
BRANCH  25  27
ATOM     26  O   UNL     1      36.286 -25.303 -10.973  0.00  0.00    -0.248 OA
ATOM     27  C   UNL     1      35.770 -24.828 -11.976  0.00  0.00    +0.336 C 
BRANCH  27  28
ATOM     28  O   UNL     1      35.896 -25.377 -13.207  0.00  0.00    -0.479 OA
ATOM     29  H   UNL     1      36.562 -26.016 -13.369  0.00  0.00    +0.295 HD
ENDBRANCH  27  28
ENDBRANCH  25  27
ENDBRANCH   5  25
TORSDOF 8
ENDMDL
MODEL 3
REMARK VINA RESULT:     -10.4      1.829      2.317
REMARK  Name = 11494891
REMARK  8 active torsions:
REMARK  status: ('A' for Active; 'I' for Inactive)
REMARK    1  A    between atoms: N_5  and  C_25
REMARK    2  A    between atoms: C_10  and  C_18
REMARK    3  A    between atoms: C_18  and  O_19
REMARK    4  A    between atoms: O_19  and  C_20
REMARK    5  A    between atoms: C_20  and  C_22
REMARK    6  A    between atoms: C_22  and  O_23
REMARK    7  A    between atoms: C_25  and  C_27
REMARK    8  A    between atoms: C_27  and  O_28
REMARK                            x       y       z     vdW  Elec       q    Type
REMARK                         _______ _______ _______ _____ _____    ______ ____
ROOT
ATOM      1  S   UNL     1      31.877 -23.535 -14.019  0.00  0.00    +0.080 S 
ATOM      2  O   UNL     1      32.026 -22.680 -12.861  0.00  0.00    -0.150 OA
ATOM      3  O   UNL     1      31.941 -24.979 -13.957  0.00  0.00    -0.150 OA
ATOM      4  O   UNL     1      30.030 -22.042 -17.022  0.00  0.00    -0.268 OA
ATOM      5  N   UNL     1      30.528 -23.044 -14.948  0.00  0.00    -0.145 N 
ATOM      6  C   UNL     1      32.979 -22.988 -15.253  0.00  0.00    +0.136 C 
ATOM      7  C   UNL     1      32.328 -22.438 -16.364  0.00  0.00    +0.074 C 
ATOM      8  C   UNL     1      33.080 -21.946 -17.451  0.00  0.00    +0.006 C 
ATOM      9  C   UNL     1      30.844 -22.454 -16.217  0.00  0.00    +0.269 C 
ATOM     10  C   UNL     1      34.348 -23.087 -15.149  0.00  0.00    +0.095 C 
ATOM     11  C   UNL     1      34.497 -22.042 -17.357  0.00  0.00    +0.000 C 
ATOM     12  C   UNL     1      35.105 -22.608 -16.214  0.00  0.00    +0.008 C 
ATOM     13  C   UNL     1      32.530 -21.369 -18.618  0.00  0.00    +0.000 C 
ATOM     14  C   UNL     1      35.297 -21.569 -18.410  0.00  0.00    +0.000 C 
ATOM     15  C   UNL     1      33.345 -20.905 -19.653  0.00  0.00    +0.000 C 
ATOM     16  C   UNL     1      34.726 -21.004 -19.549  0.00  0.00    +0.000 C 
ENDROOT
BRANCH  10  18
ATOM     17  O   UNL     1      35.347 -23.020 -12.984  0.00  0.00    -0.245 OA
ATOM     18  C   UNL     1      35.017 -23.661 -13.992  0.00  0.00    +0.343 C 
BRANCH  18  19
ATOM     19  O   UNL     1      35.236 -25.002 -14.150  0.00  0.00    -0.433 OA
BRANCH  19  20
ATOM     20  C   UNL     1      36.425 -25.537 -13.560  0.00  0.00    +0.317 C 
BRANCH  20  22
ATOM     21  O   UNL     1      38.351 -26.695 -14.484  0.00  0.00    -0.246 OA
ATOM     22  C   UNL     1      37.191 -26.326 -14.585  0.00  0.00    +0.359 C 
BRANCH  22  23
ATOM     23  O   UNL     1      36.407 -26.581 -15.663  0.00  0.00    -0.478 OA
ATOM     24  H   UNL     1      36.606 -26.190 -16.490  0.00  0.00    +0.295 HD
ENDBRANCH  22  23
ENDBRANCH  20  22
ENDBRANCH  19  20
ENDBRANCH  18  19
ENDBRANCH  10  18
BRANCH   5  25
ATOM     25  C   UNL     1      29.144 -23.214 -14.479  0.00  0.00    +0.228 C 
BRANCH  25  27
ATOM     26  O   UNL     1      27.920 -24.659 -15.965  0.00  0.00    -0.248 OA
ATOM     27  C   UNL     1      28.535 -24.523 -14.914  0.00  0.00    +0.336 C 
BRANCH  27  28
ATOM     28  O   UNL     1      28.729 -25.531 -14.033  0.00  0.00    -0.479 OA
ATOM     29  H   UNL     1      29.210 -25.376 -13.243  0.00  0.00    +0.295 HD
ENDBRANCH  27  28
ENDBRANCH  25  27
ENDBRANCH   5  25
TORSDOF 8
ENDMDL
MODEL 4
REMARK VINA RESULT:     -10.3      2.197      3.040
REMARK  Name = 11494891
REMARK  8 active torsions:
REMARK  status: ('A' for Active; 'I' for Inactive)
REMARK    1  A    between atoms: N_5  and  C_25
REMARK    2  A    between atoms: C_10  and  C_18
REMARK    3  A    between atoms: C_18  and  O_19
REMARK    4  A    between atoms: O_19  and  C_20
REMARK    5  A    between atoms: C_20  and  C_22
REMARK    6  A    between atoms: C_22  and  O_23
REMARK    7  A    between atoms: C_25  and  C_27
REMARK    8  A    between atoms: C_27  and  O_28
REMARK                            x       y       z     vdW  Elec       q    Type
REMARK                         _______ _______ _______ _____ _____    ______ ____
ROOT
ATOM      1  S   UNL     1      32.096 -23.678 -13.897  0.00  0.00    +0.080 S 
ATOM      2  O   UNL     1      32.248 -22.834 -12.731  0.00  0.00    -0.150 OA
ATOM      3  O   UNL     1      32.182 -25.121 -13.854  0.00  0.00    -0.150 OA
ATOM      4  O   UNL     1      30.184 -22.176 -16.856  0.00  0.00    -0.268 OA
ATOM      5  N   UNL     1      30.727 -23.195 -14.801  0.00  0.00    -0.145 N 
ATOM      6  C   UNL     1      33.172 -23.099 -15.140  0.00  0.00    +0.136 C 
ATOM      7  C   UNL     1      32.497 -22.545 -16.234  0.00  0.00    +0.074 C 
ATOM      8  C   UNL     1      33.226 -22.029 -17.325  0.00  0.00    +0.006 C 
ATOM      9  C   UNL     1      31.016 -22.585 -16.067  0.00  0.00    +0.269 C 
ATOM     10  C   UNL     1      34.544 -23.178 -15.056  0.00  0.00    +0.095 C 
ATOM     11  C   UNL     1      34.646 -22.104 -17.252  0.00  0.00    +0.000 C 
ATOM     12  C   UNL     1      35.278 -22.675 -16.125  0.00  0.00    +0.008 C 
ATOM     13  C   UNL     1      32.651 -21.446 -18.478  0.00  0.00    +0.000 C 
ATOM     14  C   UNL     1      35.424 -21.606 -18.311  0.00  0.00    +0.000 C 
ATOM     15  C   UNL     1      33.444 -20.957 -19.518  0.00  0.00    +0.000 C 
ATOM     16  C   UNL     1      34.828 -21.037 -19.435  0.00  0.00    +0.000 C 
ENDROOT
BRANCH  10  18
ATOM     17  O   UNL     1      35.654 -24.921 -13.866  0.00  0.00    -0.245 OA
ATOM     18  C   UNL     1      35.237 -23.756 -13.915  0.00  0.00    +0.343 C 
BRANCH  18  19
ATOM     19  O   UNL     1      35.375 -22.851 -12.899  0.00  0.00    -0.433 OA
BRANCH  19  20
ATOM     20  C   UNL     1      36.318 -23.173 -11.871  0.00  0.00    +0.317 C 
BRANCH  20  22
ATOM     21  O   UNL     1      35.943 -23.583  -9.506  0.00  0.00    -0.246 OA
ATOM     22  C   UNL     1      35.596 -23.716 -10.669  0.00  0.00    +0.359 C 
BRANCH  22  23
ATOM     23  O   UNL     1      34.482 -24.388 -11.057  0.00  0.00    -0.478 OA
ATOM     24  H   UNL     1      33.635 -24.022 -10.899  0.00  0.00    +0.295 HD
ENDBRANCH  22  23
ENDBRANCH  20  22
ENDBRANCH  19  20
ENDBRANCH  18  19
ENDBRANCH  10  18
BRANCH   5  25
ATOM     25  C   UNL     1      29.352 -23.393 -14.316  0.00  0.00    +0.228 C 
BRANCH  25  27
ATOM     26  O   UNL     1      28.032 -24.662 -15.877  0.00  0.00    -0.248 OA
ATOM     27  C   UNL     1      28.712 -24.645 -14.859  0.00  0.00    +0.336 C 
BRANCH  27  28
ATOM     28  O   UNL     1      28.959 -25.747 -14.113  0.00  0.00    -0.479 OA
ATOM     29  H   UNL     1      28.261 -26.162 -13.646  0.00  0.00    +0.295 HD
ENDBRANCH  27  28
ENDBRANCH  25  27
ENDBRANCH   5  25
TORSDOF 8
ENDMDL
MODEL 5
REMARK VINA RESULT:      -9.9      1.599      6.264
REMARK  Name = 11494891
REMARK  8 active torsions:
REMARK  status: ('A' for Active; 'I' for Inactive)
REMARK    1  A    between atoms: N_5  and  C_25
REMARK    2  A    between atoms: C_10  and  C_18
REMARK    3  A    between atoms: C_18  and  O_19
REMARK    4  A    between atoms: O_19  and  C_20
REMARK    5  A    between atoms: C_20  and  C_22
REMARK    6  A    between atoms: C_22  and  O_23
REMARK    7  A    between atoms: C_25  and  C_27
REMARK    8  A    between atoms: C_27  and  O_28
REMARK                            x       y       z     vdW  Elec       q    Type
REMARK                         _______ _______ _______ _____ _____    ______ ____
ROOT
ATOM      1  S   UNL     1      34.423 -23.505 -14.369  0.00  0.00    +0.080 S 
ATOM      2  O   UNL     1      34.249 -24.940 -14.445  0.00  0.00    -0.150 OA
ATOM      3  O   UNL     1      33.934 -22.700 -13.271  0.00  0.00    -0.150 OA
ATOM      4  O   UNL     1      37.295 -22.021 -16.421  0.00  0.00    -0.268 OA
ATOM      5  N   UNL     1      36.040 -23.086 -14.734  0.00  0.00    -0.145 N 
ATOM      6  C   UNL     1      33.860 -22.803 -15.861  0.00  0.00    +0.136 C 
ATOM      7  C   UNL     1      34.893 -22.252 -16.630  0.00  0.00    +0.074 C 
ATOM      8  C   UNL     1      34.602 -21.645 -17.869  0.00  0.00    +0.006 C 
ATOM      9  C   UNL     1      36.227 -22.403 -15.982  0.00  0.00    +0.269 C 
ATOM     10  C   UNL     1      32.538 -22.789 -16.244  0.00  0.00    +0.095 C 
ATOM     11  C   UNL     1      33.238 -21.623 -18.279  0.00  0.00    +0.000 C 
ATOM     12  C   UNL     1      32.235 -22.192 -17.464  0.00  0.00    +0.008 C 
ATOM     13  C   UNL     1      35.562 -21.061 -18.728  0.00  0.00    +0.000 C 
ATOM     14  C   UNL     1      32.890 -21.030 -19.504  0.00  0.00    +0.000 C 
ATOM     15  C   UNL     1      35.192 -20.478 -19.941  0.00  0.00    +0.000 C 
ATOM     16  C   UNL     1      33.859 -20.463 -20.329  0.00  0.00    +0.000 C 
ENDROOT
BRANCH  10  18
ATOM     17  O   UNL     1      31.372 -24.567 -15.165  0.00  0.00    -0.245 OA
ATOM     18  C   UNL     1      31.472 -23.363 -15.439  0.00  0.00    +0.343 C 
BRANCH  18  19
ATOM     19  O   UNL     1      30.590 -22.407 -15.015  0.00  0.00    -0.433 OA
BRANCH  19  20
ATOM     20  C   UNL     1      29.259 -22.841 -14.718  0.00  0.00    +0.317 C 
BRANCH  20  22
ATOM     21  O   UNL     1      27.226 -21.613 -15.232  0.00  0.00    -0.246 OA
ATOM     22  C   UNL     1      28.279 -22.114 -15.597  0.00  0.00    +0.359 C 
BRANCH  22  23
ATOM     23  O   UNL     1      28.729 -22.085 -16.877  0.00  0.00    -0.478 OA
ATOM     24  H   UNL     1      29.391 -21.472 -17.127  0.00  0.00    +0.295 HD
ENDBRANCH  22  23
ENDBRANCH  20  22
ENDBRANCH  19  20
ENDBRANCH  18  19
ENDBRANCH  10  18
BRANCH   5  25
ATOM     25  C   UNL     1      37.159 -23.403 -13.833  0.00  0.00    +0.228 C 
BRANCH  25  27
ATOM     26  O   UNL     1      37.856 -25.681 -14.170  0.00  0.00    -0.248 OA
ATOM     27  C   UNL     1      38.055 -24.490 -14.369  0.00  0.00    +0.336 C 
BRANCH  27  28
ATOM     28  O   UNL     1      39.102 -24.022 -15.089  0.00  0.00    -0.479 OA
ATOM     29  H   UNL     1      39.905 -23.803 -14.660  0.00  0.00    +0.295 HD
ENDBRANCH  27  28
ENDBRANCH  25  27
ENDBRANCH   5  25
TORSDOF 8
ENDMDL
MODEL 6
REMARK VINA RESULT:      -9.7      2.435      6.214
REMARK  Name = 11494891
REMARK  8 active torsions:
REMARK  status: ('A' for Active; 'I' for Inactive)
REMARK    1  A    between atoms: N_5  and  C_25
REMARK    2  A    between atoms: C_10  and  C_18
REMARK    3  A    between atoms: C_18  and  O_19
REMARK    4  A    between atoms: O_19  and  C_20
REMARK    5  A    between atoms: C_20  and  C_22
REMARK    6  A    between atoms: C_22  and  O_23
REMARK    7  A    between atoms: C_25  and  C_27
REMARK    8  A    between atoms: C_27  and  O_28
REMARK                            x       y       z     vdW  Elec       q    Type
REMARK                         _______ _______ _______ _____ _____    ______ ____
ROOT
ATOM      1  S   UNL     1      36.332 -23.036 -14.545  0.00  0.00    +0.080 S 
ATOM      2  O   UNL     1      36.796 -21.671 -14.420  0.00  0.00    -0.150 OA
ATOM      3  O   UNL     1      36.983 -24.027 -15.374  0.00  0.00    -0.150 OA
ATOM      4  O   UNL     1      34.160 -24.372 -11.688  0.00  0.00    -0.268 OA
ATOM      5  N   UNL     1      35.995 -23.689 -13.001  0.00  0.00    -0.145 N 
ATOM      6  C   UNL     1      34.638 -23.008 -14.949  0.00  0.00    +0.136 C 
ATOM      7  C   UNL     1      33.821 -23.492 -13.920  0.00  0.00    +0.074 C 
ATOM      8  C   UNL     1      32.422 -23.533 -14.090  0.00  0.00    +0.006 C 
ATOM      9  C   UNL     1      34.605 -23.914 -12.725  0.00  0.00    +0.269 C 
ATOM     10  C   UNL     1      34.151 -22.557 -16.156  0.00  0.00    +0.095 C 
ATOM     11  C   UNL     1      31.904 -23.070 -15.333  0.00  0.00    +0.000 C 
ATOM     12  C   UNL     1      32.772 -22.592 -16.340  0.00  0.00    +0.008 C 
ATOM     13  C   UNL     1      31.504 -23.998 -13.121  0.00  0.00    +0.000 C 
ATOM     14  C   UNL     1      30.517 -23.088 -15.558  0.00  0.00    +0.000 C 
ATOM     15  C   UNL     1      30.129 -24.006 -13.367  0.00  0.00    +0.000 C 
ATOM     16  C   UNL     1      29.637 -23.552 -14.583  0.00  0.00    +0.000 C 
ENDROOT
BRANCH  10  18
ATOM     17  O   UNL     1      36.054 -21.421 -17.035  0.00  0.00    -0.245 OA
ATOM     18  C   UNL     1      35.006 -22.056 -17.220  0.00  0.00    +0.343 C 
BRANCH  18  19
ATOM     19  O   UNL     1      34.513 -22.375 -18.455  0.00  0.00    -0.433 OA
BRANCH  19  20
ATOM     20  C   UNL     1      34.604 -21.367 -19.467  0.00  0.00    +0.317 C 
BRANCH  20  22
ATOM     21  O   UNL     1      32.174 -21.335 -19.458  0.00  0.00    -0.246 OA
ATOM     22  C   UNL     1      33.237 -20.811 -19.756  0.00  0.00    +0.359 C 
BRANCH  22  23
ATOM     23  O   UNL     1      33.341 -19.624 -20.406  0.00  0.00    -0.478 OA
ATOM     24  H   UNL     1      32.887 -19.491 -21.214  0.00  0.00    +0.295 HD
ENDBRANCH  22  23
ENDBRANCH  20  22
ENDBRANCH  19  20
ENDBRANCH  18  19
ENDBRANCH  10  18
BRANCH   5  25
ATOM     25  C   UNL     1      37.053 -23.998 -12.027  0.00  0.00    +0.228 C 
BRANCH  25  27
ATOM     26  O   UNL     1      38.417 -25.849 -12.740  0.00  0.00    -0.248 OA
ATOM     27  C   UNL     1      37.480 -25.443 -12.063  0.00  0.00    +0.336 C 
BRANCH  27  28
ATOM     28  O   UNL     1      36.728 -26.249 -11.278  0.00  0.00    -0.479 OA
ATOM     29  H   UNL     1      37.133 -26.943 -10.795  0.00  0.00    +0.295 HD
ENDBRANCH  27  28
ENDBRANCH  25  27
ENDBRANCH   5  25
TORSDOF 8
ENDMDL
MODEL 7
REMARK VINA RESULT:      -9.7      1.924      6.013
REMARK  Name = 11494891
REMARK  8 active torsions:
REMARK  status: ('A' for Active; 'I' for Inactive)
REMARK    1  A    between atoms: N_5  and  C_25
REMARK    2  A    between atoms: C_10  and  C_18
REMARK    3  A    between atoms: C_18  and  O_19
REMARK    4  A    between atoms: O_19  and  C_20
REMARK    5  A    between atoms: C_20  and  C_22
REMARK    6  A    between atoms: C_22  and  O_23
REMARK    7  A    between atoms: C_25  and  C_27
REMARK    8  A    between atoms: C_27  and  O_28
REMARK                            x       y       z     vdW  Elec       q    Type
REMARK                         _______ _______ _______ _____ _____    ______ ____
ROOT
ATOM      1  S   UNL     1      34.505 -23.658 -13.945  0.00  0.00    +0.080 S 
ATOM      2  O   UNL     1      34.300 -25.090 -13.996  0.00  0.00    -0.150 OA
ATOM      3  O   UNL     1      34.031 -22.822 -12.864  0.00  0.00    -0.150 OA
ATOM      4  O   UNL     1      37.416 -22.274 -16.013  0.00  0.00    -0.268 OA
ATOM      5  N   UNL     1      36.133 -23.281 -14.312  0.00  0.00    -0.145 N 
ATOM      6  C   UNL     1      33.963 -22.970 -15.451  0.00  0.00    +0.136 C 
ATOM      7  C   UNL     1      35.010 -22.456 -16.227  0.00  0.00    +0.074 C 
ATOM      8  C   UNL     1      34.737 -21.865 -17.478  0.00  0.00    +0.006 C 
ATOM      9  C   UNL     1      36.338 -22.625 -15.571  0.00  0.00    +0.269 C 
ATOM     10  C   UNL     1      32.643 -22.934 -15.840  0.00  0.00    +0.095 C 
ATOM     11  C   UNL     1      33.375 -21.820 -17.892  0.00  0.00    +0.000 C 
ATOM     12  C   UNL     1      32.356 -22.352 -17.071  0.00  0.00    +0.008 C 
ATOM     13  C   UNL     1      35.712 -21.317 -18.343  0.00  0.00    +0.000 C 
ATOM     14  C   UNL     1      33.044 -21.243 -19.129  0.00  0.00    +0.000 C 
ATOM     15  C   UNL     1      35.359 -20.748 -19.568  0.00  0.00    +0.000 C 
ATOM     16  C   UNL     1      34.028 -20.711 -19.961  0.00  0.00    +0.000 C 
ENDROOT
BRANCH  10  18
ATOM     17  O   UNL     1      31.554 -23.476 -13.789  0.00  0.00    -0.245 OA
ATOM     18  C   UNL     1      31.562 -23.469 -15.028  0.00  0.00    +0.343 C 
BRANCH  18  19
ATOM     19  O   UNL     1      30.549 -23.966 -15.801  0.00  0.00    -0.433 OA
BRANCH  19  20
ATOM     20  C   UNL     1      29.215 -23.777 -15.318  0.00  0.00    +0.317 C 
BRANCH  20  22
ATOM     21  O   UNL     1      27.420 -23.887 -16.953  0.00  0.00    -0.246 OA
ATOM     22  C   UNL     1      28.338 -23.272 -16.431  0.00  0.00    +0.359 C 
BRANCH  22  23
ATOM     23  O   UNL     1      28.707 -22.016 -16.785  0.00  0.00    -0.478 OA
ATOM     24  H   UNL     1      29.376 -21.888 -17.428  0.00  0.00    +0.295 HD
ENDBRANCH  22  23
ENDBRANCH  20  22
ENDBRANCH  19  20
ENDBRANCH  18  19
ENDBRANCH  10  18
BRANCH   5  25
ATOM     25  C   UNL     1      37.241 -23.606 -13.401  0.00  0.00    +0.228 C 
BRANCH  25  27
ATOM     26  O   UNL     1      36.778 -24.309 -11.146  0.00  0.00    -0.248 OA
ATOM     27  C   UNL     1      36.891 -23.392 -11.950  0.00  0.00    +0.336 C 
BRANCH  27  28
ATOM     28  O   UNL     1      36.710 -22.091 -11.623  0.00  0.00    -0.479 OA
ATOM     29  H   UNL     1      36.388 -21.488 -12.263  0.00  0.00    +0.295 HD
ENDBRANCH  27  28
ENDBRANCH  25  27
ENDBRANCH   5  25
TORSDOF 8
ENDMDL
MODEL 8
REMARK VINA RESULT:      -9.5      2.626      5.662
REMARK  Name = 11494891
REMARK  8 active torsions:
REMARK  status: ('A' for Active; 'I' for Inactive)
REMARK    1  A    between atoms: N_5  and  C_25
REMARK    2  A    between atoms: C_10  and  C_18
REMARK    3  A    between atoms: C_18  and  O_19
REMARK    4  A    between atoms: O_19  and  C_20
REMARK    5  A    between atoms: C_20  and  C_22
REMARK    6  A    between atoms: C_22  and  O_23
REMARK    7  A    between atoms: C_25  and  C_27
REMARK    8  A    between atoms: C_27  and  O_28
REMARK                            x       y       z     vdW  Elec       q    Type
REMARK                         _______ _______ _______ _____ _____    ______ ____
ROOT
ATOM      1  S   UNL     1      36.136 -23.165 -14.520  0.00  0.00    +0.080 S 
ATOM      2  O   UNL     1      36.721 -21.865 -14.271  0.00  0.00    -0.150 OA
ATOM      3  O   UNL     1      36.799 -24.207 -15.273  0.00  0.00    -0.150 OA
ATOM      4  O   UNL     1      33.396 -24.298 -12.097  0.00  0.00    -0.268 OA
ATOM      5  N   UNL     1      35.483 -23.805 -13.075  0.00  0.00    -0.145 N 
ATOM      6  C   UNL     1      34.543 -22.933 -15.186  0.00  0.00    +0.136 C 
ATOM      7  C   UNL     1      33.522 -23.340 -14.319  0.00  0.00    +0.074 C 
ATOM      8  C   UNL     1      32.173 -23.217 -14.710  0.00  0.00    +0.006 C 
ATOM      9  C   UNL     1      34.051 -23.874 -13.031  0.00  0.00    +0.269 C 
ATOM     10  C   UNL     1      34.310 -22.405 -16.436  0.00  0.00    +0.095 C 
ATOM     11  C   UNL     1      31.917 -22.672 -16.000  0.00  0.00    +0.000 C 
ATOM     12  C   UNL     1      32.984 -22.277 -16.838  0.00  0.00    +0.008 C 
ATOM     13  C   UNL     1      31.064 -23.592 -13.917  0.00  0.00    +0.000 C 
ATOM     14  C   UNL     1      30.592 -22.526 -16.443  0.00  0.00    +0.000 C 
ATOM     15  C   UNL     1      29.755 -23.437 -14.378  0.00  0.00    +0.000 C 
ATOM     16  C   UNL     1      29.519 -22.905 -15.638  0.00  0.00    +0.000 C 
ENDROOT
BRANCH  10  18
ATOM     17  O   UNL     1      36.522 -21.688 -16.965  0.00  0.00    -0.245 OA
ATOM     18  C   UNL     1      35.376 -21.984 -17.331  0.00  0.00    +0.343 C 
BRANCH  18  19
ATOM     19  O   UNL     1      34.960 -21.958 -18.634  0.00  0.00    -0.433 OA
BRANCH  19  20
ATOM     20  C   UNL     1      35.587 -21.000 -19.494  0.00  0.00    +0.317 C 
BRANCH  20  22
ATOM     21  O   UNL     1      34.741 -19.380 -21.095  0.00  0.00    -0.246 OA
ATOM     22  C   UNL     1      34.537 -20.194 -20.207  0.00  0.00    +0.359 C 
BRANCH  22  23
ATOM     23  O   UNL     1      33.305 -20.496 -19.724  0.00  0.00    -0.478 OA
ATOM     24  H   UNL     1      33.139 -21.343 -19.361  0.00  0.00    +0.295 HD
ENDBRANCH  22  23
ENDBRANCH  20  22
ENDBRANCH  19  20
ENDBRANCH  18  19
ENDBRANCH  10  18
BRANCH   5  25
ATOM     25  C   UNL     1      36.330 -24.253 -11.959  0.00  0.00    +0.228 C 
BRANCH  25  27
ATOM     26  O   UNL     1      36.096 -23.605  -9.653  0.00  0.00    -0.248 OA
ATOM     27  C   UNL     1      36.345 -23.281 -10.807  0.00  0.00    +0.336 C 
BRANCH  27  28
ATOM     28  O   UNL     1      36.659 -22.016 -11.171  0.00  0.00    -0.479 OA
ATOM     29  H   UNL     1      36.190 -21.599 -11.867  0.00  0.00    +0.295 HD
ENDBRANCH  27  28
ENDBRANCH  25  27
ENDBRANCH   5  25
TORSDOF 8
ENDMDL
MODEL 9
REMARK VINA RESULT:      -8.8      2.310      5.113
REMARK  Name = 11494891
REMARK  8 active torsions:
REMARK  status: ('A' for Active; 'I' for Inactive)
REMARK    1  A    between atoms: N_5  and  C_25
REMARK    2  A    between atoms: C_10  and  C_18
REMARK    3  A    between atoms: C_18  and  O_19
REMARK    4  A    between atoms: O_19  and  C_20
REMARK    5  A    between atoms: C_20  and  C_22
REMARK    6  A    between atoms: C_22  and  O_23
REMARK    7  A    between atoms: C_25  and  C_27
REMARK    8  A    between atoms: C_27  and  O_28
REMARK                            x       y       z     vdW  Elec       q    Type
REMARK                         _______ _______ _______ _____ _____    ______ ____
ROOT
ATOM      1  S   UNL     1      35.069 -22.630 -15.487  0.00  0.00    +0.080 S 
ATOM      2  O   UNL     1      35.947 -23.744 -15.772  0.00  0.00    -0.150 OA
ATOM      3  O   UNL     1      35.497 -21.435 -14.793  0.00  0.00    -0.150 OA
ATOM      4  O   UNL     1      31.964 -22.290 -17.702  0.00  0.00    -0.268 OA
ATOM      5  N   UNL     1      34.172 -22.212 -16.882  0.00  0.00    -0.145 N 
ATOM      6  C   UNL     1      33.640 -23.242 -14.701  0.00  0.00    +0.136 C 
ATOM      7  C   UNL     1      32.489 -23.129 -15.490  0.00  0.00    +0.074 C 
ATOM      8  C   UNL     1      31.247 -23.581 -14.998  0.00  0.00    +0.006 C 
ATOM      9  C   UNL     1      32.770 -22.510 -16.817  0.00  0.00    +0.269 C 
ATOM     10  C   UNL     1      33.640 -23.781 -13.433  0.00  0.00    +0.095 C 
ATOM     11  C   UNL     1      31.233 -24.140 -13.688  0.00  0.00    +0.000 C 
ATOM     12  C   UNL     1      32.422 -24.230 -12.932  0.00  0.00    +0.008 C 
ATOM     13  C   UNL     1      30.026 -23.519 -15.706  0.00  0.00    +0.000 C 
ATOM     14  C   UNL     1      30.024 -24.607 -13.146  0.00  0.00    +0.000 C 
ATOM     15  C   UNL     1      28.836 -23.990 -15.147  0.00  0.00    +0.000 C 
ATOM     16  C   UNL     1      28.835 -24.533 -13.869  0.00  0.00    +0.000 C 
ENDROOT
BRANCH  10  18
ATOM     17  O   UNL     1      35.344 -22.959 -11.982  0.00  0.00    -0.245 OA
ATOM     18  C   UNL     1      34.840 -23.894 -12.620  0.00  0.00    +0.343 C 
BRANCH  18  19
ATOM     19  O   UNL     1      35.345 -25.165 -12.641  0.00  0.00    -0.433 OA
BRANCH  19  20
ATOM     20  C   UNL     1      36.740 -25.302 -12.934  0.00  0.00    +0.317 C 
BRANCH  20  22
ATOM     21  O   UNL     1      37.977 -26.936 -14.238  0.00  0.00    -0.246 OA
ATOM     22  C   UNL     1      36.936 -26.343 -14.000  0.00  0.00    +0.359 C 
BRANCH  22  23
ATOM     23  O   UNL     1      35.778 -26.543 -14.679  0.00  0.00    -0.478 OA
ATOM     24  H   UNL     1      35.109 -25.888 -14.666  0.00  0.00    +0.295 HD
ENDBRANCH  22  23
ENDBRANCH  20  22
ENDBRANCH  19  20
ENDBRANCH  18  19
ENDBRANCH  10  18
BRANCH   5  25
ATOM     25  C   UNL     1      34.794 -21.592 -18.062  0.00  0.00    +0.228 C 
BRANCH  25  27
ATOM     26  O   UNL     1      34.123 -23.037 -19.865  0.00  0.00    -0.248 OA
ATOM     27  C   UNL     1      34.081 -21.929 -19.347  0.00  0.00    +0.336 C 
BRANCH  27  28
ATOM     28  O   UNL     1      33.392 -20.889 -19.873  0.00  0.00    -0.479 OA
ATOM     29  H   UNL     1      33.637 -20.010 -19.660  0.00  0.00    +0.295 HD
ENDBRANCH  27  28
ENDBRANCH  25  27
ENDBRANCH   5  25
TORSDOF 8
ENDMDL
