MODEL 1
REMARK VINA RESULT:     -11.4      0.000      0.000
REMARK  Name = 4369451
REMARK  3 active torsions:
REMARK  status: ('A' for Active; 'I' for Inactive)
REMARK    1  A    between atoms: C_1  and  N_11
REMARK    2  A    between atoms: C_3  and  O_22
REMARK    3  A    between atoms: C_4  and  C_16
REMARK                            x       y       z     vdW  Elec       q    Type
REMARK                         _______ _______ _______ _____ _____    ______ ____
ROOT
ATOM      1  C   UNL     1      33.264 -23.717 -15.028  0.00  0.00    +0.104 C 
ATOM      2  C   UNL     1      33.819 -23.026 -16.104  0.00  0.00    +0.019 C 
ATOM      3  C   UNL     1      31.878 -23.770 -14.873  0.00  0.00    +0.153 C 
ATOM      4  C   UNL     1      32.989 -22.388 -17.027  0.00  0.00    +0.001 C 
ATOM      5  C   UNL     1      31.049 -23.132 -15.795  0.00  0.00    +0.038 C 
ATOM      6  C   UNL     1      31.604 -22.442 -16.872  0.00  0.00    +0.003 C 
ENDROOT
BRANCH   1  11
ATOM      7  S   UNL     1      35.659 -24.899 -14.683  0.00  0.00    +0.130 S 
ATOM      8  O   UNL     1      35.505 -26.163 -15.371  0.00  0.00    -0.135 OA
ATOM      9  O   UNL     1      36.375 -23.787 -15.279  0.00  0.00    -0.135 OA
ATOM     10  O   UNL     1      35.706 -24.573 -10.894  0.00  0.00    -0.272 OA
ATOM     11  N   UNL     1      34.132 -24.368 -14.083  0.00  0.00    -0.166 N 
ATOM     12  N   UNL     1      36.242 -25.146 -13.102  0.00  0.00    -0.171 N 
ATOM     13  C   UNL     1      34.223 -23.854 -12.684  0.00  0.00    +0.203 C 
ATOM     14  C   UNL     1      35.433 -24.559 -12.086  0.00  0.00    +0.264 C 
ATOM     15  H   UNL     1      37.065 -25.649 -12.908  0.00  0.00    +0.178 HD
ENDBRANCH   1  11
BRANCH   4  16
ATOM     16  C   UNL     1      33.565 -21.671 -18.144  0.00  0.00    +0.000 C 
ATOM     17  C   UNL     1      32.736 -21.020 -19.057  0.00  0.00    +0.000 C 
ATOM     18  C   UNL     1      34.950 -21.629 -18.306  0.00  0.00    +0.000 C 
ATOM     19  C   UNL     1      33.292 -20.328 -20.132  0.00  0.00    +0.000 C 
ATOM     20  C   UNL     1      35.505 -20.936 -19.380  0.00  0.00    +0.000 C 
ATOM     21  C   UNL     1      34.677 -20.284 -20.295  0.00  0.00    +0.000 C 
ENDBRANCH   4  16
BRANCH   3  22
ATOM     22  O   UNL     1      31.317 -24.440 -13.827  0.00  0.00    -0.470 OA
ATOM     23  C   UNL     1      29.934 -24.768 -13.934  0.00  0.00    +0.253 C 
ENDBRANCH   3  22
TORSDOF 3
ENDMDL
MODEL 2
REMARK VINA RESULT:     -11.3      2.099      3.066
REMARK  Name = 4369451
REMARK  3 active torsions:
REMARK  status: ('A' for Active; 'I' for Inactive)
REMARK    1  A    between atoms: C_1  and  N_11
REMARK    2  A    between atoms: C_3  and  O_22
REMARK    3  A    between atoms: C_4  and  C_16
REMARK                            x       y       z     vdW  Elec       q    Type
REMARK                         _______ _______ _______ _____ _____    ______ ____
ROOT
ATOM      1  C   UNL     1      35.734 -23.854 -14.393  0.00  0.00    +0.104 C 
ATOM      2  C   UNL     1      35.574 -23.261 -15.646  0.00  0.00    +0.019 C 
ATOM      3  C   UNL     1      34.664 -23.896 -13.500  0.00  0.00    +0.153 C 
ATOM      4  C   UNL     1      34.342 -22.711 -16.005  0.00  0.00    +0.001 C 
ATOM      5  C   UNL     1      33.433 -23.347 -13.858  0.00  0.00    +0.038 C 
ATOM      6  C   UNL     1      33.272 -22.755 -15.111  0.00  0.00    +0.003 C 
ENDROOT
BRANCH   1  11
ATOM      7  S   UNL     1      37.158 -26.128 -14.164  0.00  0.00    +0.130 S 
ATOM      8  O   UNL     1      36.584 -26.760 -12.995  0.00  0.00    -0.135 OA
ATOM      9  O   UNL     1      36.824 -26.559 -15.507  0.00  0.00    -0.135 OA
ATOM     10  O   UNL     1      40.569 -24.446 -14.167  0.00  0.00    -0.272 OA
ATOM     11  N   UNL     1      37.010 -24.414 -14.036  0.00  0.00    -0.166 N 
ATOM     12  N   UNL     1      38.853 -26.034 -14.021  0.00  0.00    -0.171 N 
ATOM     13  C   UNL     1      38.266 -23.709 -14.429  0.00  0.00    +0.203 C 
ATOM     14  C   UNL     1      39.378 -24.718 -14.177  0.00  0.00    +0.264 C 
ATOM     15  H   UNL     1      39.419 -26.819 -13.846  0.00  0.00    +0.178 HD
ENDBRANCH   1  11
BRANCH   4  16
ATOM     16  C   UNL     1      34.176 -22.096 -17.304  0.00  0.00    +0.000 C 
ATOM     17  C   UNL     1      32.908 -22.015 -17.879  0.00  0.00    +0.000 C 
ATOM     18  C   UNL     1      35.283 -21.582 -17.979  0.00  0.00    +0.000 C 
ATOM     19  C   UNL     1      32.748 -21.420 -19.131  0.00  0.00    +0.000 C 
ATOM     20  C   UNL     1      35.122 -20.987 -19.230  0.00  0.00    +0.000 C 
ATOM     21  C   UNL     1      33.855 -20.905 -19.806  0.00  0.00    +0.000 C 
ENDBRANCH   4  16
BRANCH   3  22
ATOM     22  O   UNL     1      34.802 -24.471 -12.272  0.00  0.00    -0.470 OA
ATOM     23  C   UNL     1      35.224 -23.625 -11.204  0.00  0.00    +0.253 C 
ENDBRANCH   3  22
TORSDOF 3
ENDMDL
MODEL 3
REMARK VINA RESULT:     -10.7      1.553      2.199
REMARK  Name = 4369451
REMARK  3 active torsions:
REMARK  status: ('A' for Active; 'I' for Inactive)
REMARK    1  A    between atoms: C_1  and  N_11
REMARK    2  A    between atoms: C_3  and  O_22
REMARK    3  A    between atoms: C_4  and  C_16
REMARK                            x       y       z     vdW  Elec       q    Type
REMARK                         _______ _______ _______ _____ _____    ______ ____
ROOT
ATOM      1  C   UNL     1      34.398 -23.463 -15.603  0.00  0.00    +0.104 C 
ATOM      2  C   UNL     1      34.532 -22.698 -16.762  0.00  0.00    +0.019 C 
ATOM      3  C   UNL     1      33.137 -23.668 -15.045  0.00  0.00    +0.153 C 
ATOM      4  C   UNL     1      33.403 -22.138 -17.362  0.00  0.00    +0.001 C 
ATOM      5  C   UNL     1      32.009 -23.109 -15.645  0.00  0.00    +0.038 C 
ATOM      6  C   UNL     1      32.142 -22.344 -16.804  0.00  0.00    +0.003 C 
ENDROOT
BRANCH   1  11
ATOM      7  S   UNL     1      36.322 -23.097 -13.755  0.00  0.00    +0.130 S 
ATOM      8  O   UNL     1      37.160 -22.077 -14.347  0.00  0.00    -0.135 OA
ATOM      9  O   UNL     1      35.363 -22.788 -12.711  0.00  0.00    -0.135 OA
ATOM     10  O   UNL     1      37.333 -26.756 -13.524  0.00  0.00    -0.272 OA
ATOM     11  N   UNL     1      35.571 -24.032 -14.994  0.00  0.00    -0.166 N 
ATOM     12  N   UNL     1      37.262 -24.429 -13.261  0.00  0.00    -0.171 N 
ATOM     13  C   UNL     1      35.619 -25.496 -14.704  0.00  0.00    +0.203 C 
ATOM     14  C   UNL     1      36.830 -25.677 -13.799  0.00  0.00    +0.264 C 
ATOM     15  H   UNL     1      38.034 -24.345 -12.658  0.00  0.00    +0.178 HD
ENDBRANCH   1  11
BRANCH   4  16
ATOM     16  C   UNL     1      33.542 -21.344 -18.564  0.00  0.00    +0.000 C 
ATOM     17  C   UNL     1      34.808 -21.086 -19.087  0.00  0.00    +0.000 C 
ATOM     18  C   UNL     1      32.408 -20.840 -19.200  0.00  0.00    +0.000 C 
ATOM     19  C   UNL     1      34.941 -20.322 -20.247  0.00  0.00    +0.000 C 
ATOM     20  C   UNL     1      32.540 -20.077 -20.360  0.00  0.00    +0.000 C 
ATOM     21  C   UNL     1      33.807 -19.818 -20.884  0.00  0.00    +0.000 C 
ENDBRANCH   4  16
BRANCH   3  22
ATOM     22  O   UNL     1      32.986 -24.413 -13.913  0.00  0.00    -0.470 OA
ATOM     23  C   UNL     1      31.657 -24.596 -13.429  0.00  0.00    +0.253 C 
ENDBRANCH   3  22
TORSDOF 3
ENDMDL
MODEL 4
REMARK VINA RESULT:      -9.7     13.740     16.129
REMARK  Name = 4369451
REMARK  3 active torsions:
REMARK  status: ('A' for Active; 'I' for Inactive)
REMARK    1  A    between atoms: C_1  and  N_11
REMARK    2  A    between atoms: C_3  and  O_22
REMARK    3  A    between atoms: C_4  and  C_16
REMARK                            x       y       z     vdW  Elec       q    Type
REMARK                         _______ _______ _______ _____ _____    ______ ____
ROOT
ATOM      1  C   UNL     1      31.968  -9.306 -22.472  0.00  0.00    +0.104 C 
ATOM      2  C   UNL     1      32.482 -10.443 -23.095  0.00  0.00    +0.019 C 
ATOM      3  C   UNL     1      31.328  -9.417 -21.238  0.00  0.00    +0.153 C 
ATOM      4  C   UNL     1      32.358 -11.691 -22.484  0.00  0.00    +0.001 C 
ATOM      5  C   UNL     1      31.203 -10.664 -20.626  0.00  0.00    +0.038 C 
ATOM      6  C   UNL     1      31.718 -11.801 -21.249  0.00  0.00    +0.003 C 
ENDROOT
BRANCH   1  11
ATOM      7  S   UNL     1      33.662  -7.296 -23.053  0.00  0.00    +0.130 S 
ATOM      8  O   UNL     1      33.849  -6.641 -21.775  0.00  0.00    -0.135 OA
ATOM      9  O   UNL     1      34.658  -8.195 -23.602  0.00  0.00    -0.135 OA
ATOM     10  O   UNL     1      31.567  -5.828 -25.867  0.00  0.00    -0.272 OA
ATOM     11  N   UNL     1      32.102  -8.026 -23.116  0.00  0.00    -0.166 N 
ATOM     12  N   UNL     1      33.227  -6.162 -24.247  0.00  0.00    -0.171 N 
ATOM     13  C   UNL     1      31.414  -7.775 -24.417  0.00  0.00    +0.203 C 
ATOM     14  C   UNL     1      32.021  -6.480 -24.938  0.00  0.00    +0.264 C 
ATOM     15  H   UNL     1      33.759  -5.358 -24.442  0.00  0.00    +0.178 HD
ENDBRANCH   1  11
BRANCH   4  16
ATOM     16  C   UNL     1      32.891 -12.870 -23.130  0.00  0.00    +0.000 C 
ATOM     17  C   UNL     1      33.674 -13.768 -22.405  0.00  0.00    +0.000 C 
ATOM     18  C   UNL     1      32.621 -13.110 -24.477  0.00  0.00    +0.000 C 
ATOM     19  C   UNL     1      34.186 -14.906 -23.028  0.00  0.00    +0.000 C 
ATOM     20  C   UNL     1      33.133 -14.248 -25.099  0.00  0.00    +0.000 C 
ATOM     21  C   UNL     1      33.916 -15.147 -24.375  0.00  0.00    +0.000 C 
ENDBRANCH   4  16
BRANCH   3  22
ATOM     22  O   UNL     1      30.818  -8.318 -20.614  0.00  0.00    -0.470 OA
ATOM     23  C   UNL     1      31.544  -7.811 -19.497  0.00  0.00    +0.253 C 
ENDBRANCH   3  22
TORSDOF 3
ENDMDL
MODEL 5
REMARK VINA RESULT:      -9.3      2.080      4.032
REMARK  Name = 4369451
REMARK  3 active torsions:
REMARK  status: ('A' for Active; 'I' for Inactive)
REMARK    1  A    between atoms: C_1  and  N_11
REMARK    2  A    between atoms: C_3  and  O_22
REMARK    3  A    between atoms: C_4  and  C_16
REMARK                            x       y       z     vdW  Elec       q    Type
REMARK                         _______ _______ _______ _____ _____    ______ ____
ROOT
ATOM      1  C   UNL     1      33.081 -23.362 -15.368  0.00  0.00    +0.104 C 
ATOM      2  C   UNL     1      32.923 -22.638 -16.549  0.00  0.00    +0.019 C 
ATOM      3  C   UNL     1      34.358 -23.601 -14.861  0.00  0.00    +0.153 C 
ATOM      4  C   UNL     1      34.043 -22.150 -17.224  0.00  0.00    +0.001 C 
ATOM      5  C   UNL     1      35.478 -23.114 -15.535  0.00  0.00    +0.038 C 
ATOM      6  C   UNL     1      35.321 -22.388 -16.716  0.00  0.00    +0.003 C 
ENDROOT
BRANCH   1  11
ATOM      7  S   UNL     1      31.236 -22.831 -13.480  0.00  0.00    +0.130 S 
ATOM      8  O   UNL     1      31.980 -22.958 -12.245  0.00  0.00    -0.135 OA
ATOM      9  O   UNL     1      30.917 -21.537 -14.050  0.00  0.00    -0.135 OA
ATOM     10  O   UNL     1      28.712 -25.414 -14.673  0.00  0.00    -0.272 OA
ATOM     11  N   UNL     1      31.917 -23.860 -14.684  0.00  0.00    -0.166 N 
ATOM     12  N   UNL     1      29.816 -23.770 -13.421  0.00  0.00    -0.171 N 
ATOM     13  C   UNL     1      30.871 -24.605 -15.447  0.00  0.00    +0.203 C 
ATOM     14  C   UNL     1      29.682 -24.691 -14.500  0.00  0.00    +0.264 C 
ATOM     15  H   UNL     1      29.147 -23.685 -12.704  0.00  0.00    +0.178 HD
ENDBRANCH   1  11
BRANCH   4  16
ATOM     16  C   UNL     1      33.880 -21.399 -18.449  0.00  0.00    +0.000 C 
ATOM     17  C   UNL     1      32.602 -21.093 -18.915  0.00  0.00    +0.000 C 
ATOM     18  C   UNL     1      35.001 -20.977 -19.163  0.00  0.00    +0.000 C 
ATOM     19  C   UNL     1      32.445 -20.367 -20.095  0.00  0.00    +0.000 C 
ATOM     20  C   UNL     1      34.845 -20.249 -20.342  0.00  0.00    +0.000 C 
ATOM     21  C   UNL     1      33.566 -19.944 -20.809  0.00  0.00    +0.000 C 
ENDBRANCH   4  16
BRANCH   3  22
ATOM     22  O   UNL     1      34.532 -24.307 -13.709  0.00  0.00    -0.470 OA
ATOM     23  C   UNL     1      35.620 -23.922 -12.871  0.00  0.00    +0.253 C 
ENDBRANCH   3  22
TORSDOF 3
ENDMDL
MODEL 6
REMARK VINA RESULT:      -9.2      3.197      6.310
REMARK  Name = 4369451
REMARK  3 active torsions:
REMARK  status: ('A' for Active; 'I' for Inactive)
REMARK    1  A    between atoms: C_1  and  N_11
REMARK    2  A    between atoms: C_3  and  O_22
REMARK    3  A    between atoms: C_4  and  C_16
REMARK                            x       y       z     vdW  Elec       q    Type
REMARK                         _______ _______ _______ _____ _____    ______ ____
ROOT
ATOM      1  C   UNL     1      32.244 -22.921 -15.853  0.00  0.00    +0.104 C 
ATOM      2  C   UNL     1      32.944 -23.135 -14.666  0.00  0.00    +0.019 C 
ATOM      3  C   UNL     1      32.930 -22.554 -17.011  0.00  0.00    +0.153 C 
ATOM      4  C   UNL     1      34.331 -22.983 -14.637  0.00  0.00    +0.001 C 
ATOM      5  C   UNL     1      34.316 -22.402 -16.982  0.00  0.00    +0.038 C 
ATOM      6  C   UNL     1      35.016 -22.617 -15.795  0.00  0.00    +0.003 C 
ENDROOT
BRANCH   1  11
ATOM      7  S   UNL     1      30.110 -23.819 -14.479  0.00  0.00    +0.130 S 
ATOM      8  O   UNL     1      30.241 -25.258 -14.567  0.00  0.00    -0.135 OA
ATOM      9  O   UNL     1      30.481 -23.090 -13.281  0.00  0.00    -0.135 OA
ATOM     10  O   UNL     1      27.526 -21.833 -16.440  0.00  0.00    -0.272 OA
ATOM     11  N   UNL     1      30.814 -23.079 -15.868  0.00  0.00    -0.166 N 
ATOM     12  N   UNL     1      28.549 -23.332 -14.958  0.00  0.00    -0.171 N 
ATOM     13  C   UNL     1      29.954 -21.993 -16.426  0.00  0.00    +0.203 C 
ATOM     14  C   UNL     1      28.538 -22.354 -15.995  0.00  0.00    +0.264 C 
ATOM     15  H   UNL     1      27.728 -23.693 -14.554  0.00  0.00    +0.178 HD
ENDBRANCH   1  11
BRANCH   4  16
ATOM     16  C   UNL     1      35.058 -23.205 -13.406  0.00  0.00    +0.000 C 
ATOM     17  C   UNL     1      34.451 -23.886 -12.352  0.00  0.00    +0.000 C 
ATOM     18  C   UNL     1      36.366 -22.740 -13.275  0.00  0.00    +0.000 C 
ATOM     19  C   UNL     1      35.153 -24.102 -11.166  0.00  0.00    +0.000 C 
ATOM     20  C   UNL     1      37.068 -22.957 -12.090  0.00  0.00    +0.000 C 
ATOM     21  C   UNL     1      36.462 -23.638 -11.034  0.00  0.00    +0.000 C 
ENDBRANCH   4  16
BRANCH   3  22
ATOM     22  O   UNL     1      32.263 -22.340 -18.180  0.00  0.00    -0.470 OA
ATOM     23  C   UNL     1      32.724 -21.270 -19.003  0.00  0.00    +0.253 C 
ENDBRANCH   3  22
TORSDOF 3
ENDMDL
MODEL 7
REMARK VINA RESULT:      -9.1      2.223      3.166
REMARK  Name = 4369451
REMARK  3 active torsions:
REMARK  status: ('A' for Active; 'I' for Inactive)
REMARK    1  A    between atoms: C_1  and  N_11
REMARK    2  A    between atoms: C_3  and  O_22
REMARK    3  A    between atoms: C_4  and  C_16
REMARK                            x       y       z     vdW  Elec       q    Type
REMARK                         _______ _______ _______ _____ _____    ______ ____
ROOT
ATOM      1  C   UNL     1      34.408 -22.012 -17.299  0.00  0.00    +0.104 C 
ATOM      2  C   UNL     1      34.977 -21.171 -18.256  0.00  0.00    +0.019 C 
ATOM      3  C   UNL     1      33.085 -22.431 -17.439  0.00  0.00    +0.153 C 
ATOM      4  C   UNL     1      34.224 -20.751 -19.353  0.00  0.00    +0.001 C 
ATOM      5  C   UNL     1      32.332 -22.012 -18.535  0.00  0.00    +0.038 C 
ATOM      6  C   UNL     1      32.901 -21.172 -19.492  0.00  0.00    +0.003 C 
ENDROOT
BRANCH   1  11
ATOM      7  S   UNL     1      36.820 -21.858 -16.112  0.00  0.00    +0.130 S 
ATOM      8  O   UNL     1      37.662 -22.666 -16.968  0.00  0.00    -0.135 OA
ATOM      9  O   UNL     1      36.838 -20.409 -16.170  0.00  0.00    -0.135 OA
ATOM     10  O   UNL     1      35.631 -22.990 -12.681  0.00  0.00    -0.272 OA
ATOM     11  N   UNL     1      35.196 -22.435 -16.173  0.00  0.00    -0.166 N 
ATOM     12  N   UNL     1      36.977 -22.345 -14.487  0.00  0.00    -0.171 N 
ATOM     13  C   UNL     1      34.572 -22.508 -14.818  0.00  0.00    +0.203 C 
ATOM     14  C   UNL     1      35.742 -22.673 -13.856  0.00  0.00    +0.264 C 
ATOM     15  H   UNL     1      37.844 -22.397 -14.026  0.00  0.00    +0.178 HD
ENDBRANCH   1  11
BRANCH   4  16
ATOM     16  C   UNL     1      34.814 -19.880 -20.345  0.00  0.00    +0.000 C 
ATOM     17  C   UNL     1      34.074 -19.493 -21.462  0.00  0.00    +0.000 C 
ATOM     18  C   UNL     1      36.122 -19.425 -20.184  0.00  0.00    +0.000 C 
ATOM     19  C   UNL     1      34.643 -18.651 -22.418  0.00  0.00    +0.000 C 
ATOM     20  C   UNL     1      36.691 -18.583 -21.138  0.00  0.00    +0.000 C 
ATOM     21  C   UNL     1      35.952 -18.195 -22.256  0.00  0.00    +0.000 C 
ENDBRANCH   4  16
BRANCH   3  22
ATOM     22  O   UNL     1      32.511 -23.252 -16.514  0.00  0.00    -0.470 OA
ATOM     23  C   UNL     1      31.196 -22.915 -16.075  0.00  0.00    +0.253 C 
ENDBRANCH   3  22
TORSDOF 3
ENDMDL
MODEL 8
REMARK VINA RESULT:      -8.7      9.235     12.180
REMARK  Name = 4369451
REMARK  3 active torsions:
REMARK  status: ('A' for Active; 'I' for Inactive)
REMARK    1  A    between atoms: C_1  and  N_11
REMARK    2  A    between atoms: C_3  and  O_22
REMARK    3  A    between atoms: C_4  and  C_16
REMARK                            x       y       z     vdW  Elec       q    Type
REMARK                         _______ _______ _______ _____ _____    ______ ____
ROOT
ATOM      1  C   UNL     1      33.046 -14.313 -22.940  0.00  0.00    +0.104 C 
ATOM      2  C   UNL     1      33.610 -15.351 -22.198  0.00  0.00    +0.019 C 
ATOM      3  C   UNL     1      33.099 -14.342 -24.333  0.00  0.00    +0.153 C 
ATOM      4  C   UNL     1      34.226 -16.420 -22.851  0.00  0.00    +0.001 C 
ATOM      5  C   UNL     1      33.714 -15.410 -24.986  0.00  0.00    +0.038 C 
ATOM      6  C   UNL     1      34.277 -16.449 -24.245  0.00  0.00    +0.003 C 
ENDROOT
BRANCH   1  11
ATOM      7  S   UNL     1      32.609 -13.171 -20.540  0.00  0.00    +0.130 S 
ATOM      8  O   UNL     1      31.663 -14.070 -19.914  0.00  0.00    -0.135 OA
ATOM      9  O   UNL     1      34.018 -13.184 -20.196  0.00  0.00    -0.135 OA
ATOM     10  O   UNL     1      31.654  -9.754 -21.909  0.00  0.00    -0.272 OA
ATOM     11  N   UNL     1      32.416 -13.217 -22.253  0.00  0.00    -0.166 N 
ATOM     12  N   UNL     1      32.042 -11.566 -20.476  0.00  0.00    -0.171 N 
ATOM     13  C   UNL     1      32.438 -11.852 -22.860  0.00  0.00    +0.203 C 
ATOM     14  C   UNL     1      31.979 -10.921 -21.746  0.00  0.00    +0.264 C 
ATOM     15  H   UNL     1      31.779 -11.124 -19.637  0.00  0.00    +0.178 HD
ENDBRANCH   1  11
BRANCH   4  16
ATOM     16  C   UNL     1      34.810 -17.497 -22.083  0.00  0.00    +0.000 C 
ATOM     17  C   UNL     1      36.185 -17.521 -21.848  0.00  0.00    +0.000 C 
ATOM     18  C   UNL     1      33.999 -18.511 -21.574  0.00  0.00    +0.000 C 
ATOM     19  C   UNL     1      36.747 -18.559 -21.105  0.00  0.00    +0.000 C 
ATOM     20  C   UNL     1      34.561 -19.548 -20.830  0.00  0.00    +0.000 C 
ATOM     21  C   UNL     1      35.936 -19.573 -20.595  0.00  0.00    +0.000 C 
ENDBRANCH   4  16
BRANCH   3  22
ATOM     22  O   UNL     1      32.554 -13.337 -25.074  0.00  0.00    -0.470 OA
ATOM     23  C   UNL     1      33.085 -13.135 -26.382  0.00  0.00    +0.253 C 
ENDBRANCH   3  22
TORSDOF 3
ENDMDL
MODEL 9
REMARK VINA RESULT:      -8.6      3.273      4.749
REMARK  Name = 4369451
REMARK  3 active torsions:
REMARK  status: ('A' for Active; 'I' for Inactive)
REMARK    1  A    between atoms: C_1  and  N_11
REMARK    2  A    between atoms: C_3  and  O_22
REMARK    3  A    between atoms: C_4  and  C_16
REMARK                            x       y       z     vdW  Elec       q    Type
REMARK                         _______ _______ _______ _____ _____    ______ ____
ROOT
ATOM      1  C   UNL     1      34.697 -24.014 -13.707  0.00  0.00    +0.104 C 
ATOM      2  C   UNL     1      33.511 -23.981 -14.440  0.00  0.00    +0.019 C 
ATOM      3  C   UNL     1      34.692 -23.656 -12.358  0.00  0.00    +0.153 C 
ATOM      4  C   UNL     1      32.320 -23.592 -13.826  0.00  0.00    +0.001 C 
ATOM      5  C   UNL     1      33.503 -23.267 -11.744  0.00  0.00    +0.038 C 
ATOM      6  C   UNL     1      32.317 -23.235 -12.477  0.00  0.00    +0.003 C 
ENDROOT
BRANCH   1  11
ATOM      7  S   UNL     1      36.933 -23.147 -14.932  0.00  0.00    +0.130 S 
ATOM      8  O   UNL     1      36.446 -22.668 -16.208  0.00  0.00    -0.135 OA
ATOM      9  O   UNL     1      37.261 -22.238 -13.850  0.00  0.00    -0.135 OA
ATOM     10  O   UNL     1      38.878 -26.389 -14.520  0.00  0.00    -0.272 OA
ATOM     11  N   UNL     1      35.917 -24.415 -14.354  0.00  0.00    -0.166 N 
ATOM     12  N   UNL     1      38.229 -24.229 -15.154  0.00  0.00    -0.171 N 
ATOM     13  C   UNL     1      36.702 -25.563 -13.810  0.00  0.00    +0.203 C 
ATOM     14  C   UNL     1      38.044 -25.495 -14.527  0.00  0.00    +0.264 C 
ATOM     15  H   UNL     1      39.035 -24.000 -15.671  0.00  0.00    +0.178 HD
ENDBRANCH   1  11
BRANCH   4  16
ATOM     16  C   UNL     1      31.090 -23.558 -14.586  0.00  0.00    +0.000 C 
ATOM     17  C   UNL     1      30.881 -22.554 -15.530  0.00  0.00    +0.000 C 
ATOM     18  C   UNL     1      30.115 -24.533 -14.378  0.00  0.00    +0.000 C 
ATOM     19  C   UNL     1      29.696 -22.523 -16.265  0.00  0.00    +0.000 C 
ATOM     20  C   UNL     1      28.930 -24.503 -15.113  0.00  0.00    +0.000 C 
ATOM     21  C   UNL     1      28.720 -23.498 -16.057  0.00  0.00    +0.000 C 
ENDBRANCH   4  16
BRANCH   3  22
ATOM     22  O   UNL     1      35.841 -23.681 -11.625  0.00  0.00    -0.470 OA
ATOM     23  C   UNL     1      35.704 -23.695 -10.206  0.00  0.00    +0.253 C 
ENDBRANCH   3  22
TORSDOF 3
ENDMDL
