MODEL 1
REMARK VINA RESULT:     -11.1      0.000      0.000
REMARK  Name = 6450546
REMARK  5 active torsions:
REMARK  status: ('A' for Active; 'I' for Inactive)
REMARK    1  A    between atoms: C_6  and  C_17
REMARK    2  A    between atoms: CA_7  and  C_14
REMARK    3  A    between atoms: C_14  and  O_15
REMARK    4  A    between atoms: C_18  and  C_21
REMARK    5  A    between atoms: N_20  and  C_23
REMARK                            x       y       z     vdW  Elec       q    Type
REMARK                         _______ _______ _______ _____ _____    ______ ____
ROOT
ATOM      1 CL   UNL     1      36.966 -22.109 -16.572  0.00  0.00    -0.082 Cl
ATOM      2 CL   UNL     1      38.233 -25.346 -12.437  0.00  0.00    -0.082 Cl
ATOM      3  N   UNL     1      33.376 -24.122 -13.890  0.00  0.00    -0.348 N 
ATOM      4  C   UNL     1      35.123 -23.292 -15.003  0.00  0.00    +0.028 A 
ATOM      5  C   UNL     1      34.752 -24.114 -13.936  0.00  0.00    +0.058 A 
ATOM      6  C   UNL     1      33.923 -22.810 -15.594  0.00  0.00    +0.024 A 
ATOM      7  CA  UNL     1      32.866 -23.337 -14.888  0.00  0.00    +0.133 A 
ATOM      8  C   UNL     1      36.494 -23.110 -15.273  0.00  0.00    +0.060 C 
ATOM      9  C   UNL     1      35.687 -24.764 -13.122  0.00  0.00    +0.028 C 
ATOM     10  C   UNL     1      37.440 -23.753 -14.467  0.00  0.00    +0.023 C 
ATOM     11  C   UNL     1      37.040 -24.567 -13.410  0.00  0.00    +0.060 C 
ATOM     12  H   UNL     1      32.837 -24.621 -13.234  0.00  0.00    +0.166 HD
ENDROOT
BRANCH   7  14
ATOM     13  OXT UNL     1      30.709 -23.836 -15.805  0.00  0.00    -0.243 OA
ATOM     14  C   UNL     1      31.460 -23.154 -15.089  0.00  0.00    +0.354 C 
BRANCH  14  15
ATOM     15  O   UNL     1      30.955 -22.093 -14.382  0.00  0.00    -0.476 OA
ATOM     16  H   UNL     1      30.046 -21.871 -14.456  0.00  0.00    +0.295 HD
ENDBRANCH  14  15
ENDBRANCH   7  14
BRANCH   6  17
ATOM     17  C   UNL     1      33.765 -21.945 -16.705  0.00  0.00    +0.006 C 
ATOM     18  C   UNL     1      33.426 -22.269 -17.982  0.00  0.00    +0.058 C 
BRANCH  18  21
ATOM     19  O   UNL     1      32.206 -20.827 -19.425  0.00  0.00    -0.270 OA
ATOM     20  N   UNL     1      34.553 -20.807 -19.482  0.00  0.00    -0.280 N 
ATOM     21  C   UNL     1      33.302 -21.221 -19.044  0.00  0.00    +0.250 C 
ATOM     22  H   UNL     1      35.329 -21.238 -19.057  0.00  0.00    +0.155 HD
BRANCH  20  23
ATOM     23  C   UNL     1      34.837 -19.834 -20.472  0.00  0.00    +0.051 C 
ATOM     24  C   UNL     1      36.065 -19.196 -20.459  0.00  0.00    +0.015 C 
ATOM     25  C   UNL     1      33.881 -19.545 -21.431  0.00  0.00    +0.015 C 
ATOM     26  C   UNL     1      36.346 -18.237 -21.433  0.00  0.00    +0.001 C 
ATOM     27  C   UNL     1      34.161 -18.587 -22.405  0.00  0.00    +0.001 C 
ATOM     28  C   UNL     1      35.394 -17.934 -22.406  0.00  0.00    +0.000 C 
ENDBRANCH  20  23
ENDBRANCH  18  21
ENDBRANCH   6  17
TORSDOF 5
ENDMDL
MODEL 2
REMARK VINA RESULT:     -11.1      8.825     12.310
REMARK  Name = 6450546
REMARK  5 active torsions:
REMARK  status: ('A' for Active; 'I' for Inactive)
REMARK    1  A    between atoms: C_6  and  C_17
REMARK    2  A    between atoms: CA_7  and  C_14
REMARK    3  A    between atoms: C_14  and  O_15
REMARK    4  A    between atoms: C_18  and  C_21
REMARK    5  A    between atoms: N_20  and  C_23
REMARK                            x       y       z     vdW  Elec       q    Type
REMARK                         _______ _______ _______ _____ _____    ______ ____
ROOT
ATOM      1 CL   UNL     1      33.860 -13.861 -20.285  0.00  0.00    -0.082 Cl
ATOM      2 CL   UNL     1      35.387 -18.912 -21.446  0.00  0.00    -0.082 Cl
ATOM      3  N   UNL     1      33.669 -15.436 -24.935  0.00  0.00    -0.348 N 
ATOM      4  C   UNL     1      33.818 -14.882 -22.778  0.00  0.00    +0.028 A 
ATOM      5  C   UNL     1      34.025 -15.916 -23.694  0.00  0.00    +0.058 A 
ATOM      6  C   UNL     1      33.327 -13.767 -23.513  0.00  0.00    +0.024 A 
ATOM      7  CA  UNL     1      33.247 -14.138 -24.835  0.00  0.00    +0.133 A 
ATOM      8  C   UNL     1      34.107 -15.113 -21.419  0.00  0.00    +0.060 C 
ATOM      9  C   UNL     1      34.509 -17.174 -23.317  0.00  0.00    +0.028 C 
ATOM     10  C   UNL     1      34.591 -16.366 -21.027  0.00  0.00    +0.023 C 
ATOM     11  C   UNL     1      34.788 -17.379 -21.963  0.00  0.00    +0.060 C 
ATOM     12  H   UNL     1      33.714 -15.952 -25.772  0.00  0.00    +0.166 HD
ENDROOT
BRANCH   7  14
ATOM     13  OXT UNL     1      33.521 -12.920 -26.881  0.00  0.00    -0.243 OA
ATOM     14  C   UNL     1      32.814 -13.374 -25.966  0.00  0.00    +0.354 C 
BRANCH  14  15
ATOM     15  O   UNL     1      31.460 -13.161 -25.977  0.00  0.00    -0.476 OA
ATOM     16  H   UNL     1      31.116 -12.349 -26.298  0.00  0.00    +0.295 HD
ENDBRANCH  14  15
ENDBRANCH   7  14
BRANCH   6  17
ATOM     17  C   UNL     1      32.967 -12.482 -23.040  0.00  0.00    +0.006 C 
ATOM     18  C   UNL     1      31.805 -12.100 -22.443  0.00  0.00    +0.058 C 
BRANCH  18  21
ATOM     19  O   UNL     1      31.116 -10.430 -20.897  0.00  0.00    -0.270 OA
ATOM     20  N   UNL     1      31.983  -9.790 -22.983  0.00  0.00    -0.280 N 
ATOM     21  C   UNL     1      31.586 -10.687 -21.999  0.00  0.00    +0.250 C 
ATOM     22  H   UNL     1      32.342 -10.182 -23.811  0.00  0.00    +0.155 HD
BRANCH  20  23
ATOM     23  C   UNL     1      31.929  -8.375 -22.927  0.00  0.00    +0.051 C 
ATOM     24  C   UNL     1      33.106  -7.660 -22.793  0.00  0.00    +0.015 C 
ATOM     25  C   UNL     1      30.701  -7.741 -23.008  0.00  0.00    +0.015 C 
ATOM     26  C   UNL     1      33.054  -6.266 -22.737  0.00  0.00    +0.001 C 
ATOM     27  C   UNL     1      30.649  -6.348 -22.952  0.00  0.00    +0.001 C 
ATOM     28  C   UNL     1      31.825  -5.612 -22.818  0.00  0.00    +0.000 C 
ENDBRANCH  20  23
ENDBRANCH  18  21
ENDBRANCH   6  17
TORSDOF 5
ENDMDL
MODEL 3
REMARK VINA RESULT:     -11.0      1.509      2.058
REMARK  Name = 6450546
REMARK  5 active torsions:
REMARK  status: ('A' for Active; 'I' for Inactive)
REMARK    1  A    between atoms: C_6  and  C_17
REMARK    2  A    between atoms: CA_7  and  C_14
REMARK    3  A    between atoms: C_14  and  O_15
REMARK    4  A    between atoms: C_18  and  C_21
REMARK    5  A    between atoms: N_20  and  C_23
REMARK                            x       y       z     vdW  Elec       q    Type
REMARK                         _______ _______ _______ _____ _____    ______ ____
ROOT
ATOM      1 CL   UNL     1      37.777 -21.847 -16.212  0.00  0.00    -0.082 Cl
ATOM      2 CL   UNL     1      37.099 -25.706 -12.493  0.00  0.00    -0.082 Cl
ATOM      3  N   UNL     1      33.308 -23.756 -15.497  0.00  0.00    -0.348 N 
ATOM      4  C   UNL     1      35.398 -22.999 -15.694  0.00  0.00    +0.028 A 
ATOM      5  C   UNL     1      34.585 -23.901 -15.003  0.00  0.00    +0.058 A 
ATOM      6  C   UNL     1      34.564 -22.310 -16.619  0.00  0.00    +0.024 A 
ATOM      7  CA  UNL     1      33.286 -22.797 -16.473  0.00  0.00    +0.133 A 
ATOM      8  C   UNL     1      36.770 -22.943 -15.378  0.00  0.00    +0.060 C 
ATOM      9  C   UNL     1      35.078 -24.752 -14.008  0.00  0.00    +0.028 C 
ATOM     10  C   UNL     1      37.276 -23.788 -14.385  0.00  0.00    +0.023 C 
ATOM     11  C   UNL     1      36.442 -24.678 -13.712  0.00  0.00    +0.060 C 
ATOM     12  H   UNL     1      32.525 -24.269 -15.192  0.00  0.00    +0.166 HD
ENDROOT
BRANCH   7  14
ATOM     13  OXT UNL     1      31.994 -22.065 -18.355  0.00  0.00    -0.243 OA
ATOM     14  C   UNL     1      32.091 -22.430 -17.172  0.00  0.00    +0.354 C 
BRANCH  14  15
ATOM     15  O   UNL     1      30.968 -22.515 -16.388  0.00  0.00    -0.476 OA
ATOM     16  H   UNL     1      30.255 -21.922 -16.525  0.00  0.00    +0.295 HD
ENDBRANCH  14  15
ENDBRANCH   7  14
BRANCH   6  17
ATOM     17  C   UNL     1      34.913 -21.300 -17.547  0.00  0.00    +0.006 C 
ATOM     18  C   UNL     1      35.098 -21.418 -18.890  0.00  0.00    +0.058 C 
BRANCH  18  21
ATOM     19  O   UNL     1      36.563 -19.698 -19.629  0.00  0.00    -0.270 OA
ATOM     20  N   UNL     1      34.427 -19.889 -20.584  0.00  0.00    -0.280 N 
ATOM     21  C   UNL     1      35.467 -20.236 -19.732  0.00  0.00    +0.250 C 
ATOM     22  H   UNL     1      33.614 -20.441 -20.529  0.00  0.00    +0.155 HD
BRANCH  20  23
ATOM     23  C   UNL     1      34.406 -18.830 -21.525  0.00  0.00    +0.051 C 
ATOM     24  C   UNL     1      33.949 -19.076 -22.808  0.00  0.00    +0.015 C 
ATOM     25  C   UNL     1      34.842 -17.574 -21.141  0.00  0.00    +0.015 C 
ATOM     26  C   UNL     1      33.927 -18.034 -23.736  0.00  0.00    +0.001 C 
ATOM     27  C   UNL     1      34.821 -16.532 -22.067  0.00  0.00    +0.001 C 
ATOM     28  C   UNL     1      34.363 -16.762 -23.364  0.00  0.00    +0.000 C 
ENDBRANCH  20  23
ENDBRANCH  18  21
ENDBRANCH   6  17
TORSDOF 5
ENDMDL
MODEL 4
REMARK VINA RESULT:     -10.9      3.018      4.228
REMARK  Name = 6450546
REMARK  5 active torsions:
REMARK  status: ('A' for Active; 'I' for Inactive)
REMARK    1  A    between atoms: C_6  and  C_17
REMARK    2  A    between atoms: CA_7  and  C_14
REMARK    3  A    between atoms: C_14  and  O_15
REMARK    4  A    between atoms: C_18  and  C_21
REMARK    5  A    between atoms: N_20  and  C_23
REMARK                            x       y       z     vdW  Elec       q    Type
REMARK                         _______ _______ _______ _____ _____    ______ ____
ROOT
ATOM      1 CL   UNL     1      31.545 -21.860 -17.307  0.00  0.00    -0.082 Cl
ATOM      2 CL   UNL     1      28.514 -24.897 -14.025  0.00  0.00    -0.082 Cl
ATOM      3  N   UNL     1      33.708 -24.499 -13.772  0.00  0.00    -0.348 N 
ATOM      4  C   UNL     1      32.569 -23.365 -15.320  0.00  0.00    +0.028 A 
ATOM      5  C   UNL     1      32.440 -24.254 -14.251  0.00  0.00    +0.058 A 
ATOM      6  C   UNL     1      33.956 -23.084 -15.464  0.00  0.00    +0.024 A 
ATOM      7  CA  UNL     1      34.630 -23.796 -14.499  0.00  0.00    +0.133 A 
ATOM      8  C   UNL     1      31.406 -22.946 -15.998  0.00  0.00    +0.060 C 
ATOM      9  C   UNL     1      31.202 -24.748 -13.824  0.00  0.00    +0.028 C 
ATOM     10  C   UNL     1      30.162 -23.432 -15.582  0.00  0.00    +0.023 C 
ATOM     11  C   UNL     1      30.064 -24.318 -14.512  0.00  0.00    +0.060 C 
ATOM     12  H   UNL     1      33.919 -25.092 -13.016  0.00  0.00    +0.166 HD
ENDROOT
BRANCH   7  14
ATOM     13  OXT UNL     1      36.654 -23.244 -13.340  0.00  0.00    -0.243 OA
ATOM     14  C   UNL     1      36.035 -23.852 -14.229  0.00  0.00    +0.354 C 
BRANCH  14  15
ATOM     15  O   UNL     1      36.708 -24.688 -15.082  0.00  0.00    -0.476 OA
ATOM     16  H   UNL     1      37.173 -25.429 -14.742  0.00  0.00    +0.295 HD
ENDBRANCH  14  15
ENDBRANCH   7  14
BRANCH   6  17
ATOM     17  C   UNL     1      34.599 -22.241 -16.403  0.00  0.00    +0.006 C 
ATOM     18  C   UNL     1      34.474 -22.241 -17.758  0.00  0.00    +0.058 C 
BRANCH  18  21
ATOM     19  O   UNL     1      36.423 -21.052 -18.419  0.00  0.00    -0.270 OA
ATOM     20  N   UNL     1      34.410 -20.712 -19.578  0.00  0.00    -0.280 N 
ATOM     21  C   UNL     1      35.233 -21.272 -18.609  0.00  0.00    +0.250 C 
ATOM     22  H   UNL     1      33.472 -21.011 -19.581  0.00  0.00    +0.155 HD
BRANCH  20  23
ATOM     23  C   UNL     1      34.769 -19.758 -20.562  0.00  0.00    +0.051 C 
ATOM     24  C   UNL     1      33.864 -19.446 -21.562  0.00  0.00    +0.015 C 
ATOM     25  C   UNL     1      36.016 -19.159 -20.502  0.00  0.00    +0.015 C 
ATOM     26  C   UNL     1      34.217 -18.508 -22.533  0.00  0.00    +0.001 C 
ATOM     27  C   UNL     1      36.369 -18.220 -21.471  0.00  0.00    +0.001 C 
ATOM     28  C   UNL     1      35.469 -17.895 -22.486  0.00  0.00    +0.000 C 
ENDBRANCH  20  23
ENDBRANCH  18  21
ENDBRANCH   6  17
TORSDOF 5
ENDMDL
MODEL 5
REMARK VINA RESULT:     -10.8      3.075      4.019
REMARK  Name = 6450546
REMARK  5 active torsions:
REMARK  status: ('A' for Active; 'I' for Inactive)
REMARK    1  A    between atoms: C_6  and  C_17
REMARK    2  A    between atoms: CA_7  and  C_14
REMARK    3  A    between atoms: C_14  and  O_15
REMARK    4  A    between atoms: C_18  and  C_21
REMARK    5  A    between atoms: N_20  and  C_23
REMARK                            x       y       z     vdW  Elec       q    Type
REMARK                         _______ _______ _______ _____ _____    ______ ____
ROOT
ATOM      1 CL   UNL     1      31.723 -21.837 -17.615  0.00  0.00    -0.082 Cl
ATOM      2 CL   UNL     1      29.194 -24.669 -13.772  0.00  0.00    -0.082 Cl
ATOM      3  N   UNL     1      34.351 -23.933 -14.032  0.00  0.00    -0.348 N 
ATOM      4  C   UNL     1      33.011 -23.048 -15.582  0.00  0.00    +0.028 A 
ATOM      5  C   UNL     1      33.033 -23.820 -14.418  0.00  0.00    +0.058 A 
ATOM      6  C   UNL     1      34.358 -22.702 -15.879  0.00  0.00    +0.024 A 
ATOM      7  CA  UNL     1      35.158 -23.261 -14.909  0.00  0.00    +0.133 A 
ATOM      8  C   UNL     1      31.770 -22.778 -16.192  0.00  0.00    +0.060 C 
ATOM      9  C   UNL     1      31.872 -24.337 -13.831  0.00  0.00    +0.028 C 
ATOM     10  C   UNL     1      30.601 -23.289 -15.617  0.00  0.00    +0.023 C 
ATOM     11  C   UNL     1      30.654 -24.056 -14.455  0.00  0.00    +0.060 C 
ATOM     12  H   UNL     1      34.665 -24.425 -13.239  0.00  0.00    +0.166 HD
ENDROOT
BRANCH   7  14
ATOM     13  OXT UNL     1      37.253 -22.251 -14.327  0.00  0.00    -0.243 OA
ATOM     14  C   UNL     1      36.581 -23.201 -14.763  0.00  0.00    +0.354 C 
BRANCH  14  15
ATOM     15  O   UNL     1      37.206 -24.354 -15.165  0.00  0.00    -0.476 OA
ATOM     16  H   UNL     1      36.899 -24.813 -15.923  0.00  0.00    +0.295 HD
ENDBRANCH  14  15
ENDBRANCH   7  14
BRANCH   6  17
ATOM     17  C   UNL     1      34.860 -21.931 -16.955  0.00  0.00    +0.006 C 
ATOM     18  C   UNL     1      34.476 -21.957 -18.260  0.00  0.00    +0.058 C 
BRANCH  18  21
ATOM     19  O   UNL     1      36.329 -21.072 -19.458  0.00  0.00    -0.270 OA
ATOM     20  N   UNL     1      34.165 -20.293 -19.931  0.00  0.00    -0.280 N 
ATOM     21  C   UNL     1      35.117 -21.066 -19.278  0.00  0.00    +0.250 C 
ATOM     22  H   UNL     1      33.230 -20.424 -19.653  0.00  0.00    +0.155 HD
BRANCH  20  23
ATOM     23  C   UNL     1      34.390 -19.337 -20.953  0.00  0.00    +0.051 C 
ATOM     24  C   UNL     1      35.344 -18.353 -20.758  0.00  0.00    +0.015 C 
ATOM     25  C   UNL     1      33.651 -19.408 -22.121  0.00  0.00    +0.015 C 
ATOM     26  C   UNL     1      35.565 -17.411 -21.763  0.00  0.00    +0.001 C 
ATOM     27  C   UNL     1      33.872 -18.467 -23.126  0.00  0.00    +0.001 C 
ATOM     28  C   UNL     1      34.830 -17.469 -22.947  0.00  0.00    +0.000 C 
ENDBRANCH  20  23
ENDBRANCH  18  21
ENDBRANCH   6  17
TORSDOF 5
ENDMDL
MODEL 6
REMARK VINA RESULT:     -10.6      6.656     11.569
REMARK  Name = 6450546
REMARK  5 active torsions:
REMARK  status: ('A' for Active; 'I' for Inactive)
REMARK    1  A    between atoms: C_6  and  C_17
REMARK    2  A    between atoms: CA_7  and  C_14
REMARK    3  A    between atoms: C_14  and  O_15
REMARK    4  A    between atoms: C_18  and  C_21
REMARK    5  A    between atoms: N_20  and  C_23
REMARK                            x       y       z     vdW  Elec       q    Type
REMARK                         _______ _______ _______ _____ _____    ______ ____
ROOT
ATOM      1 CL   UNL     1      32.594 -14.274 -19.899  0.00  0.00    -0.082 Cl
ATOM      2 CL   UNL     1      30.972  -9.121 -19.926  0.00  0.00    -0.082 Cl
ATOM      3  N   UNL     1      32.334 -11.845 -24.160  0.00  0.00    -0.348 N 
ATOM      4  C   UNL     1      32.395 -12.799 -22.144  0.00  0.00    +0.028 A 
ATOM      5  C   UNL     1      32.102 -11.614 -22.823  0.00  0.00    +0.058 A 
ATOM      6  C   UNL     1      32.809 -13.747 -23.121  0.00  0.00    +0.024 A 
ATOM      7  CA  UNL     1      32.761 -13.131 -24.350  0.00  0.00    +0.133 A 
ATOM      8  C   UNL     1      32.240 -12.835 -20.744  0.00  0.00    +0.060 C 
ATOM      9  C   UNL     1      31.660 -10.458 -22.168  0.00  0.00    +0.028 C 
ATOM     10  C   UNL     1      31.799 -11.687 -20.077  0.00  0.00    +0.023 C 
ATOM     11  C   UNL     1      31.514 -10.518 -20.780  0.00  0.00    +0.060 C 
ATOM     12  H   UNL     1      32.209 -11.180 -24.876  0.00  0.00    +0.166 HD
ENDROOT
BRANCH   7  14
ATOM     13  OXT UNL     1      33.336 -14.841 -25.928  0.00  0.00    -0.243 OA
ATOM     14  C   UNL     1      33.080 -13.659 -25.642  0.00  0.00    +0.354 C 
BRANCH  14  15
ATOM     15  O   UNL     1      33.085 -12.701 -26.623  0.00  0.00    -0.476 OA
ATOM     16  H   UNL     1      33.722 -12.737 -27.310  0.00  0.00    +0.295 HD
ENDBRANCH  14  15
ENDBRANCH   7  14
BRANCH   6  17
ATOM     17  C   UNL     1      33.211 -15.092 -22.938  0.00  0.00    +0.006 C 
ATOM     18  C   UNL     1      34.456 -15.569 -22.666  0.00  0.00    +0.058 C 
BRANCH  18  21
ATOM     19  O   UNL     1      35.031 -17.738 -23.451  0.00  0.00    -0.270 OA
ATOM     20  N   UNL     1      34.528 -17.425 -21.180  0.00  0.00    -0.280 N 
ATOM     21  C   UNL     1      34.709 -17.035 -22.500  0.00  0.00    +0.250 C 
ATOM     22  H   UNL     1      34.268 -16.716 -20.547  0.00  0.00    +0.155 HD
BRANCH  20  23
ATOM     23  C   UNL     1      34.677 -18.726 -20.640  0.00  0.00    +0.051 C 
ATOM     24  C   UNL     1      33.555 -19.520 -20.474  0.00  0.00    +0.015 C 
ATOM     25  C   UNL     1      35.939 -19.175 -20.292  0.00  0.00    +0.015 C 
ATOM     26  C   UNL     1      33.700 -20.802 -19.943  0.00  0.00    +0.001 C 
ATOM     27  C   UNL     1      36.085 -20.456 -19.761  0.00  0.00    +0.001 C 
ATOM     28  C   UNL     1      34.965 -21.270 -19.587  0.00  0.00    +0.000 C 
ENDBRANCH  20  23
ENDBRANCH  18  21
ENDBRANCH   6  17
TORSDOF 5
ENDMDL
MODEL 7
REMARK VINA RESULT:     -10.5      2.438      7.246
REMARK  Name = 6450546
REMARK  5 active torsions:
REMARK  status: ('A' for Active; 'I' for Inactive)
REMARK    1  A    between atoms: C_6  and  C_17
REMARK    2  A    between atoms: CA_7  and  C_14
REMARK    3  A    between atoms: C_14  and  O_15
REMARK    4  A    between atoms: C_18  and  C_21
REMARK    5  A    between atoms: N_20  and  C_23
REMARK                            x       y       z     vdW  Elec       q    Type
REMARK                         _______ _______ _______ _____ _____    ______ ____
ROOT
ATOM      1 CL   UNL     1      36.406 -21.384 -18.408  0.00  0.00    -0.082 Cl
ATOM      2 CL   UNL     1      33.739 -18.885 -22.386  0.00  0.00    -0.082 Cl
ATOM      3  N   UNL     1      31.494 -21.454 -18.441  0.00  0.00    -0.348 N 
ATOM      4  C   UNL     1      33.718 -21.326 -18.576  0.00  0.00    +0.028 A 
ATOM      5  C   UNL     1      32.526 -20.948 -19.199  0.00  0.00    +0.058 A 
ATOM      6  C   UNL     1      33.364 -22.073 -17.418  0.00  0.00    +0.024 A 
ATOM      7  CA  UNL     1      31.991 -22.135 -17.363  0.00  0.00    +0.133 A 
ATOM      8  C   UNL     1      34.941 -20.932 -19.156  0.00  0.00    +0.060 C 
ATOM      9  C   UNL     1      32.496 -20.194 -20.378  0.00  0.00    +0.028 C 
ATOM     10  C   UNL     1      34.926 -20.178 -20.334  0.00  0.00    +0.023 C 
ATOM     11  C   UNL     1      33.721 -19.815 -20.934  0.00  0.00    +0.060 C 
ATOM     12  H   UNL     1      30.538 -21.340 -18.645  0.00  0.00    +0.166 HD
ENDROOT
BRANCH   7  14
ATOM     13  OXT UNL     1      31.503 -23.538 -15.482  0.00  0.00    -0.243 OA
ATOM     14  C   UNL     1      31.151 -22.771 -16.393  0.00  0.00    +0.354 C 
BRANCH  14  15
ATOM     15  O   UNL     1      29.826 -22.450 -16.544  0.00  0.00    -0.476 OA
ATOM     16  H   UNL     1      29.421 -22.521 -17.387  0.00  0.00    +0.295 HD
ENDBRANCH  14  15
ENDBRANCH   7  14
BRANCH   6  17
ATOM     17  C   UNL     1      34.212 -22.674 -16.456  0.00  0.00    +0.006 C 
ATOM     18  C   UNL     1      34.713 -22.124 -15.317  0.00  0.00    +0.058 C 
BRANCH  18  21
ATOM     19  O   UNL     1      35.319 -23.068 -13.221  0.00  0.00    -0.270 OA
ATOM     20  N   UNL     1      36.719 -23.380 -15.079  0.00  0.00    -0.280 N 
ATOM     21  C   UNL     1      35.603 -22.906 -14.402  0.00  0.00    +0.250 C 
ATOM     22  H   UNL     1      36.781 -23.150 -16.034  0.00  0.00    +0.155 HD
BRANCH  20  23
ATOM     23  C   UNL     1      37.779 -24.156 -14.549  0.00  0.00    +0.051 C 
ATOM     24  C   UNL     1      37.551 -24.934 -13.427  0.00  0.00    +0.015 C 
ATOM     25  C   UNL     1      39.018 -24.121 -15.165  0.00  0.00    +0.015 C 
ATOM     26  C   UNL     1      38.594 -25.699 -12.904  0.00  0.00    +0.001 C 
ATOM     27  C   UNL     1      40.062 -24.885 -14.643  0.00  0.00    +0.001 C 
ATOM     28  C   UNL     1      39.849 -25.675 -13.513  0.00  0.00    +0.000 C 
ENDBRANCH  20  23
ENDBRANCH  18  21
ENDBRANCH   6  17
TORSDOF 5
ENDMDL
MODEL 8
REMARK VINA RESULT:      -9.8     12.406     16.873
REMARK  Name = 6450546
REMARK  5 active torsions:
REMARK  status: ('A' for Active; 'I' for Inactive)
REMARK    1  A    between atoms: C_6  and  C_17
REMARK    2  A    between atoms: CA_7  and  C_14
REMARK    3  A    between atoms: C_14  and  O_15
REMARK    4  A    between atoms: C_18  and  C_21
REMARK    5  A    between atoms: N_20  and  C_23
REMARK                            x       y       z     vdW  Elec       q    Type
REMARK                         _______ _______ _______ _____ _____    ______ ____
ROOT
ATOM      1 CL   UNL     1      30.988  -7.177 -25.395  0.00  0.00    -0.082 Cl
ATOM      2 CL   UNL     1      31.251  -1.786 -25.621  0.00  0.00    -0.082 Cl
ATOM      3  N   UNL     1      31.805  -4.622 -21.279  0.00  0.00    -0.348 N 
ATOM      4  C   UNL     1      31.429  -5.627 -23.236  0.00  0.00    +0.028 A 
ATOM      5  C   UNL     1      31.599  -4.385 -22.620  0.00  0.00    +0.058 A 
ATOM      6  C   UNL     1      31.541  -6.615 -22.219  0.00  0.00    +0.024 A 
ATOM      7  CA  UNL     1      31.772  -5.967 -21.028  0.00  0.00    +0.133 A 
ATOM      8  C   UNL     1      31.198  -5.668 -24.625  0.00  0.00    +0.060 C 
ATOM      9  C   UNL     1      31.550  -3.178 -23.327  0.00  0.00    +0.028 C 
ATOM     10  C   UNL     1      31.146  -4.469 -25.345  0.00  0.00    +0.023 C 
ATOM     11  C   UNL     1      31.320  -3.245 -24.704  0.00  0.00    +0.060 C 
ATOM     12  H   UNL     1      31.956  -3.925 -20.601  0.00  0.00    +0.166 HD
ENDROOT
BRANCH   7  14
ATOM     13  OXT UNL     1      31.201  -7.296 -19.117  0.00  0.00    -0.243 OA
ATOM     14  C   UNL     1      31.958  -6.516 -19.719  0.00  0.00    +0.354 C 
BRANCH  14  15
ATOM     15  O   UNL     1      33.118  -6.093 -19.123  0.00  0.00    -0.476 OA
ATOM     16  H   UNL     1      33.085  -5.627 -18.309  0.00  0.00    +0.295 HD
ENDBRANCH  14  15
ENDBRANCH   7  14
BRANCH   6  17
ATOM     17  C   UNL     1      31.444  -8.023 -22.335  0.00  0.00    +0.006 C 
ATOM     18  C   UNL     1      32.431  -8.913 -22.630  0.00  0.00    +0.058 C 
BRANCH  18  21
ATOM     19  O   UNL     1      31.098 -10.856 -22.310  0.00  0.00    -0.270 OA
ATOM     20  N   UNL     1      33.224 -11.057 -23.286  0.00  0.00    -0.280 N 
ATOM     21  C   UNL     1      32.154 -10.382 -22.713  0.00  0.00    +0.250 C 
ATOM     22  H   UNL     1      33.996 -10.507 -23.553  0.00  0.00    +0.155 HD
BRANCH  20  23
ATOM     23  C   UNL     1      33.330 -12.449 -23.529  0.00  0.00    +0.051 C 
ATOM     24  C   UNL     1      32.895 -12.957 -24.741  0.00  0.00    +0.015 C 
ATOM     25  C   UNL     1      33.865 -13.269 -22.551  0.00  0.00    +0.015 C 
ATOM     26  C   UNL     1      32.998 -14.328 -24.982  0.00  0.00    +0.001 C 
ATOM     27  C   UNL     1      33.968 -14.639 -22.791  0.00  0.00    +0.001 C 
ATOM     28  C   UNL     1      33.535 -15.168 -24.007  0.00  0.00    +0.000 C 
ENDBRANCH  20  23
ENDBRANCH  18  21
ENDBRANCH   6  17
TORSDOF 5
ENDMDL
MODEL 9
REMARK VINA RESULT:      -9.8     11.380     15.713
REMARK  Name = 6450546
REMARK  5 active torsions:
REMARK  status: ('A' for Active; 'I' for Inactive)
REMARK    1  A    between atoms: C_6  and  C_17
REMARK    2  A    between atoms: CA_7  and  C_14
REMARK    3  A    between atoms: C_14  and  O_15
REMARK    4  A    between atoms: C_18  and  C_21
REMARK    5  A    between atoms: N_20  and  C_23
REMARK                            x       y       z     vdW  Elec       q    Type
REMARK                         _______ _______ _______ _____ _____    ______ ____
ROOT
ATOM      1 CL   UNL     1      33.587  -6.770 -24.819  0.00  0.00    -0.082 Cl
ATOM      2 CL   UNL     1      31.513  -1.988 -23.403  0.00  0.00    -0.082 Cl
ATOM      3  N   UNL     1      31.081  -6.373 -20.613  0.00  0.00    -0.348 N 
ATOM      4  C   UNL     1      32.189  -6.379 -22.550  0.00  0.00    +0.028 A 
ATOM      5  C   UNL     1      31.470  -5.573 -21.664  0.00  0.00    +0.058 A 
ATOM      6  C   UNL     1      32.218  -7.688 -21.993  0.00  0.00    +0.024 A 
ATOM      7  CA  UNL     1      31.528  -7.652 -20.803  0.00  0.00    +0.133 A 
ATOM      8  C   UNL     1      32.707  -5.801 -23.725  0.00  0.00    +0.060 C 
ATOM      9  C   UNL     1      31.242  -4.212 -21.897  0.00  0.00    +0.028 C 
ATOM     10  C   UNL     1      32.486  -4.441 -23.971  0.00  0.00    +0.023 C 
ATOM     11  C   UNL     1      31.766  -3.661 -23.070  0.00  0.00    +0.060 C 
ATOM     12  H   UNL     1      30.557  -6.067 -19.837  0.00  0.00    +0.166 HD
ENDROOT
BRANCH   7  14
ATOM     13  OXT UNL     1      30.446  -9.625 -19.979  0.00  0.00    -0.243 OA
ATOM     14  C   UNL     1      31.276  -8.708 -19.869  0.00  0.00    +0.354 C 
BRANCH  14  15
ATOM     15  O   UNL     1      32.075  -8.638 -18.757  0.00  0.00    -0.476 OA
ATOM     16  H   UNL     1      32.235  -7.810 -18.346  0.00  0.00    +0.295 HD
ENDBRANCH  14  15
ENDBRANCH   7  14
BRANCH   6  17
ATOM     17  C   UNL     1      32.823  -8.860 -22.509  0.00  0.00    +0.006 C 
ATOM     18  C   UNL     1      32.221 -10.015 -22.900  0.00  0.00    +0.058 C 
BRANCH  18  21
ATOM     19  O   UNL     1      33.838 -11.018 -24.327  0.00  0.00    -0.270 OA
ATOM     20  N   UNL     1      32.689 -12.344 -22.767  0.00  0.00    -0.280 N 
ATOM     21  C   UNL     1      33.018 -11.168 -23.428  0.00  0.00    +0.250 C 
ATOM     22  H   UNL     1      32.002 -12.273 -22.065  0.00  0.00    +0.155 HD
BRANCH  20  23
ATOM     23  C   UNL     1      33.230 -13.634 -22.989  0.00  0.00    +0.051 C 
ATOM     24  C   UNL     1      33.885 -14.279 -21.954  0.00  0.00    +0.015 C 
ATOM     25  C   UNL     1      33.093 -14.221 -24.235  0.00  0.00    +0.015 C 
ATOM     26  C   UNL     1      34.419 -15.549 -22.171  0.00  0.00    +0.001 C 
ATOM     27  C   UNL     1      33.626 -15.491 -24.453  0.00  0.00    +0.001 C 
ATOM     28  C   UNL     1      34.289 -16.155 -23.421  0.00  0.00    +0.000 C 
ENDBRANCH  20  23
ENDBRANCH  18  21
ENDBRANCH   6  17
TORSDOF 5
ENDMDL
