MODEL 1
REMARK VINA RESULT:     -12.3      0.000      0.000
REMARK  Name = 31553
REMARK  9 active torsions:
REMARK  status: ('A' for Active; 'I' for Inactive)
REMARK    1  A    between atoms: C_3  and  C_28
REMARK    2  A    between atoms: C_4  and  C_38
REMARK    3  A    between atoms: C_5  and  C_13
REMARK    4  A    between atoms: C_14  and  O_22
REMARK    5  A    between atoms: C_18  and  O_24
REMARK    6  A    between atoms: C_20  and  O_26
REMARK    7  A    between atoms: C_31  and  O_34
REMARK    8  A    between atoms: C_33  and  O_36
REMARK    9  A    between atoms: C_38  and  O_39
REMARK                            x       y       z     vdW  Elec       q    Type
REMARK                         _______ _______ _______ _____ _____    ______ ____
ROOT
ATOM      1  O   UNL     1      32.473  -7.872 -23.658  0.00  0.00    -0.468 OA
ATOM      2  O   UNL     1      30.948  -7.830 -21.218  0.00  0.00    -0.469 OA
ATOM      3  C   UNL     1      31.593  -6.786 -23.315  0.00  0.00    +0.230 C 
ATOM      4  C   UNL     1      31.517  -6.638 -21.788  0.00  0.00    +0.239 C 
ATOM      5  C   UNL     1      32.621 -11.361 -22.631  0.00  0.00    +0.023 C 
ATOM      6  C   UNL     1      32.254  -8.990 -22.901  0.00  0.00    +0.172 C 
ATOM      7  C   UNL     1      31.507  -8.971 -21.724  0.00  0.00    +0.172 C 
ATOM      8  C   UNL     1      32.825 -10.182 -23.348  0.00  0.00    +0.039 C 
ATOM      9  C   UNL     1      31.850 -11.349 -21.469  0.00  0.00    +0.003 C 
ATOM     10  C   UNL     1      31.291 -10.154 -21.014  0.00  0.00    +0.040 C 
ENDROOT
BRANCH   5  13
ATOM     11  O   UNL     1      33.343 -13.532 -21.983  0.00  0.00    -0.471 OA
ATOM     12  O   UNL     1      33.028 -15.028 -25.792  0.00  0.00    -0.288 OA
ATOM     13  C   UNL     1      33.233 -12.661 -23.120  0.00  0.00    +0.222 C 
ATOM     14  C   UNL     1      32.398 -13.299 -24.230  0.00  0.00    +0.217 C 
ATOM     15  C   UNL     1      33.053 -14.599 -24.645  0.00  0.00    +0.209 C 
ATOM     16  C   UNL     1      33.707 -15.358 -23.560  0.00  0.00    +0.105 C 
ATOM     17  C   UNL     1      33.799 -14.787 -22.289  0.00  0.00    +0.148 C 
ATOM     18  C   UNL     1      34.201 -16.643 -23.796  0.00  0.00    +0.142 C 
ATOM     19  C   UNL     1      34.358 -15.520 -21.241  0.00  0.00    +0.074 C 
ATOM     20  C   UNL     1      34.849 -16.805 -21.471  0.00  0.00    +0.140 C 
ATOM     21  C   UNL     1      34.775 -17.364 -22.747  0.00  0.00    +0.073 C 
BRANCH  14  22
ATOM     22  O   UNL     1      32.354 -12.446 -25.360  0.00  0.00    -0.374 OA
ATOM     23  H   UNL     1      32.454 -12.974 -26.168  0.00  0.00    +0.211 HD
ENDBRANCH  14  22
BRANCH  18  24
ATOM     24  O   UNL     1      34.138 -17.245 -25.016  0.00  0.00    -0.505 OA
ATOM     25  H   UNL     1      34.832 -17.124 -25.634  0.00  0.00    +0.292 HD
ENDBRANCH  18  24
BRANCH  20  26
ATOM     26  O   UNL     1      35.402 -17.515 -20.450  0.00  0.00    -0.505 OA
ATOM     27  H   UNL     1      35.818 -18.336 -20.622  0.00  0.00    +0.292 HD
ENDBRANCH  20  26
ENDBRANCH   5  13
BRANCH   3  28
ATOM     28  C   UNL     1      32.118  -5.557 -24.023  0.00  0.00    +0.024 C 
ATOM     29  C   UNL     1      31.227  -4.605 -24.518  0.00  0.00    +0.039 C 
ATOM     30  C   UNL     1      33.492  -5.376 -24.180  0.00  0.00    +0.003 C 
ATOM     31  C   UNL     1      31.711  -3.471 -25.171  0.00  0.00    +0.172 C 
ATOM     32  C   UNL     1      33.975  -4.242 -24.833  0.00  0.00    +0.040 C 
ATOM     33  C   UNL     1      33.085  -3.289 -25.329  0.00  0.00    +0.168 C 
BRANCH  31  34
ATOM     34  O   UNL     1      30.831  -2.546 -25.650  0.00  0.00    -0.468 OA
ATOM     35  C   UNL     1      30.098  -1.792 -24.686  0.00  0.00    +0.253 C 
ENDBRANCH  31  34
BRANCH  33  36
ATOM     36  O   UNL     1      33.570  -2.186 -25.963  0.00  0.00    -0.503 OA
ATOM     37  H   UNL     1      33.666  -1.380 -25.495  0.00  0.00    +0.292 HD
ENDBRANCH  33  36
ENDBRANCH   3  28
BRANCH   4  38
ATOM     38  C   UNL     1      30.623  -5.483 -21.345  0.00  0.00    +0.185 C 
BRANCH  38  39
ATOM     39  O   UNL     1      31.424  -4.524 -20.678  0.00  0.00    -0.378 OA
ATOM     40  H   UNL     1      31.889  -4.949 -19.940  0.00  0.00    +0.211 HD
ENDBRANCH  38  39
ENDBRANCH   4  38
TORSDOF 9
ENDMDL
MODEL 2
REMARK VINA RESULT:     -11.5      2.201     11.246
REMARK  Name = 31553
REMARK  9 active torsions:
REMARK  status: ('A' for Active; 'I' for Inactive)
REMARK    1  A    between atoms: C_3  and  C_28
REMARK    2  A    between atoms: C_4  and  C_38
REMARK    3  A    between atoms: C_5  and  C_13
REMARK    4  A    between atoms: C_14  and  O_22
REMARK    5  A    between atoms: C_18  and  O_24
REMARK    6  A    between atoms: C_20  and  O_26
REMARK    7  A    between atoms: C_31  and  O_34
REMARK    8  A    between atoms: C_33  and  O_36
REMARK    9  A    between atoms: C_38  and  O_39
REMARK                            x       y       z     vdW  Elec       q    Type
REMARK                         _______ _______ _______ _____ _____    ______ ____
ROOT
ATOM      1  O   UNL     1      33.964 -15.491 -22.067  0.00  0.00    -0.468 OA
ATOM      2  O   UNL     1      33.384 -15.818 -24.866  0.00  0.00    -0.469 OA
ATOM      3  C   UNL     1      33.722 -16.779 -22.660  0.00  0.00    +0.230 C 
ATOM      4  C   UNL     1      34.171 -16.770 -24.130  0.00  0.00    +0.239 C 
ATOM      5  C   UNL     1      33.047 -12.103 -23.035  0.00  0.00    +0.023 C 
ATOM      6  C   UNL     1      33.567 -14.455 -22.869  0.00  0.00    +0.172 C 
ATOM      7  C   UNL     1      33.276 -14.616 -24.223  0.00  0.00    +0.172 C 
ATOM      8  C   UNL     1      33.468 -13.195 -22.276  0.00  0.00    +0.039 C 
ATOM      9  C   UNL     1      32.729 -12.269 -24.383  0.00  0.00    +0.003 C 
ATOM     10  C   UNL     1      32.842 -13.526 -24.978  0.00  0.00    +0.040 C 
ENDROOT
BRANCH   5  13
ATOM     11  O   UNL     1      33.213  -9.761 -23.410  0.00  0.00    -0.471 OA
ATOM     12  O   UNL     1      30.852  -8.841 -20.182  0.00  0.00    -0.288 OA
ATOM     13  C   UNL     1      32.930 -10.734 -22.392  0.00  0.00    +0.222 C 
ATOM     14  C   UNL     1      31.547 -10.511 -21.780  0.00  0.00    +0.217 C 
ATOM     15  C   UNL     1      31.497  -9.121 -21.185  0.00  0.00    +0.209 C 
ATOM     16  C   UNL     1      32.254  -8.086 -21.917  0.00  0.00    +0.105 C 
ATOM     17  C   UNL     1      33.055  -8.465 -22.997  0.00  0.00    +0.148 C 
ATOM     18  C   UNL     1      32.149  -6.742 -21.553  0.00  0.00    +0.142 C 
ATOM     19  C   UNL     1      33.725  -7.489 -23.737  0.00  0.00    +0.074 C 
ATOM     20  C   UNL     1      33.619  -6.145 -23.378  0.00  0.00    +0.140 C 
ATOM     21  C   UNL     1      32.836  -5.772 -22.285  0.00  0.00    +0.073 C 
BRANCH  14  22
ATOM     22  O   UNL     1      31.316 -11.445 -20.740  0.00  0.00    -0.374 OA
ATOM     23  H   UNL     1      31.350 -12.345 -21.100  0.00  0.00    +0.211 HD
ENDBRANCH  14  22
BRANCH  18  24
ATOM     24  O   UNL     1      31.384  -6.319 -20.507  0.00  0.00    -0.505 OA
ATOM     25  H   UNL     1      30.901  -5.519 -20.573  0.00  0.00    +0.292 HD
ENDBRANCH  18  24
BRANCH  20  26
ATOM     26  O   UNL     1      34.281  -5.196 -24.094  0.00  0.00    -0.505 OA
ATOM     27  H   UNL     1      33.962  -4.315 -24.111  0.00  0.00    +0.292 HD
ENDBRANCH  20  26
ENDBRANCH   5  13
BRANCH   3  28
ATOM     28  C   UNL     1      34.444 -17.797 -21.807  0.00  0.00    +0.024 C 
ATOM     29  C   UNL     1      33.733 -18.843 -21.219  0.00  0.00    +0.039 C 
ATOM     30  C   UNL     1      35.821 -17.690 -21.608  0.00  0.00    +0.003 C 
ATOM     31  C   UNL     1      34.400 -19.783 -20.432  0.00  0.00    +0.172 C 
ATOM     32  C   UNL     1      36.486 -18.629 -20.821  0.00  0.00    +0.040 C 
ATOM     33  C   UNL     1      35.776 -19.676 -20.232  0.00  0.00    +0.168 C 
BRANCH  31  34
ATOM     34  O   UNL     1      33.695 -20.802 -19.864  0.00  0.00    -0.468 OA
ATOM     35  C   UNL     1      32.333 -20.539 -19.530  0.00  0.00    +0.253 C 
ENDBRANCH  31  34
BRANCH  33  36
ATOM     36  O   UNL     1      36.437 -20.587 -19.466  0.00  0.00    -0.503 OA
ATOM     37  H   UNL     1      37.265 -20.368 -19.086  0.00  0.00    +0.292 HD
ENDBRANCH  33  36
ENDBRANCH   3  28
BRANCH   4  38
ATOM     38  C   UNL     1      33.973 -18.116 -24.822  0.00  0.00    +0.185 C 
BRANCH  38  39
ATOM     39  O   UNL     1      32.585 -18.325 -25.011  0.00  0.00    -0.378 OA
ATOM     40  H   UNL     1      32.335 -19.185 -24.640  0.00  0.00    +0.211 HD
ENDBRANCH  38  39
ENDBRANCH   4  38
TORSDOF 9
ENDMDL
MODEL 3
REMARK VINA RESULT:     -11.3      6.361     14.297
REMARK  Name = 31553
REMARK  9 active torsions:
REMARK  status: ('A' for Active; 'I' for Inactive)
REMARK    1  A    between atoms: C_3  and  C_28
REMARK    2  A    between atoms: C_4  and  C_38
REMARK    3  A    between atoms: C_5  and  C_13
REMARK    4  A    between atoms: C_14  and  O_22
REMARK    5  A    between atoms: C_18  and  O_24
REMARK    6  A    between atoms: C_20  and  O_26
REMARK    7  A    between atoms: C_31  and  O_34
REMARK    8  A    between atoms: C_33  and  O_36
REMARK    9  A    between atoms: C_38  and  O_39
REMARK                            x       y       z     vdW  Elec       q    Type
REMARK                         _______ _______ _______ _____ _____    ______ ____
ROOT
ATOM      1  O   UNL     1      32.714 -21.500 -18.028  0.00  0.00    -0.468 OA
ATOM      2  O   UNL     1      35.485 -22.182 -17.662  0.00  0.00    -0.469 OA
ATOM      3  C   UNL     1      33.132 -22.676 -17.313  0.00  0.00    +0.230 C 
ATOM      4  C   UNL     1      34.495 -22.428 -16.648  0.00  0.00    +0.239 C 
ATOM      5  C   UNL     1      34.328 -19.425 -20.547  0.00  0.00    +0.023 C 
ATOM      6  C   UNL     1      33.719 -20.950 -18.777  0.00  0.00    +0.172 C 
ATOM      7  C   UNL     1      35.061 -21.288 -18.606  0.00  0.00    +0.172 C 
ATOM      8  C   UNL     1      33.352 -20.006 -19.737  0.00  0.00    +0.039 C 
ATOM      9  C   UNL     1      35.667 -19.784 -20.395  0.00  0.00    +0.003 C 
ATOM     10  C   UNL     1      36.035 -20.717 -19.426  0.00  0.00    +0.040 C 
ENDROOT
BRANCH   5  13
ATOM     11  O   UNL     1      34.337 -17.116 -21.113  0.00  0.00    -0.471 OA
ATOM     12  O   UNL     1      33.966 -17.860 -25.131  0.00  0.00    -0.288 OA
ATOM     13  C   UNL     1      33.931 -18.405 -21.598  0.00  0.00    +0.222 C 
ATOM     14  C   UNL     1      34.565 -18.713 -22.954  0.00  0.00    +0.217 C 
ATOM     15  C   UNL     1      34.148 -17.643 -23.939  0.00  0.00    +0.209 C 
ATOM     16  C   UNL     1      34.007 -16.283 -23.382  0.00  0.00    +0.105 C 
ATOM     17  C   UNL     1      34.125 -16.097 -22.004  0.00  0.00    +0.148 C 
ATOM     18  C   UNL     1      33.784 -15.192 -24.227  0.00  0.00    +0.142 C 
ATOM     19  C   UNL     1      34.057 -14.808 -21.471  0.00  0.00    +0.074 C 
ATOM     20  C   UNL     1      33.840 -13.716 -22.311  0.00  0.00    +0.140 C 
ATOM     21  C   UNL     1      33.699 -13.908 -23.686  0.00  0.00    +0.073 C 
BRANCH  14  22
ATOM     22  O   UNL     1      34.103 -19.962 -23.437  0.00  0.00    -0.374 OA
ATOM     23  H   UNL     1      34.675 -20.261 -24.161  0.00  0.00    +0.211 HD
ENDBRANCH  14  22
BRANCH  18  24
ATOM     24  O   UNL     1      33.659 -15.319 -25.577  0.00  0.00    -0.505 OA
ATOM     25  H   UNL     1      32.922 -15.772 -25.938  0.00  0.00    +0.292 HD
ENDBRANCH  18  24
BRANCH  20  26
ATOM     26  O   UNL     1      33.763 -12.461 -21.790  0.00  0.00    -0.505 OA
ATOM     27  H   UNL     1      33.597 -12.343 -20.875  0.00  0.00    +0.292 HD
ENDBRANCH  20  26
ENDBRANCH   5  13
BRANCH   3  28
ATOM     28  C   UNL     1      32.027 -23.011 -16.336  0.00  0.00    +0.024 C 
ATOM     29  C   UNL     1      30.731 -22.551 -16.565  0.00  0.00    +0.039 C 
ATOM     30  C   UNL     1      32.306 -23.780 -15.205  0.00  0.00    +0.003 C 
ATOM     31  C   UNL     1      29.712 -22.859 -15.663  0.00  0.00    +0.172 C 
ATOM     32  C   UNL     1      31.287 -24.088 -14.304  0.00  0.00    +0.040 C 
ATOM     33  C   UNL     1      29.990 -23.628 -14.533  0.00  0.00    +0.168 C 
BRANCH  31  34
ATOM     34  O   UNL     1      28.449 -22.405 -15.898  0.00  0.00    -0.468 OA
ATOM     35  C   UNL     1      27.651 -23.156 -16.811  0.00  0.00    +0.253 C 
ENDBRANCH  31  34
BRANCH  33  36
ATOM     36  O   UNL     1      29.004 -23.936 -13.646  0.00  0.00    -0.503 OA
ATOM     37  H   UNL     1      28.285 -23.348 -13.521  0.00  0.00    +0.292 HD
ENDBRANCH  33  36
ENDBRANCH   3  28
BRANCH   4  38
ATOM     38  C   UNL     1      34.993 -23.624 -15.843  0.00  0.00    +0.185 C 
BRANCH  38  39
ATOM     39  O   UNL     1      36.388 -23.483 -15.641  0.00  0.00    -0.378 OA
ATOM     40  H   UNL     1      36.799 -24.360 -15.606  0.00  0.00    +0.211 HD
ENDBRANCH  38  39
ENDBRANCH   4  38
TORSDOF 9
ENDMDL
MODEL 4
REMARK VINA RESULT:     -11.0      4.334      9.260
REMARK  Name = 31553
REMARK  9 active torsions:
REMARK  status: ('A' for Active; 'I' for Inactive)
REMARK    1  A    between atoms: C_3  and  C_28
REMARK    2  A    between atoms: C_4  and  C_38
REMARK    3  A    between atoms: C_5  and  C_13
REMARK    4  A    between atoms: C_14  and  O_22
REMARK    5  A    between atoms: C_18  and  O_24
REMARK    6  A    between atoms: C_20  and  O_26
REMARK    7  A    between atoms: C_31  and  O_34
REMARK    8  A    between atoms: C_33  and  O_36
REMARK    9  A    between atoms: C_38  and  O_39
REMARK                            x       y       z     vdW  Elec       q    Type
REMARK                         _______ _______ _______ _____ _____    ______ ____
ROOT
ATOM      1  O   UNL     1      33.698 -16.174 -21.308  0.00  0.00    -0.468 OA
ATOM      2  O   UNL     1      34.595 -16.853 -23.956  0.00  0.00    -0.469 OA
ATOM      3  C   UNL     1      34.084 -15.178 -22.272  0.00  0.00    +0.230 C 
ATOM      4  C   UNL     1      33.795 -15.687 -23.693  0.00  0.00    +0.239 C 
ATOM      5  C   UNL     1      34.498 -19.706 -20.937  0.00  0.00    +0.023 C 
ATOM      6  C   UNL     1      34.113 -17.432 -21.651  0.00  0.00    +0.172 C 
ATOM      7  C   UNL     1      34.557 -17.758 -22.932  0.00  0.00    +0.172 C 
ATOM      8  C   UNL     1      34.068 -18.409 -20.656  0.00  0.00    +0.039 C 
ATOM      9  C   UNL     1      34.969 -20.026 -22.211  0.00  0.00    +0.003 C 
ATOM     10  C   UNL     1      35.000 -19.052 -23.209  0.00  0.00    +0.040 C 
ENDROOT
BRANCH   5  13
ATOM     11  O   UNL     1      35.503 -20.461 -18.919  0.00  0.00    -0.471 OA
ATOM     12  O   UNL     1      32.174 -22.571 -17.777  0.00  0.00    -0.288 OA
ATOM     13  C   UNL     1      34.458 -20.768 -19.855  0.00  0.00    +0.222 C 
ATOM     14  C   UNL     1      33.095 -20.825 -19.166  0.00  0.00    +0.217 C 
ATOM     15  C   UNL     1      33.140 -21.883 -18.085  0.00  0.00    +0.209 C 
ATOM     16  C   UNL     1      34.430 -22.020 -17.380  0.00  0.00    +0.105 C 
ATOM     17  C   UNL     1      35.532 -21.289 -17.828  0.00  0.00    +0.148 C 
ATOM     18  C   UNL     1      34.539 -22.849 -16.261  0.00  0.00    +0.142 C 
ATOM     19  C   UNL     1      36.739 -21.360 -17.131  0.00  0.00    +0.074 C 
ATOM     20  C   UNL     1      36.851 -22.184 -16.012  0.00  0.00    +0.140 C 
ATOM     21  C   UNL     1      35.755 -22.931 -15.579  0.00  0.00    +0.073 C 
BRANCH  14  22
ATOM     22  O   UNL     1      32.091 -21.187 -20.097  0.00  0.00    -0.374 OA
ATOM     23  H   UNL     1      31.999 -22.152 -20.115  0.00  0.00    +0.211 HD
ENDBRANCH  14  22
BRANCH  18  24
ATOM     24  O   UNL     1      33.497 -23.585 -15.784  0.00  0.00    -0.505 OA
ATOM     25  H   UNL     1      32.734 -23.713 -16.312  0.00  0.00    +0.292 HD
ENDBRANCH  18  24
BRANCH  20  26
ATOM     26  O   UNL     1      38.032 -22.261 -15.339  0.00  0.00    -0.505 OA
ATOM     27  H   UNL     1      38.788 -21.816 -15.668  0.00  0.00    +0.292 HD
ENDBRANCH  20  26
ENDBRANCH   5  13
BRANCH   3  28
ATOM     28  C   UNL     1      33.339 -13.910 -21.915  0.00  0.00    +0.024 C 
ATOM     29  C   UNL     1      33.259 -12.867 -22.836  0.00  0.00    +0.039 C 
ATOM     30  C   UNL     1      32.734 -13.785 -20.664  0.00  0.00    +0.003 C 
ATOM     31  C   UNL     1      32.573 -11.697 -22.506  0.00  0.00    +0.172 C 
ATOM     32  C   UNL     1      32.049 -12.617 -20.334  0.00  0.00    +0.040 C 
ATOM     33  C   UNL     1      31.968 -11.572 -21.255  0.00  0.00    +0.168 C 
BRANCH  31  34
ATOM     34  O   UNL     1      32.500 -10.684 -23.415  0.00  0.00    -0.468 OA
ATOM     35  C   UNL     1      33.496  -9.667 -23.332  0.00  0.00    +0.253 C 
ENDBRANCH  31  34
BRANCH  33  36
ATOM     36  O   UNL     1      31.295 -10.436 -20.923  0.00  0.00    -0.503 OA
ATOM     37  H   UNL     1      31.734  -9.750 -20.460  0.00  0.00    +0.292 HD
ENDBRANCH  33  36
ENDBRANCH   3  28
BRANCH   4  38
ATOM     38  C   UNL     1      34.151 -14.670 -24.774  0.00  0.00    +0.185 C 
BRANCH  38  39
ATOM     39  O   UNL     1      33.206 -14.779 -25.824  0.00  0.00    -0.378 OA
ATOM     40  H   UNL     1      33.229 -15.678 -26.186  0.00  0.00    +0.211 HD
ENDBRANCH  38  39
ENDBRANCH   4  38
TORSDOF 9
ENDMDL
MODEL 5
REMARK VINA RESULT:     -10.6      3.240      7.139
REMARK  Name = 31553
REMARK  9 active torsions:
REMARK  status: ('A' for Active; 'I' for Inactive)
REMARK    1  A    between atoms: C_3  and  C_28
REMARK    2  A    between atoms: C_4  and  C_38
REMARK    3  A    between atoms: C_5  and  C_13
REMARK    4  A    between atoms: C_14  and  O_22
REMARK    5  A    between atoms: C_18  and  O_24
REMARK    6  A    between atoms: C_20  and  O_26
REMARK    7  A    between atoms: C_31  and  O_34
REMARK    8  A    between atoms: C_33  and  O_36
REMARK    9  A    between atoms: C_38  and  O_39
REMARK                            x       y       z     vdW  Elec       q    Type
REMARK                         _______ _______ _______ _____ _____    ______ ____
ROOT
ATOM      1  O   UNL     1      33.518 -13.632 -22.676  0.00  0.00    -0.468 OA
ATOM      2  O   UNL     1      33.239 -14.642 -25.356  0.00  0.00    -0.469 OA
ATOM      3  C   UNL     1      33.556 -12.776 -23.832  0.00  0.00    +0.230 C 
ATOM      4  C   UNL     1      32.692 -13.374 -24.954  0.00  0.00    +0.239 C 
ATOM      5  C   UNL     1      34.153 -17.184 -22.199  0.00  0.00    +0.023 C 
ATOM      6  C   UNL     1      33.674 -14.954 -22.990  0.00  0.00    +0.172 C 
ATOM      7  C   UNL     1      33.549 -15.442 -24.291  0.00  0.00    +0.172 C 
ATOM      8  C   UNL     1      33.961 -15.827 -21.940  0.00  0.00    +0.039 C 
ATOM      9  C   UNL     1      34.056 -17.668 -23.503  0.00  0.00    +0.003 C 
ATOM     10  C   UNL     1      33.755 -16.798 -24.551  0.00  0.00    +0.040 C 
ENDROOT
BRANCH   5  13
ATOM     11  O   UNL     1      33.345 -19.009 -20.906  0.00  0.00    -0.471 OA
ATOM     12  O   UNL     1      37.112 -20.173 -19.767  0.00  0.00    -0.288 OA
ATOM     13  C   UNL     1      34.474 -18.135 -21.060  0.00  0.00    +0.222 C 
ATOM     14  C   UNL     1      35.756 -18.925 -21.325  0.00  0.00    +0.217 C 
ATOM     15  C   UNL     1      35.994 -19.867 -20.165  0.00  0.00    +0.209 C 
ATOM     16  C   UNL     1      34.781 -20.441 -19.549  0.00  0.00    +0.105 C 
ATOM     17  C   UNL     1      33.528 -19.989 -19.967  0.00  0.00    +0.148 C 
ATOM     18  C   UNL     1      34.886 -21.442 -18.581  0.00  0.00    +0.142 C 
ATOM     19  C   UNL     1      32.373 -20.568 -19.438  0.00  0.00    +0.074 C 
ATOM     20  C   UNL     1      32.473 -21.571 -18.474  0.00  0.00    +0.140 C 
ATOM     21  C   UNL     1      33.727 -22.004 -18.042  0.00  0.00    +0.073 C 
BRANCH  14  22
ATOM     22  O   UNL     1      36.862 -18.045 -21.415  0.00  0.00    -0.374 OA
ATOM     23  H   UNL     1      37.391 -18.268 -22.197  0.00  0.00    +0.211 HD
ENDBRANCH  14  22
BRANCH  18  24
ATOM     24  O   UNL     1      36.084 -21.916 -18.137  0.00  0.00    -0.505 OA
ATOM     25  H   UNL     1      36.121 -22.720 -17.659  0.00  0.00    +0.292 HD
ENDBRANCH  18  24
BRANCH  20  26
ATOM     26  O   UNL     1      31.346 -22.129 -17.952  0.00  0.00    -0.505 OA
ATOM     27  H   UNL     1      30.521 -21.696 -18.050  0.00  0.00    +0.292 HD
ENDBRANCH  20  26
ENDBRANCH   5  13
BRANCH   3  28
ATOM     28  C   UNL     1      33.105 -11.406 -23.378  0.00  0.00    +0.024 C 
ATOM     29  C   UNL     1      32.003 -11.280 -22.533  0.00  0.00    +0.039 C 
ATOM     30  C   UNL     1      33.790 -10.268 -23.805  0.00  0.00    +0.003 C 
ATOM     31  C   UNL     1      31.586 -10.015 -22.115  0.00  0.00    +0.172 C 
ATOM     32  C   UNL     1      33.374  -9.005 -23.387  0.00  0.00    +0.040 C 
ATOM     33  C   UNL     1      32.272  -8.878 -22.542  0.00  0.00    +0.168 C 
BRANCH  31  34
ATOM     34  O   UNL     1      30.508  -9.905 -21.288  0.00  0.00    -0.468 OA
ATOM     35  C   UNL     1      30.774  -9.779 -19.892  0.00  0.00    +0.253 C 
ENDBRANCH  31  34
BRANCH  33  36
ATOM     36  O   UNL     1      31.875  -7.639 -22.140  0.00  0.00    -0.503 OA
ATOM     37  H   UNL     1      31.823  -7.437 -21.226  0.00  0.00    +0.292 HD
ENDBRANCH  33  36
ENDBRANCH   3  28
BRANCH   4  38
ATOM     38  C   UNL     1      32.658 -12.505 -26.207  0.00  0.00    +0.185 C 
BRANCH  38  39
ATOM     39  O   UNL     1      33.532 -13.068 -27.170  0.00  0.00    -0.378 OA
ATOM     40  H   UNL     1      34.381 -12.599 -27.148  0.00  0.00    +0.211 HD
ENDBRANCH  38  39
ENDBRANCH   4  38
TORSDOF 9
ENDMDL
MODEL 6
REMARK VINA RESULT:      -9.9      1.642     10.056
REMARK  Name = 31553
REMARK  9 active torsions:
REMARK  status: ('A' for Active; 'I' for Inactive)
REMARK    1  A    between atoms: C_3  and  C_28
REMARK    2  A    between atoms: C_4  and  C_38
REMARK    3  A    between atoms: C_5  and  C_13
REMARK    4  A    between atoms: C_14  and  O_22
REMARK    5  A    between atoms: C_18  and  O_24
REMARK    6  A    between atoms: C_20  and  O_26
REMARK    7  A    between atoms: C_31  and  O_34
REMARK    8  A    between atoms: C_33  and  O_36
REMARK    9  A    between atoms: C_38  and  O_39
REMARK                            x       y       z     vdW  Elec       q    Type
REMARK                         _______ _______ _______ _____ _____    ______ ____
ROOT
ATOM      1  O   UNL     1      32.744 -11.182 -23.024  0.00  0.00    -0.468 OA
ATOM      2  O   UNL     1      31.493 -11.250 -20.433  0.00  0.00    -0.469 OA
ATOM      3  C   UNL     1      32.929 -12.274 -22.105  0.00  0.00    +0.230 C 
ATOM      4  C   UNL     1      31.677 -12.436 -21.227  0.00  0.00    +0.239 C 
ATOM      5  C   UNL     1      31.779  -7.701 -22.574  0.00  0.00    +0.023 C 
ATOM      6  C   UNL     1      32.214 -10.071 -22.426  0.00  0.00    +0.172 C 
ATOM      7  C   UNL     1      31.617 -10.103 -21.166  0.00  0.00    +0.172 C 
ATOM      8  C   UNL     1      32.282  -8.873 -23.138  0.00  0.00    +0.039 C 
ATOM      9  C   UNL     1      31.206  -7.726 -21.303  0.00  0.00    +0.003 C 
ATOM     10  C   UNL     1      31.126  -8.927 -20.597  0.00  0.00    +0.040 C 
ENDROOT
BRANCH   5  13
ATOM     11  O   UNL     1      32.409  -6.696 -24.635  0.00  0.00    -0.471 OA
ATOM     12  O   UNL     1      29.972  -3.444 -24.062  0.00  0.00    -0.288 OA
ATOM     13  C   UNL     1      31.859  -6.395 -23.343  0.00  0.00    +0.222 C 
ATOM     14  C   UNL     1      30.490  -5.725 -23.465  0.00  0.00    +0.217 C 
ATOM     15  C   UNL     1      30.644  -4.449 -24.264  0.00  0.00    +0.209 C 
ATOM     16  C   UNL     1      31.644  -4.492 -25.350  0.00  0.00    +0.105 C 
ATOM     17  C   UNL     1      32.457  -5.619 -25.481  0.00  0.00    +0.148 C 
ATOM     18  C   UNL     1      31.756  -3.430 -26.251  0.00  0.00    +0.142 C 
ATOM     19  C   UNL     1      33.362  -5.700 -26.541  0.00  0.00    +0.074 C 
ATOM     20  C   UNL     1      33.473  -4.644 -27.445  0.00  0.00    +0.140 C 
ATOM     21  C   UNL     1      32.675  -3.509 -27.298  0.00  0.00    +0.073 C 
BRANCH  14  22
ATOM     22  O   UNL     1      29.996  -5.386 -22.182  0.00  0.00    -0.374 OA
ATOM     23  H   UNL     1      30.224  -4.465 -21.980  0.00  0.00    +0.211 HD
ENDBRANCH  14  22
BRANCH  18  24
ATOM     24  O   UNL     1      30.989  -2.307 -26.165  0.00  0.00    -0.505 OA
ATOM     25  H   UNL     1      31.319  -1.490 -26.482  0.00  0.00    +0.292 HD
ENDBRANCH  18  24
BRANCH  20  26
ATOM     26  O   UNL     1      34.363  -4.719 -28.473  0.00  0.00    -0.505 OA
ATOM     27  H   UNL     1      34.853  -3.961 -28.724  0.00  0.00    +0.292 HD
ENDBRANCH  20  26
ENDBRANCH   5  13
BRANCH   3  28
ATOM     28  C   UNL     1      33.254 -13.495 -22.935  0.00  0.00    +0.024 C 
ATOM     29  C   UNL     1      34.037 -14.516 -22.396  0.00  0.00    +0.039 C 
ATOM     30  C   UNL     1      32.771 -13.601 -24.240  0.00  0.00    +0.003 C 
ATOM     31  C   UNL     1      34.337 -15.643 -23.163  0.00  0.00    +0.172 C 
ATOM     32  C   UNL     1      33.071 -14.727 -25.005  0.00  0.00    +0.040 C 
ATOM     33  C   UNL     1      33.855 -15.748 -24.467  0.00  0.00    +0.168 C 
BRANCH  31  34
ATOM     34  O   UNL     1      35.102 -16.634 -22.625  0.00  0.00    -0.468 OA
ATOM     35  C   UNL     1      34.851 -16.979 -21.264  0.00  0.00    +0.253 C 
ENDBRANCH  31  34
BRANCH  33  36
ATOM     36  O   UNL     1      34.141 -16.843 -25.224  0.00  0.00    -0.503 OA
ATOM     37  H   UNL     1      34.885 -17.374 -25.019  0.00  0.00    +0.292 HD
ENDBRANCH  33  36
ENDBRANCH   3  28
BRANCH   4  38
ATOM     38  C   UNL     1      31.785 -13.597 -20.244  0.00  0.00    +0.185 C 
BRANCH  38  39
ATOM     39  O   UNL     1      33.151 -13.786 -19.918  0.00  0.00    -0.378 OA
ATOM     40  H   UNL     1      33.705 -13.391 -20.609  0.00  0.00    +0.211 HD
ENDBRANCH  38  39
ENDBRANCH   4  38
TORSDOF 9
ENDMDL
MODEL 7
REMARK VINA RESULT:      -9.8      1.801      2.979
REMARK  Name = 31553
REMARK  9 active torsions:
REMARK  status: ('A' for Active; 'I' for Inactive)
REMARK    1  A    between atoms: C_3  and  C_28
REMARK    2  A    between atoms: C_4  and  C_38
REMARK    3  A    between atoms: C_5  and  C_13
REMARK    4  A    between atoms: C_14  and  O_22
REMARK    5  A    between atoms: C_18  and  O_24
REMARK    6  A    between atoms: C_20  and  O_26
REMARK    7  A    between atoms: C_31  and  O_34
REMARK    8  A    between atoms: C_33  and  O_36
REMARK    9  A    between atoms: C_38  and  O_39
REMARK                            x       y       z     vdW  Elec       q    Type
REMARK                         _______ _______ _______ _____ _____    ______ ____
ROOT
ATOM      1  O   UNL     1      32.542  -8.037 -24.125  0.00  0.00    -0.468 OA
ATOM      2  O   UNL     1      30.291  -7.075 -22.611  0.00  0.00    -0.469 OA
ATOM      3  C   UNL     1      31.819  -6.847 -24.487  0.00  0.00    +0.230 C 
ATOM      4  C   UNL     1      31.238  -6.184 -23.227  0.00  0.00    +0.239 C 
ATOM      5  C   UNL     1      31.657 -10.974 -22.164  0.00  0.00    +0.023 C 
ATOM      6  C   UNL     1      31.863  -8.816 -23.228  0.00  0.00    +0.172 C 
ATOM      7  C   UNL     1      30.766  -8.353 -22.502  0.00  0.00    +0.172 C 
ATOM      8  C   UNL     1      32.319 -10.123 -23.048  0.00  0.00    +0.039 C 
ATOM      9  C   UNL     1      30.543 -10.520 -21.458  0.00  0.00    +0.003 C 
ATOM     10  C   UNL     1      30.095  -9.209 -21.627  0.00  0.00    +0.040 C 
ENDROOT
BRANCH   5  13
ATOM     11  O   UNL     1      32.714 -12.823 -23.221  0.00  0.00    -0.471 OA
ATOM     12  O   UNL     1      33.925 -14.465 -19.661  0.00  0.00    -0.288 OA
ATOM     13  C   UNL     1      32.146 -12.397 -21.973  0.00  0.00    +0.222 C 
ATOM     14  C   UNL     1      33.164 -12.499 -20.836  0.00  0.00    +0.217 C 
ATOM     15  C   UNL     1      33.625 -13.936 -20.724  0.00  0.00    +0.209 C 
ATOM     16  C   UNL     1      33.732 -14.673 -21.999  0.00  0.00    +0.105 C 
ATOM     17  C   UNL     1      33.285 -14.067 -23.175  0.00  0.00    +0.148 C 
ATOM     18  C   UNL     1      34.298 -15.950 -22.033  0.00  0.00    +0.142 C 
ATOM     19  C   UNL     1      33.439 -14.727 -24.395  0.00  0.00    +0.074 C 
ATOM     20  C   UNL     1      34.008 -16.000 -24.433  0.00  0.00    +0.140 C 
ATOM     21  C   UNL     1      34.432 -16.613 -23.254  0.00  0.00    +0.073 C 
BRANCH  14  22
ATOM     22  O   UNL     1      32.563 -12.131 -19.607  0.00  0.00    -0.374 OA
ATOM     23  H   UNL     1      33.171 -12.327 -18.878  0.00  0.00    +0.211 HD
ENDBRANCH  14  22
BRANCH  18  24
ATOM     24  O   UNL     1      34.747 -16.587 -20.915  0.00  0.00    -0.505 OA
ATOM     25  H   UNL     1      35.654 -16.804 -20.833  0.00  0.00    +0.292 HD
ENDBRANCH  18  24
BRANCH  20  26
ATOM     26  O   UNL     1      34.148 -16.647 -25.622  0.00  0.00    -0.505 OA
ATOM     27  H   UNL     1      33.537 -16.493 -26.315  0.00  0.00    +0.292 HD
ENDBRANCH  20  26
ENDBRANCH   5  13
BRANCH   3  28
ATOM     28  C   UNL     1      32.781  -5.965 -25.251  0.00  0.00    +0.024 C 
ATOM     29  C   UNL     1      32.542  -5.673 -26.594  0.00  0.00    +0.039 C 
ATOM     30  C   UNL     1      33.908  -5.444 -24.614  0.00  0.00    +0.003 C 
ATOM     31  C   UNL     1      33.430  -4.860 -27.299  0.00  0.00    +0.172 C 
ATOM     32  C   UNL     1      34.795  -4.632 -25.318  0.00  0.00    +0.040 C 
ATOM     33  C   UNL     1      34.556  -4.340 -26.662  0.00  0.00    +0.168 C 
BRANCH  31  34
ATOM     34  O   UNL     1      33.185  -4.581 -28.610  0.00  0.00    -0.468 OA
ATOM     35  C   UNL     1      33.627  -5.539 -29.570  0.00  0.00    +0.253 C 
ENDBRANCH  31  34
BRANCH  33  36
ATOM     36  O   UNL     1      35.430  -3.544 -27.340  0.00  0.00    -0.503 OA
ATOM     37  H   UNL     1      36.336  -3.778 -27.389  0.00  0.00    +0.292 HD
ENDBRANCH  33  36
ENDBRANCH   3  28
BRANCH   4  38
ATOM     38  C   UNL     1      30.480  -4.895 -23.528  0.00  0.00    +0.185 C 
BRANCH  38  39
ATOM     39  O   UNL     1      29.739  -4.529 -22.377  0.00  0.00    -0.378 OA
ATOM     40  H   UNL     1      29.171  -5.269 -22.111  0.00  0.00    +0.211 HD
ENDBRANCH  38  39
ENDBRANCH   4  38
TORSDOF 9
ENDMDL
MODEL 8
REMARK VINA RESULT:      -9.8      1.703     10.354
REMARK  Name = 31553
REMARK  9 active torsions:
REMARK  status: ('A' for Active; 'I' for Inactive)
REMARK    1  A    between atoms: C_3  and  C_28
REMARK    2  A    between atoms: C_4  and  C_38
REMARK    3  A    between atoms: C_5  and  C_13
REMARK    4  A    between atoms: C_14  and  O_22
REMARK    5  A    between atoms: C_18  and  O_24
REMARK    6  A    between atoms: C_20  and  O_26
REMARK    7  A    between atoms: C_31  and  O_34
REMARK    8  A    between atoms: C_33  and  O_36
REMARK    9  A    between atoms: C_38  and  O_39
REMARK                            x       y       z     vdW  Elec       q    Type
REMARK                         _______ _______ _______ _____ _____    ______ ____
ROOT
ATOM      1  O   UNL     1      32.856 -11.790 -22.749  0.00  0.00    -0.468 OA
ATOM      2  O   UNL     1      31.905 -11.937 -20.037  0.00  0.00    -0.469 OA
ATOM      3  C   UNL     1      33.184 -12.883 -21.873  0.00  0.00    +0.230 C 
ATOM      4  C   UNL     1      32.046 -13.105 -20.864  0.00  0.00    +0.239 C 
ATOM      5  C   UNL     1      31.812  -8.355 -22.141  0.00  0.00    +0.023 C 
ATOM      6  C   UNL     1      32.353 -10.708 -22.078  0.00  0.00    +0.172 C 
ATOM      7  C   UNL     1      31.902 -10.777 -20.761  0.00  0.00    +0.172 C 
ATOM      8  C   UNL     1      32.295  -9.500 -22.775  0.00  0.00    +0.039 C 
ATOM      9  C   UNL     1      31.387  -8.418 -20.814  0.00  0.00    +0.003 C 
ATOM     10  C   UNL     1      31.432  -9.629 -20.122  0.00  0.00    +0.040 C 
ENDROOT
BRANCH   5  13
ATOM     11  O   UNL     1      31.149  -6.075 -22.018  0.00  0.00    -0.471 OA
ATOM     12  O   UNL     1      33.726  -4.923 -24.996  0.00  0.00    -0.288 OA
ATOM     13  C   UNL     1      31.755  -7.039 -22.893  0.00  0.00    +0.222 C 
ATOM     14  C   UNL     1      33.143  -6.584 -23.344  0.00  0.00    +0.217 C 
ATOM     15  C   UNL     1      33.010  -5.257 -24.060  0.00  0.00    +0.209 C 
ATOM     16  C   UNL     1      31.972  -4.349 -23.532  0.00  0.00    +0.105 C 
ATOM     17  C   UNL     1      31.113  -4.806 -22.531  0.00  0.00    +0.148 C 
ATOM     18  C   UNL     1      31.869  -3.040 -24.009  0.00  0.00    +0.142 C 
ATOM     19  C   UNL     1      30.169  -3.938 -21.979  0.00  0.00    +0.074 C 
ATOM     20  C   UNL     1      30.066  -2.629 -22.450  0.00  0.00    +0.140 C 
ATOM     21  C   UNL     1      30.911  -2.181 -23.466  0.00  0.00    +0.073 C 
BRANCH  14  22
ATOM     22  O   UNL     1      33.694  -7.521 -24.252  0.00  0.00    -0.374 OA
ATOM     23  H   UNL     1      34.541  -7.189 -24.586  0.00  0.00    +0.211 HD
ENDBRANCH  14  22
BRANCH  18  24
ATOM     24  O   UNL     1      32.680  -2.545 -24.985  0.00  0.00    -0.505 OA
ATOM     25  H   UNL     1      32.380  -1.849 -25.536  0.00  0.00    +0.292 HD
ENDBRANCH  18  24
BRANCH  20  26
ATOM     26  O   UNL     1      29.139  -1.786 -21.918  0.00  0.00    -0.505 OA
ATOM     27  H   UNL     1      29.021  -0.930 -22.282  0.00  0.00    +0.292 HD
ENDBRANCH  20  26
ENDBRANCH   5  13
BRANCH   3  28
ATOM     28  C   UNL     1      33.462 -14.082 -22.754  0.00  0.00    +0.024 C 
ATOM     29  C   UNL     1      34.186 -15.162 -22.251  0.00  0.00    +0.039 C 
ATOM     30  C   UNL     1      32.993 -14.105 -24.068  0.00  0.00    +0.003 C 
ATOM     31  C   UNL     1      34.442 -16.267 -23.064  0.00  0.00    +0.172 C 
ATOM     32  C   UNL     1      33.250 -15.209 -24.879  0.00  0.00    +0.040 C 
ATOM     33  C   UNL     1      33.974 -16.291 -24.378  0.00  0.00    +0.168 C 
BRANCH  31  34
ATOM     34  O   UNL     1      35.150 -17.318 -22.561  0.00  0.00    -0.468 OA
ATOM     35  C   UNL     1      35.133 -17.492 -21.146  0.00  0.00    +0.253 C 
ENDBRANCH  31  34
BRANCH  33  36
ATOM     36  O   UNL     1      34.217 -17.365 -25.180  0.00  0.00    -0.503 OA
ATOM     37  H   UNL     1      35.090 -17.693 -25.271  0.00  0.00    +0.292 HD
ENDBRANCH  33  36
ENDBRANCH   3  28
BRANCH   4  38
ATOM     38  C   UNL     1      32.308 -14.273 -19.917  0.00  0.00    +0.185 C 
BRANCH  38  39
ATOM     39  O   UNL     1      31.118 -14.546 -19.199  0.00  0.00    -0.378 OA
ATOM     40  H   UNL     1      31.198 -14.195 -18.298  0.00  0.00    +0.211 HD
ENDBRANCH  38  39
ENDBRANCH   4  38
TORSDOF 9
ENDMDL
