MODEL 1
REMARK VINA RESULT:     -12.3      0.000      0.000
REMARK  Name = 68289010
REMARK  3 active torsions:
REMARK  status: ('A' for Active; 'I' for Inactive)
REMARK    1  A    between atoms: N_1  and  C_16
REMARK    2  A    between atoms: C_8  and  C_12
REMARK    3  A    between atoms: C_16  and  C_20
REMARK                            x       y       z     vdW  Elec       q    Type
REMARK                         _______ _______ _______ _____ _____    ______ ____
ROOT
ATOM      1  N   UNL     1      35.269 -22.235 -17.018  0.00  0.00    -0.165 N 
ATOM      2  N   UNL     1      34.418 -23.095 -16.423  0.00  0.00    -0.033 NA
ATOM      3  N   UNL     1      35.186 -20.717 -18.932  0.00  0.00    -0.378 NA
ATOM      4  N   UNL     1      33.267 -23.060 -17.095  0.00  0.00    -0.086 NA
ATOM      5  N   UNL     1      32.504 -21.805 -19.054  0.00  0.00    -0.208 NA
ATOM      6  C   UNL     1      34.685 -21.628 -18.084  0.00  0.00    +0.267 C 
ATOM      7  C   UNL     1      33.412 -22.166 -18.115  0.00  0.00    +0.098 C 
ATOM      8  C   UNL     1      34.270 -20.366 -19.863  0.00  0.00    +0.140 C 
ATOM      9  C   UNL     1      32.985 -20.886 -19.921  0.00  0.00    +0.195 C 
ENDROOT
BRANCH   8  12
ATOM     10  N   UNL     1      34.692 -18.020 -22.524  0.00  0.00    -0.208 N 
ATOM     11  N   UNL     1      35.930 -17.880 -22.017  0.00  0.00    -0.176 NA
ATOM     12  C   UNL     1      34.702 -19.393 -20.825  0.00  0.00    +0.064 C 
ATOM     13  C   UNL     1      33.918 -18.915 -21.845  0.00  0.00    +0.088 C 
ATOM     14  C   UNL     1      35.930 -18.721 -20.980  0.00  0.00    +0.121 C 
ATOM     15  C   UNL     1      34.301 -17.255 -23.683  0.00  0.00    +0.140 C 
ENDBRANCH   8  12
BRANCH   1  16
ATOM     16  C   UNL     1      36.677 -22.044 -16.481  0.00  0.00    +0.122 C 
ATOM     17  C   UNL     1      37.065 -20.561 -16.447  0.00  0.00    +0.028 C 
BRANCH  16  20
ATOM     18  N   UNL     1      36.376 -23.034 -12.856  0.00  0.00    -0.247 N 
ATOM     19  N   UNL     1      37.368 -24.477 -11.467  0.00  0.00    -0.227 NA
ATOM     20  C   UNL     1      36.859 -22.690 -15.146  0.00  0.00    +0.013 C 
ATOM     21  C   UNL     1      36.131 -22.374 -14.058  0.00  0.00    +0.068 C 
ATOM     22  C   UNL     1      37.885 -23.721 -15.018  0.00  0.00    +0.002 C 
ATOM     23  C   UNL     1      37.345 -24.019 -12.702  0.00  0.00    +0.139 C 
ATOM     24  C   UNL     1      38.115 -24.354 -13.851  0.00  0.00    +0.035 C 
ATOM     25  C   UNL     1      35.767 -22.879 -11.637  0.00  0.00    +0.092 C 
ATOM     26  C   UNL     1      36.393 -23.776 -10.803  0.00  0.00    +0.117 C 
ENDBRANCH  16  20
ENDBRANCH   1  16
TORSDOF 3
ENDMDL
MODEL 2
REMARK VINA RESULT:     -12.2      1.743      9.096
REMARK  Name = 68289010
REMARK  3 active torsions:
REMARK  status: ('A' for Active; 'I' for Inactive)
REMARK    1  A    between atoms: N_1  and  C_16
REMARK    2  A    between atoms: C_8  and  C_12
REMARK    3  A    between atoms: C_16  and  C_20
REMARK                            x       y       z     vdW  Elec       q    Type
REMARK                         _______ _______ _______ _____ _____    ______ ____
ROOT
ATOM      1  N   UNL     1      33.945 -19.770 -20.266  0.00  0.00    -0.165 N 
ATOM      2  N   UNL     1      32.729 -19.802 -20.848  0.00  0.00    -0.033 NA
ATOM      3  N   UNL     1      35.033 -20.908 -18.397  0.00  0.00    -0.378 NA
ATOM      4  N   UNL     1      31.988 -20.695 -20.192  0.00  0.00    -0.086 NA
ATOM      5  N   UNL     1      32.423 -22.159 -18.279  0.00  0.00    -0.208 NA
ATOM      6  C   UNL     1      34.012 -20.641 -19.225  0.00  0.00    +0.267 C 
ATOM      7  C   UNL     1      32.758 -21.219 -19.195  0.00  0.00    +0.098 C 
ATOM      8  C   UNL     1      34.686 -21.847 -17.488  0.00  0.00    +0.140 C 
ATOM      9  C   UNL     1      33.436 -22.447 -17.431  0.00  0.00    +0.195 C 
ENDROOT
BRANCH   8  12
ATOM     10  N   UNL     1      36.721 -23.155 -14.859  0.00  0.00    -0.208 N 
ATOM     11  N   UNL     1      37.679 -22.388 -15.408  0.00  0.00    -0.176 NA
ATOM     12  C   UNL     1      35.708 -22.210 -16.548  0.00  0.00    +0.064 C 
ATOM     13  C   UNL     1      35.521 -23.084 -15.505  0.00  0.00    +0.088 C 
ATOM     14  C   UNL     1      37.054 -21.814 -16.439  0.00  0.00    +0.121 C 
ATOM     15  C   UNL     1      37.020 -23.950 -13.692  0.00  0.00    +0.140 C 
ENDBRANCH   8  12
BRANCH   1  16
ATOM     16  C   UNL     1      35.029 -18.844 -20.790  0.00  0.00    +0.122 C 
ATOM     17  C   UNL     1      36.325 -19.610 -21.082  0.00  0.00    +0.028 C 
BRANCH  16  20
ATOM     18  N   UNL     1      34.097 -16.085 -23.184  0.00  0.00    -0.247 N 
ATOM     19  N   UNL     1      33.311 -15.927 -25.272  0.00  0.00    -0.227 NA
ATOM     20  C   UNL     1      34.572 -18.065 -21.981  0.00  0.00    +0.013 C 
ATOM     21  C   UNL     1      34.538 -16.719 -22.027  0.00  0.00    +0.068 C 
ATOM     22  C   UNL     1      34.139 -18.810 -23.161  0.00  0.00    +0.002 C 
ATOM     23  C   UNL     1      33.677 -16.765 -24.323  0.00  0.00    +0.139 C 
ATOM     24  C   UNL     1      33.712 -18.187 -24.277  0.00  0.00    +0.035 C 
ATOM     25  C   UNL     1      33.979 -14.746 -23.454  0.00  0.00    +0.092 C 
ATOM     26  C   UNL     1      33.496 -14.675 -24.740  0.00  0.00    +0.117 C 
ENDBRANCH  16  20
ENDBRANCH   1  16
TORSDOF 3
ENDMDL
MODEL 3
REMARK VINA RESULT:     -11.5      4.824      8.409
REMARK  Name = 68289010
REMARK  3 active torsions:
REMARK  status: ('A' for Active; 'I' for Inactive)
REMARK    1  A    between atoms: N_1  and  C_16
REMARK    2  A    between atoms: C_8  and  C_12
REMARK    3  A    between atoms: C_16  and  C_20
REMARK                            x       y       z     vdW  Elec       q    Type
REMARK                         _______ _______ _______ _____ _____    ______ ____
ROOT
ATOM      1  N   UNL     1      34.401 -16.503 -22.792  0.00  0.00    -0.165 N 
ATOM      2  N   UNL     1      34.449 -17.549 -23.641  0.00  0.00    -0.033 NA
ATOM      3  N   UNL     1      33.626 -14.188 -22.892  0.00  0.00    -0.378 NA
ATOM      4  N   UNL     1      33.930 -17.153 -24.804  0.00  0.00    -0.086 NA
ATOM      5  N   UNL     1      32.986 -15.035 -25.588  0.00  0.00    -0.208 NA
ATOM      6  C   UNL     1      33.851 -15.413 -23.389  0.00  0.00    +0.267 C 
ATOM      7  C   UNL     1      33.557 -15.848 -24.667  0.00  0.00    +0.098 C 
ATOM      8  C   UNL     1      33.056 -13.386 -23.821  0.00  0.00    +0.140 C 
ATOM      9  C   UNL     1      32.748 -13.792 -25.112  0.00  0.00    +0.195 C 
ENDROOT
BRANCH   8  12
ATOM     10  N   UNL     1      31.873 -10.361 -22.333  0.00  0.00    -0.208 N 
ATOM     11  N   UNL     1      32.770  -9.775 -23.146  0.00  0.00    -0.176 NA
ATOM     12  C   UNL     1      32.771 -12.045 -23.395  0.00  0.00    +0.064 C 
ATOM     13  C   UNL     1      31.835 -11.720 -22.444  0.00  0.00    +0.088 C 
ATOM     14  C   UNL     1      33.314 -10.809 -23.792  0.00  0.00    +0.121 C 
ATOM     15  C   UNL     1      31.065  -9.550 -21.454  0.00  0.00    +0.140 C 
ENDBRANCH   8  12
BRANCH   1  16
ATOM     16  C   UNL     1      34.921 -16.636 -21.371  0.00  0.00    +0.122 C 
ATOM     17  C   UNL     1      34.210 -15.663 -20.423  0.00  0.00    +0.028 C 
BRANCH  16  20
ATOM     18  N   UNL     1      33.706 -19.991 -20.154  0.00  0.00    -0.247 N 
ATOM     19  N   UNL     1      34.621 -21.926 -19.508  0.00  0.00    -0.227 NA
ATOM     20  C   UNL     1      34.838 -18.043 -20.875  0.00  0.00    +0.013 C 
ATOM     21  C   UNL     1      33.679 -18.677 -20.613  0.00  0.00    +0.068 C 
ATOM     22  C   UNL     1      36.088 -18.770 -20.664  0.00  0.00    +0.002 C 
ATOM     23  C   UNL     1      34.879 -20.709 -19.943  0.00  0.00    +0.139 C 
ATOM     24  C   UNL     1      36.105 -20.041 -20.219  0.00  0.00    +0.035 C 
ATOM     25  C   UNL     1      32.666 -20.822 -19.827  0.00  0.00    +0.092 C 
ATOM     26  C   UNL     1      33.253 -22.002 -19.434  0.00  0.00    +0.117 C 
ENDBRANCH  16  20
ENDBRANCH   1  16
TORSDOF 3
ENDMDL
MODEL 4
REMARK VINA RESULT:     -11.3      5.762     12.338
REMARK  Name = 68289010
REMARK  3 active torsions:
REMARK  status: ('A' for Active; 'I' for Inactive)
REMARK    1  A    between atoms: N_1  and  C_16
REMARK    2  A    between atoms: C_8  and  C_12
REMARK    3  A    between atoms: C_16  and  C_20
REMARK                            x       y       z     vdW  Elec       q    Type
REMARK                         _______ _______ _______ _____ _____    ______ ____
ROOT
ATOM      1  N   UNL     1      32.900 -13.677 -23.058  0.00  0.00    -0.165 N 
ATOM      2  N   UNL     1      32.525 -13.176 -24.252  0.00  0.00    -0.033 NA
ATOM      3  N   UNL     1      33.956 -15.733 -22.264  0.00  0.00    -0.378 NA
ATOM      4  N   UNL     1      32.837 -14.075 -25.187  0.00  0.00    -0.086 NA
ATOM      5  N   UNL     1      33.883 -16.287 -25.107  0.00  0.00    -0.208 NA
ATOM      6  C   UNL     1      33.460 -14.907 -23.198  0.00  0.00    +0.267 C 
ATOM      7  C   UNL     1      33.411 -15.141 -24.559  0.00  0.00    +0.098 C 
ATOM      8  C   UNL     1      34.424 -16.872 -22.824  0.00  0.00    +0.140 C 
ATOM      9  C   UNL     1      34.390 -17.137 -24.186  0.00  0.00    +0.195 C 
ENDROOT
BRANCH   8  12
ATOM     10  N   UNL     1      35.162 -19.552 -20.581  0.00  0.00    -0.208 N 
ATOM     11  N   UNL     1      36.383 -18.992 -20.535  0.00  0.00    -0.176 NA
ATOM     12  C   UNL     1      34.980 -17.831 -21.913  0.00  0.00    +0.064 C 
ATOM     13  C   UNL     1      34.285 -18.894 -21.393  0.00  0.00    +0.088 C 
ATOM     14  C   UNL     1      36.266 -17.941 -21.350  0.00  0.00    +0.121 C 
ATOM     15  C   UNL     1      34.889 -20.741 -19.810  0.00  0.00    +0.140 C 
ENDBRANCH   8  12
BRANCH   1  16
ATOM     16  C   UNL     1      32.680 -12.882 -21.783  0.00  0.00    +0.122 C 
ATOM     17  C   UNL     1      33.955 -12.828 -20.932  0.00  0.00    +0.028 C 
BRANCH  16  20
ATOM     18  N   UNL     1      32.248  -9.323 -22.947  0.00  0.00    -0.247 N 
ATOM     19  N   UNL     1      30.673  -7.741 -22.824  0.00  0.00    -0.227 NA
ATOM     20  C   UNL     1      32.149 -11.513 -22.061  0.00  0.00    +0.013 C 
ATOM     21  C   UNL     1      32.830 -10.570 -22.739  0.00  0.00    +0.068 C 
ATOM     22  C   UNL     1      30.813 -11.184 -21.568  0.00  0.00    +0.002 C 
ATOM     23  C   UNL     1      30.980  -8.978 -22.492  0.00  0.00    +0.139 C 
ATOM     24  C   UNL     1      30.258  -9.974 -21.775  0.00  0.00    +0.035 C 
ATOM     25  C   UNL     1      32.749  -8.225 -23.600  0.00  0.00    +0.092 C 
ATOM     26  C   UNL     1      31.764  -7.270 -23.511  0.00  0.00    +0.117 C 
ENDBRANCH  16  20
ENDBRANCH   1  16
TORSDOF 3
ENDMDL
MODEL 5
REMARK VINA RESULT:     -11.2      3.830      6.938
REMARK  Name = 68289010
REMARK  3 active torsions:
REMARK  status: ('A' for Active; 'I' for Inactive)
REMARK    1  A    between atoms: N_1  and  C_16
REMARK    2  A    between atoms: C_8  and  C_12
REMARK    3  A    between atoms: C_16  and  C_20
REMARK                            x       y       z     vdW  Elec       q    Type
REMARK                         _______ _______ _______ _____ _____    ______ ____
ROOT
ATOM      1  N   UNL     1      34.687 -18.868 -22.776  0.00  0.00    -0.165 N 
ATOM      2  N   UNL     1      34.483 -19.854 -23.673  0.00  0.00    -0.033 NA
ATOM      3  N   UNL     1      34.203 -16.476 -22.647  0.00  0.00    -0.378 NA
ATOM      4  N   UNL     1      33.858 -19.324 -24.726  0.00  0.00    -0.086 NA
ATOM      5  N   UNL     1      33.087 -17.061 -25.257  0.00  0.00    -0.208 NA
ATOM      6  C   UNL     1      34.199 -17.684 -23.231  0.00  0.00    +0.267 C 
ATOM      7  C   UNL     1      33.676 -17.995 -24.472  0.00  0.00    +0.098 C 
ATOM      8  C   UNL     1      33.612 -15.553 -23.441  0.00  0.00    +0.140 C 
ATOM      9  C   UNL     1      33.077 -15.833 -24.690  0.00  0.00    +0.195 C 
ENDROOT
BRANCH   8  12
ATOM     10  N   UNL     1      33.259 -12.061 -22.777  0.00  0.00    -0.208 N 
ATOM     11  N   UNL     1      33.688 -12.394 -21.547  0.00  0.00    -0.176 NA
ATOM     12  C   UNL     1      33.561 -14.220 -22.913  0.00  0.00    +0.064 C 
ATOM     13  C   UNL     1      33.167 -13.120 -23.633  0.00  0.00    +0.088 C 
ATOM     14  C   UNL     1      33.870 -13.714 -21.636  0.00  0.00    +0.121 C 
ATOM     15  C   UNL     1      32.949 -10.685 -23.080  0.00  0.00    +0.140 C 
ENDBRANCH   8  12
BRANCH   1  16
ATOM     16  C   UNL     1      35.381 -19.156 -21.457  0.00  0.00    +0.122 C 
ATOM     17  C   UNL     1      35.908 -17.868 -20.810  0.00  0.00    +0.028 C 
BRANCH  16  20
ATOM     18  N   UNL     1      34.075 -21.425 -18.745  0.00  0.00    -0.247 N 
ATOM     19  N   UNL     1      32.080 -22.027 -17.935  0.00  0.00    -0.227 NA
ATOM     20  C   UNL     1      34.505 -19.921 -20.519  0.00  0.00    +0.013 C 
ATOM     21  C   UNL     1      34.973 -20.757 -19.572  0.00  0.00    +0.068 C 
ATOM     22  C   UNL     1      33.059 -19.750 -20.638  0.00  0.00    +0.002 C 
ATOM     23  C   UNL     1      32.694 -21.284 -18.833  0.00  0.00    +0.139 C 
ATOM     24  C   UNL     1      32.197 -20.401 -19.833  0.00  0.00    +0.035 C 
ATOM     25  C   UNL     1      34.320 -22.312 -17.727  0.00  0.00    +0.092 C 
ATOM     26  C   UNL     1      33.081 -22.665 -17.247  0.00  0.00    +0.117 C 
ENDBRANCH  16  20
ENDBRANCH   1  16
TORSDOF 3
ENDMDL
MODEL 6
REMARK VINA RESULT:     -11.1      1.675      8.714
REMARK  Name = 68289010
REMARK  3 active torsions:
REMARK  status: ('A' for Active; 'I' for Inactive)
REMARK    1  A    between atoms: N_1  and  C_16
REMARK    2  A    between atoms: C_8  and  C_12
REMARK    3  A    between atoms: C_16  and  C_20
REMARK                            x       y       z     vdW  Elec       q    Type
REMARK                         _______ _______ _______ _____ _____    ______ ____
ROOT
ATOM      1  N   UNL     1      34.025 -20.848 -19.267  0.00  0.00    -0.165 N 
ATOM      2  N   UNL     1      32.812 -20.655 -19.823  0.00  0.00    -0.033 NA
ATOM      3  N   UNL     1      34.898 -22.012 -17.304  0.00  0.00    -0.378 NA
ATOM      4  N   UNL     1      31.912 -21.280 -19.063  0.00  0.00    -0.086 NA
ATOM      5  N   UNL     1      32.076 -22.603 -17.009  0.00  0.00    -0.208 NA
ATOM      6  C   UNL     1      33.933 -21.601 -18.140  0.00  0.00    +0.267 C 
ATOM      7  C   UNL     1      32.581 -21.865 -18.027  0.00  0.00    +0.098 C 
ATOM      8  C   UNL     1      34.381 -22.748 -16.293  0.00  0.00    +0.140 C 
ATOM      9  C   UNL     1      33.030 -23.032 -16.152  0.00  0.00    +0.195 C 
ENDROOT
BRANCH   8  12
ATOM     10  N   UNL     1      36.379 -24.586 -13.971  0.00  0.00    -0.208 N 
ATOM     11  N   UNL     1      37.060 -23.432 -13.858  0.00  0.00    -0.176 NA
ATOM     12  C   UNL     1      35.329 -23.242 -15.335  0.00  0.00    +0.064 C 
ATOM     13  C   UNL     1      35.333 -24.524 -14.844  0.00  0.00    +0.088 C 
ATOM     14  C   UNL     1      36.414 -22.615 -14.693  0.00  0.00    +0.121 C 
ATOM     15  C   UNL     1      36.786 -25.736 -13.201  0.00  0.00    +0.140 C 
ENDBRANCH   8  12
BRANCH   1  16
ATOM     16  C   UNL     1      35.270 -20.258 -19.906  0.00  0.00    +0.122 C 
ATOM     17  C   UNL     1      36.187 -21.355 -20.461  0.00  0.00    +0.028 C 
BRANCH  16  20
ATOM     18  N   UNL     1      34.031 -18.517 -23.011  0.00  0.00    -0.247 N 
ATOM     19  N   UNL     1      34.018 -16.434 -23.824  0.00  0.00    -0.227 NA
ATOM     20  C   UNL     1      34.936 -19.243 -20.950  0.00  0.00    +0.013 C 
ATOM     21  C   UNL     1      34.298 -19.534 -22.099  0.00  0.00    +0.068 C 
ATOM     22  C   UNL     1      35.326 -17.856 -20.706  0.00  0.00    +0.002 C 
ATOM     23  C   UNL     1      34.389 -17.188 -22.809  0.00  0.00    +0.139 C 
ATOM     24  C   UNL     1      35.063 -16.877 -21.595  0.00  0.00    +0.035 C 
ATOM     25  C   UNL     1      33.403 -18.579 -24.229  0.00  0.00    +0.092 C 
ATOM     26  C   UNL     1      33.407 -17.290 -24.706  0.00  0.00    +0.117 C 
ENDBRANCH  16  20
ENDBRANCH   1  16
TORSDOF 3
ENDMDL
MODEL 7
REMARK VINA RESULT:     -11.0      2.152      3.852
REMARK  Name = 68289010
REMARK  3 active torsions:
REMARK  status: ('A' for Active; 'I' for Inactive)
REMARK    1  A    between atoms: N_1  and  C_16
REMARK    2  A    between atoms: C_8  and  C_12
REMARK    3  A    between atoms: C_16  and  C_20
REMARK                            x       y       z     vdW  Elec       q    Type
REMARK                         _______ _______ _______ _____ _____    ______ ____
ROOT
ATOM      1  N   UNL     1      33.847 -23.408 -13.470  0.00  0.00    -0.165 N 
ATOM      2  N   UNL     1      32.827 -24.049 -12.865  0.00  0.00    -0.033 NA
ATOM      3  N   UNL     1      34.261 -22.452 -15.681  0.00  0.00    -0.378 NA
ATOM      4  N   UNL     1      31.832 -24.153 -13.746  0.00  0.00    -0.086 NA
ATOM      5  N   UNL     1      31.566 -23.441 -16.073  0.00  0.00    -0.208 NA
ATOM      6  C   UNL     1      33.531 -23.086 -14.752  0.00  0.00    +0.267 C 
ATOM      7  C   UNL     1      32.245 -23.569 -14.907  0.00  0.00    +0.098 C 
ATOM      8  C   UNL     1      33.573 -22.330 -16.839  0.00  0.00    +0.140 C 
ATOM      9  C   UNL     1      32.282 -22.803 -17.027  0.00  0.00    +0.195 C 
ENDROOT
BRANCH   8  12
ATOM     10  N   UNL     1      34.640 -20.578 -19.764  0.00  0.00    -0.208 N 
ATOM     11  N   UNL     1      35.871 -20.758 -19.252  0.00  0.00    -0.176 NA
ATOM     12  C   UNL     1      34.263 -21.664 -17.906  0.00  0.00    +0.064 C 
ATOM     13  C   UNL     1      33.643 -21.103 -18.994  0.00  0.00    +0.088 C 
ATOM     14  C   UNL     1      35.634 -21.422 -18.118  0.00  0.00    +0.121 C 
ATOM     15  C   UNL     1      34.480 -19.883 -21.018  0.00  0.00    +0.140 C 
ENDBRANCH   8  12
BRANCH   1  16
ATOM     16  C   UNL     1      35.138 -23.129 -12.721  0.00  0.00    +0.122 C 
ATOM     17  C   UNL     1      34.936 -23.225 -11.204  0.00  0.00    +0.028 C 
BRANCH  16  20
ATOM     18  N   UNL     1      38.348 -24.456 -14.186  0.00  0.00    -0.247 N 
ATOM     19  N   UNL     1      39.326 -26.450 -14.449  0.00  0.00    -0.227 NA
ATOM     20  C   UNL     1      36.254 -24.010 -13.182  0.00  0.00    +0.013 C 
ATOM     21  C   UNL     1      37.364 -23.554 -13.794  0.00  0.00    +0.068 C 
ATOM     22  C   UNL     1      36.130 -25.448 -12.954  0.00  0.00    +0.002 C 
ATOM     23  C   UNL     1      38.261 -25.829 -13.984  0.00  0.00    +0.139 C 
ATOM     24  C   UNL     1      37.089 -26.314 -13.337  0.00  0.00    +0.035 C 
ATOM     25  C   UNL     1      39.544 -24.222 -14.816  0.00  0.00    +0.092 C 
ATOM     26  C   UNL     1      40.124 -25.460 -14.965  0.00  0.00    +0.117 C 
ENDBRANCH  16  20
ENDBRANCH   1  16
TORSDOF 3
ENDMDL
MODEL 8
REMARK VINA RESULT:     -10.6      2.898      4.319
REMARK  Name = 68289010
REMARK  3 active torsions:
REMARK  status: ('A' for Active; 'I' for Inactive)
REMARK    1  A    between atoms: N_1  and  C_16
REMARK    2  A    between atoms: C_8  and  C_12
REMARK    3  A    between atoms: C_16  and  C_20
REMARK                            x       y       z     vdW  Elec       q    Type
REMARK                         _______ _______ _______ _____ _____    ______ ____
ROOT
ATOM      1  N   UNL     1      34.536 -21.246 -18.985  0.00  0.00    -0.165 N 
ATOM      2  N   UNL     1      35.466 -21.392 -18.020  0.00  0.00    -0.033 NA
ATOM      3  N   UNL     1      34.232 -19.803 -20.933  0.00  0.00    -0.378 NA
ATOM      4  N   UNL     1      36.428 -20.497 -18.243  0.00  0.00    -0.086 NA
ATOM      5  N   UNL     1      36.764 -18.784 -19.960  0.00  0.00    -0.208 NA
ATOM      6  C   UNL     1      34.880 -20.256 -19.850  0.00  0.00    +0.267 C 
ATOM      7  C   UNL     1      36.086 -19.793 -19.360  0.00  0.00    +0.098 C 
ATOM      8  C   UNL     1      34.919 -18.797 -21.522  0.00  0.00    +0.140 C 
ATOM      9  C   UNL     1      36.132 -18.310 -21.057  0.00  0.00    +0.195 C 
ENDROOT
BRANCH   8  12
ATOM     10  N   UNL     1      33.658 -16.782 -24.189  0.00  0.00    -0.208 N 
ATOM     11  N   UNL     1      33.198 -17.951 -24.668  0.00  0.00    -0.176 NA
ATOM     12  C   UNL     1      34.315 -18.235 -22.696  0.00  0.00    +0.064 C 
ATOM     13  C   UNL     1      34.334 -16.899 -23.010  0.00  0.00    +0.088 C 
ATOM     14  C   UNL     1      33.602 -18.834 -23.752  0.00  0.00    +0.121 C 
ATOM     15  C   UNL     1      33.414 -15.562 -24.919  0.00  0.00    +0.140 C 
ENDBRANCH   8  12
BRANCH   1  16
ATOM     16  C   UNL     1      33.302 -22.131 -19.010  0.00  0.00    +0.122 C 
ATOM     17  C   UNL     1      33.549 -23.411 -19.818  0.00  0.00    +0.028 C 
BRANCH  16  20
ATOM     18  N   UNL     1      33.014 -23.236 -15.417  0.00  0.00    -0.247 N 
ATOM     19  N   UNL     1      31.427 -23.282 -13.842  0.00  0.00    -0.227 NA
ATOM     20  C   UNL     1      32.806 -22.439 -17.635  0.00  0.00    +0.013 C 
ATOM     21  C   UNL     1      33.568 -22.988 -16.670  0.00  0.00    +0.068 C 
ATOM     22  C   UNL     1      31.414 -22.124 -17.322  0.00  0.00    +0.002 C 
ATOM     23  C   UNL     1      31.693 -22.949 -15.089  0.00  0.00    +0.139 C 
ATOM     24  C   UNL     1      30.885 -22.368 -16.107  0.00  0.00    +0.035 C 
ATOM     25  C   UNL     1      33.592 -23.781 -14.300  0.00  0.00    +0.092 C 
ATOM     26  C   UNL     1      32.599 -23.797 -13.348  0.00  0.00    +0.117 C 
ENDBRANCH  16  20
ENDBRANCH   1  16
TORSDOF 3
ENDMDL
MODEL 9
REMARK VINA RESULT:     -10.5      7.621     12.375
REMARK  Name = 68289010
REMARK  3 active torsions:
REMARK  status: ('A' for Active; 'I' for Inactive)
REMARK    1  A    between atoms: N_1  and  C_16
REMARK    2  A    between atoms: C_8  and  C_12
REMARK    3  A    between atoms: C_16  and  C_20
REMARK                            x       y       z     vdW  Elec       q    Type
REMARK                         _______ _______ _______ _____ _____    ______ ____
ROOT
ATOM      1  N   UNL     1      32.193 -12.339 -22.225  0.00  0.00    -0.165 N 
ATOM      2  N   UNL     1      32.142 -13.138 -21.141  0.00  0.00    -0.033 NA
ATOM      3  N   UNL     1      31.705  -9.994 -22.709  0.00  0.00    -0.378 NA
ATOM      4  N   UNL     1      31.711 -12.404 -20.114  0.00  0.00    -0.086 NA
ATOM      5  N   UNL     1      31.055 -10.057 -19.886  0.00  0.00    -0.208 NA
ATOM      6  C   UNL     1      31.797 -11.075 -21.921  0.00  0.00    +0.267 C 
ATOM      7  C   UNL     1      31.495 -11.138 -20.573  0.00  0.00    +0.098 C 
ATOM      8  C   UNL     1      31.265  -8.922 -22.011  0.00  0.00    +0.140 C 
ATOM      9  C   UNL     1      30.954  -8.951 -20.658  0.00  0.00    +0.195 C 
ENDROOT
BRANCH   8  12
ATOM     10  N   UNL     1      30.810  -5.598 -23.238  0.00  0.00    -0.208 N 
ATOM     11  N   UNL     1      31.029  -6.161 -24.439  0.00  0.00    -0.176 NA
ATOM     12  C   UNL     1      31.128  -7.705 -22.759  0.00  0.00    +0.064 C 
ATOM     13  C   UNL     1      30.859  -6.481 -22.199  0.00  0.00    +0.088 C 
ATOM     14  C   UNL     1      31.222  -7.448 -24.140  0.00  0.00    +0.121 C 
ATOM     15  C   UNL     1      30.554  -4.181 -23.147  0.00  0.00    +0.140 C 
ENDBRANCH   8  12
BRANCH   1  16
ATOM     16  C   UNL     1      32.652 -12.884 -23.566  0.00  0.00    +0.122 C 
ATOM     17  C   UNL     1      33.606 -11.909 -24.268  0.00  0.00    +0.028 C 
BRANCH  16  20
ATOM     18  N   UNL     1      34.316 -16.012 -22.280  0.00  0.00    -0.247 N 
ATOM     19  N   UNL     1      34.914 -18.004 -23.103  0.00  0.00    -0.227 NA
ATOM     20  C   UNL     1      33.255 -14.245 -23.440  0.00  0.00    +0.013 C 
ATOM     21  C   UNL     1      33.777 -14.729 -22.297  0.00  0.00    +0.068 C 
ATOM     22  C   UNL     1      33.277 -15.097 -24.627  0.00  0.00    +0.002 C 
ATOM     23  C   UNL     1      34.352 -16.848 -23.392  0.00  0.00    +0.139 C 
ATOM     24  C   UNL     1      33.801 -16.338 -24.602  0.00  0.00    +0.035 C 
ATOM     25  C   UNL     1      34.893 -16.702 -21.245  0.00  0.00    +0.092 C 
ATOM     26  C   UNL     1      35.251 -17.920 -21.775  0.00  0.00    +0.117 C 
ENDBRANCH  16  20
ENDBRANCH   1  16
TORSDOF 3
ENDMDL
