MODEL 1
REMARK VINA RESULT:     -12.4      0.000      0.000
REMARK  Name = 5287936
REMARK  3 active torsions:
REMARK  status: ('A' for Active; 'I' for Inactive)
REMARK    1  A    between atoms: C_5  and  C_10
REMARK    2  A    between atoms: C_7  and  C_21
REMARK    3  A    between atoms: C_11  and  N_17
REMARK                            x       y       z     vdW  Elec       q    Type
REMARK                         _______ _______ _______ _____ _____    ______ ____
ROOT
ATOM      1  N   UNL     1      33.011 -22.150 -17.248  0.00  0.00    -0.191 N 
ATOM      2  N   UNL     1      34.203 -22.516 -16.715  0.00  0.00    -0.162 NA
ATOM      3  N   UNL     1      31.520 -21.267 -18.590  0.00  0.00    -0.127 NA
ATOM      4  N   UNL     1      30.851 -21.911 -17.569  0.00  0.00    -0.127 NA
ATOM      5  C   UNL     1      32.808 -21.419 -18.383  0.00  0.00    +0.187 A 
ATOM      6  C   UNL     1      31.754 -22.438 -16.769  0.00  0.00    +0.187 A 
ATOM      7  C   UNL     1      34.096 -23.222 -15.625  0.00  0.00    +0.101 C 
ATOM      8  C   UNL     1      31.670 -23.189 -15.581  0.00  0.00    +0.042 C 
ATOM      9  C   UNL     1      32.796 -23.597 -14.980  0.00  0.00    +0.024 C 
ENDROOT
BRANCH   5  10
ATOM     10  C   UNL     1      33.870 -20.904 -19.212  0.00  0.00    +0.039 C 
ATOM     11  C   UNL     1      34.636 -19.393 -20.934  0.00  0.00    +0.054 C 
ATOM     12  C   UNL     1      33.607 -19.891 -20.134  0.00  0.00    +0.018 C 
ATOM     13  C   UNL     1      35.161 -21.419 -19.090  0.00  0.00    +0.003 C 
ATOM     14  C   UNL     1      35.926 -19.908 -20.812  0.00  0.00    +0.015 C 
ATOM     15  C   UNL     1      36.188 -20.921 -19.890  0.00  0.00    +0.001 C 
BRANCH  11  17
ATOM     16  O   UNL     1      34.896 -16.547 -20.463  0.00  0.00    -0.275 OA
ATOM     17  N   UNL     1      34.373 -18.379 -21.857  0.00  0.00    -0.257 N 
ATOM     18  C   UNL     1      33.966 -18.766 -23.243  0.00  0.00    +0.120 C 
ATOM     19  C   UNL     1      34.562 -16.984 -21.567  0.00  0.00    +0.230 C 
ATOM     20  C   UNL     1      34.374 -15.990 -22.691  0.00  0.00    +0.095 C 
ENDBRANCH  11  17
ENDBRANCH   5  10
BRANCH   7  21
ATOM     21  C   UNL     1      35.333 -23.690 -14.946  0.00  0.00    +0.019 C 
ATOM     22  C   UNL     1      36.556 -23.089 -15.238  0.00  0.00    +0.002 C 
ATOM     23  C   UNL     1      35.265 -24.729 -14.020  0.00  0.00    +0.002 C 
ATOM     24  C   UNL     1      37.716 -23.529 -14.602  0.00  0.00    +0.000 C 
ATOM     25  C   UNL     1      36.425 -25.168 -13.383  0.00  0.00    +0.000 C 
ATOM     26  C   UNL     1      37.651 -24.569 -13.675  0.00  0.00    +0.000 C 
ENDBRANCH   7  21
TORSDOF 3
ENDMDL
MODEL 2
REMARK VINA RESULT:     -12.2      3.596      7.478
REMARK  Name = 5287936
REMARK  3 active torsions:
REMARK  status: ('A' for Active; 'I' for Inactive)
REMARK    1  A    between atoms: C_5  and  C_10
REMARK    2  A    between atoms: C_7  and  C_21
REMARK    3  A    between atoms: C_11  and  N_17
REMARK                            x       y       z     vdW  Elec       q    Type
REMARK                         _______ _______ _______ _____ _____    ______ ____
ROOT
ATOM      1  N   UNL     1      32.799 -23.347 -14.596  0.00  0.00    -0.191 N 
ATOM      2  N   UNL     1      33.564 -22.779 -15.561  0.00  0.00    -0.162 NA
ATOM      3  N   UNL     1      32.187 -24.258 -12.699  0.00  0.00    -0.127 NA
ATOM      4  N   UNL     1      31.076 -24.173 -13.512  0.00  0.00    -0.127 NA
ATOM      5  C   UNL     1      33.207 -23.762 -13.362  0.00  0.00    +0.187 A 
ATOM      6  C   UNL     1      31.453 -23.624 -14.648  0.00  0.00    +0.187 A 
ATOM      7  C   UNL     1      32.905 -22.473 -16.642  0.00  0.00    +0.101 C 
ATOM      8  C   UNL     1      30.770 -23.298 -15.836  0.00  0.00    +0.042 C 
ATOM      9  C   UNL     1      31.443 -22.732 -16.847  0.00  0.00    +0.024 C 
ENDROOT
BRANCH   5  10
ATOM     10  C   UNL     1      34.564 -23.658 -12.883  0.00  0.00    +0.039 C 
ATOM     11  C   UNL     1      36.942 -23.780 -13.289  0.00  0.00    +0.054 C 
ATOM     12  C   UNL     1      35.630 -23.882 -13.753  0.00  0.00    +0.018 C 
ATOM     13  C   UNL     1      34.808 -23.334 -11.548  0.00  0.00    +0.003 C 
ATOM     14  C   UNL     1      37.187 -23.456 -11.955  0.00  0.00    +0.015 C 
ATOM     15  C   UNL     1      36.119 -23.233 -11.085  0.00  0.00    +0.001 C 
BRANCH  11  17
ATOM     16  O   UNL     1      38.954 -25.847 -13.029  0.00  0.00    -0.275 OA
ATOM     17  N   UNL     1      38.010 -24.003 -14.160  0.00  0.00    -0.257 N 
ATOM     18  C   UNL     1      38.126 -23.143 -15.379  0.00  0.00    +0.120 C 
ATOM     19  C   UNL     1      38.951 -25.076 -13.992  0.00  0.00    +0.230 C 
ATOM     20  C   UNL     1      39.983 -25.296 -15.075  0.00  0.00    +0.095 C 
ENDBRANCH  11  17
ENDBRANCH   5  10
BRANCH   7  21
ATOM     21  C   UNL     1      33.632 -21.838 -17.773  0.00  0.00    +0.019 C 
ATOM     22  C   UNL     1      35.023 -21.769 -17.754  0.00  0.00    +0.002 C 
ATOM     23  C   UNL     1      32.918 -21.312 -18.847  0.00  0.00    +0.002 C 
ATOM     24  C   UNL     1      35.704 -21.172 -18.814  0.00  0.00    +0.000 C 
ATOM     25  C   UNL     1      33.599 -20.715 -19.908  0.00  0.00    +0.000 C 
ATOM     26  C   UNL     1      34.992 -20.645 -19.891  0.00  0.00    +0.000 C 
ENDBRANCH   7  21
TORSDOF 3
ENDMDL
MODEL 3
REMARK VINA RESULT:     -11.6      2.722      7.689
REMARK  Name = 5287936
REMARK  3 active torsions:
REMARK  status: ('A' for Active; 'I' for Inactive)
REMARK    1  A    between atoms: C_5  and  C_10
REMARK    2  A    between atoms: C_7  and  C_21
REMARK    3  A    between atoms: C_11  and  N_17
REMARK                            x       y       z     vdW  Elec       q    Type
REMARK                         _______ _______ _______ _____ _____    ______ ____
ROOT
ATOM      1  N   UNL     1      33.624 -21.683 -17.951  0.00  0.00    -0.191 N 
ATOM      2  N   UNL     1      34.482 -20.976 -18.727  0.00  0.00    -0.162 NA
ATOM      3  N   UNL     1      32.843 -22.956 -16.348  0.00  0.00    -0.127 NA
ATOM      4  N   UNL     1      31.786 -22.580 -17.152  0.00  0.00    -0.127 NA
ATOM      5  C   UNL     1      33.932 -22.413 -16.840  0.00  0.00    +0.187 A 
ATOM      6  C   UNL     1      32.265 -21.816 -18.111  0.00  0.00    +0.187 A 
ATOM      7  C   UNL     1      33.908 -20.365 -19.724  0.00  0.00    +0.101 C 
ATOM      8  C   UNL     1      31.673 -21.158 -19.207  0.00  0.00    +0.042 C 
ATOM      9  C   UNL     1      32.442 -20.433 -20.031  0.00  0.00    +0.024 C 
ENDROOT
BRANCH   5  10
ATOM     10  C   UNL     1      35.266 -22.549 -16.308  0.00  0.00    +0.039 C 
ATOM     11  C   UNL     1      36.836 -23.673 -14.855  0.00  0.00    +0.054 C 
ATOM     12  C   UNL     1      35.546 -23.542 -15.369  0.00  0.00    +0.018 C 
ATOM     13  C   UNL     1      36.277 -21.687 -16.733  0.00  0.00    +0.003 C 
ATOM     14  C   UNL     1      37.847 -22.811 -15.281  0.00  0.00    +0.015 C 
ATOM     15  C   UNL     1      37.567 -21.817 -16.220  0.00  0.00    +0.001 C 
BRANCH  11  17
ATOM     16  O   UNL     1      36.629 -23.410 -11.979  0.00  0.00    -0.275 OA
ATOM     17  N   UNL     1      37.116 -24.667 -13.917  0.00  0.00    -0.257 N 
ATOM     18  C   UNL     1      37.515 -26.021 -14.411  0.00  0.00    +0.120 C 
ATOM     19  C   UNL     1      36.953 -24.480 -12.501  0.00  0.00    +0.230 C 
ATOM     20  C   UNL     1      37.159 -25.673 -11.596  0.00  0.00    +0.095 C 
ENDBRANCH  11  17
ENDBRANCH   5  10
BRANCH   7  21
ATOM     21  C   UNL     1      34.742 -19.550 -20.647  0.00  0.00    +0.019 C 
ATOM     22  C   UNL     1      36.063 -19.259 -20.315  0.00  0.00    +0.002 C 
ATOM     23  C   UNL     1      34.197 -19.078 -21.839  0.00  0.00    +0.002 C 
ATOM     24  C   UNL     1      36.844 -18.493 -21.180  0.00  0.00    +0.000 C 
ATOM     25  C   UNL     1      34.979 -18.313 -22.705  0.00  0.00    +0.000 C 
ATOM     26  C   UNL     1      36.302 -18.020 -22.375  0.00  0.00    +0.000 C 
ENDBRANCH   7  21
TORSDOF 3
ENDMDL
MODEL 4
REMARK VINA RESULT:     -11.5      1.480      3.807
REMARK  Name = 5287936
REMARK  3 active torsions:
REMARK  status: ('A' for Active; 'I' for Inactive)
REMARK    1  A    between atoms: C_5  and  C_10
REMARK    2  A    between atoms: C_7  and  C_21
REMARK    3  A    between atoms: C_11  and  N_17
REMARK                            x       y       z     vdW  Elec       q    Type
REMARK                         _______ _______ _______ _____ _____    ______ ____
ROOT
ATOM      1  N   UNL     1      34.800 -22.147 -16.737  0.00  0.00    -0.191 N 
ATOM      2  N   UNL     1      33.534 -22.480 -16.382  0.00  0.00    -0.162 NA
ATOM      3  N   UNL     1      36.491 -21.314 -17.855  0.00  0.00    -0.127 NA
ATOM      4  N   UNL     1      36.986 -21.934 -16.725  0.00  0.00    -0.127 NA
ATOM      5  C   UNL     1      35.186 -21.451 -17.847  0.00  0.00    +0.187 A 
ATOM      6  C   UNL     1      35.963 -22.430 -16.061  0.00  0.00    +0.187 A 
ATOM      7  C   UNL     1      33.461 -23.141 -15.262  0.00  0.00    +0.101 C 
ATOM      8  C   UNL     1      35.854 -23.160 -14.862  0.00  0.00    +0.042 C 
ATOM      9  C   UNL     1      34.642 -23.535 -14.428  0.00  0.00    +0.024 C 
ENDROOT
BRANCH   5  10
ATOM     10  C   UNL     1      34.271 -20.953 -18.845  0.00  0.00    +0.039 C 
ATOM     11  C   UNL     1      33.843 -19.608 -20.806  0.00  0.00    +0.054 C 
ATOM     12  C   UNL     1      34.727 -20.089 -19.840  0.00  0.00    +0.018 C 
ATOM     13  C   UNL     1      32.930 -21.336 -18.814  0.00  0.00    +0.003 C 
ATOM     14  C   UNL     1      32.502 -19.991 -20.776  0.00  0.00    +0.015 C 
ATOM     15  C   UNL     1      32.046 -20.855 -19.779  0.00  0.00    +0.001 C 
BRANCH  11  17
ATOM     16  O   UNL     1      34.713 -16.873 -20.426  0.00  0.00    -0.275 OA
ATOM     17  N   UNL     1      34.299 -18.744 -21.803  0.00  0.00    -0.257 N 
ATOM     18  C   UNL     1      34.408 -19.265 -23.201  0.00  0.00    +0.120 C 
ATOM     19  C   UNL     1      34.754 -17.407 -21.537  0.00  0.00    +0.230 C 
ATOM     20  C   UNL     1      35.352 -16.617 -22.679  0.00  0.00    +0.095 C 
ENDBRANCH  11  17
ENDBRANCH   5  10
BRANCH   7  21
ATOM     21  C   UNL     1      32.125 -23.561 -14.760  0.00  0.00    +0.019 C 
ATOM     22  C   UNL     1      32.027 -24.310 -13.590  0.00  0.00    +0.002 C 
ATOM     23  C   UNL     1      30.977 -23.203 -15.463  0.00  0.00    +0.002 C 
ATOM     24  C   UNL     1      30.774 -24.704 -13.120  0.00  0.00    +0.000 C 
ATOM     25  C   UNL     1      29.724 -23.596 -14.993  0.00  0.00    +0.000 C 
ATOM     26  C   UNL     1      29.623 -24.347 -13.822  0.00  0.00    +0.000 C 
ENDBRANCH   7  21
TORSDOF 3
ENDMDL
MODEL 5
REMARK VINA RESULT:     -11.2      1.419      2.019
REMARK  Name = 5287936
REMARK  3 active torsions:
REMARK  status: ('A' for Active; 'I' for Inactive)
REMARK    1  A    between atoms: C_5  and  C_10
REMARK    2  A    between atoms: C_7  and  C_21
REMARK    3  A    between atoms: C_11  and  N_17
REMARK                            x       y       z     vdW  Elec       q    Type
REMARK                         _______ _______ _______ _____ _____    ______ ____
ROOT
ATOM      1  N   UNL     1      33.440 -21.461 -18.217  0.00  0.00    -0.191 N 
ATOM      2  N   UNL     1      34.646 -21.706 -17.646  0.00  0.00    -0.162 NA
ATOM      3  N   UNL     1      31.904 -20.674 -19.567  0.00  0.00    -0.127 NA
ATOM      4  N   UNL     1      31.286 -21.492 -18.644  0.00  0.00    -0.127 NA
ATOM      5  C   UNL     1      33.189 -20.666 -19.297  0.00  0.00    +0.187 A 
ATOM      6  C   UNL     1      32.216 -21.960 -17.838  0.00  0.00    +0.187 A 
ATOM      7  C   UNL     1      34.589 -22.516 -16.627  0.00  0.00    +0.101 C 
ATOM      8  C   UNL     1      32.184 -22.821 -16.724  0.00  0.00    +0.042 C 
ATOM      9  C   UNL     1      33.327 -23.122 -16.093  0.00  0.00    +0.024 C 
ENDROOT
BRANCH   5  10
ATOM     10  C   UNL     1      34.206 -19.937 -20.016  0.00  0.00    +0.039 C 
ATOM     11  C   UNL     1      34.824 -18.260 -21.643  0.00  0.00    +0.054 C 
ATOM     12  C   UNL     1      33.841 -18.965 -20.948  0.00  0.00    +0.018 C 
ATOM     13  C   UNL     1      35.554 -20.204 -19.779  0.00  0.00    +0.003 C 
ATOM     14  C   UNL     1      36.172 -18.527 -21.405  0.00  0.00    +0.015 C 
ATOM     15  C   UNL     1      36.537 -19.499 -20.473  0.00  0.00    +0.001 C 
BRANCH  11  17
ATOM     16  O   UNL     1      33.679 -18.747 -24.257  0.00  0.00    -0.275 OA
ATOM     17  N   UNL     1      34.459 -17.288 -22.575  0.00  0.00    -0.257 N 
ATOM     18  C   UNL     1      34.615 -15.848 -22.199  0.00  0.00    +0.120 C 
ATOM     19  C   UNL     1      33.857 -17.599 -23.842  0.00  0.00    +0.230 C 
ATOM     20  C   UNL     1      33.383 -16.454 -24.707  0.00  0.00    +0.095 C 
ENDBRANCH  11  17
ENDBRANCH   5  10
BRANCH   7  21
ATOM     21  C   UNL     1      35.847 -22.869 -15.918  0.00  0.00    +0.019 C 
ATOM     22  C   UNL     1      35.840 -23.864 -14.942  0.00  0.00    +0.002 C 
ATOM     23  C   UNL     1      37.030 -22.202 -16.230  0.00  0.00    +0.002 C 
ATOM     24  C   UNL     1      37.019 -24.193 -14.276  0.00  0.00    +0.000 C 
ATOM     25  C   UNL     1      38.210 -22.533 -15.565  0.00  0.00    +0.000 C 
ATOM     26  C   UNL     1      38.205 -23.528 -14.587  0.00  0.00    +0.000 C 
ENDBRANCH   7  21
TORSDOF 3
ENDMDL
MODEL 6
REMARK VINA RESULT:     -10.9      3.211      7.348
REMARK  Name = 5287936
REMARK  3 active torsions:
REMARK  status: ('A' for Active; 'I' for Inactive)
REMARK    1  A    between atoms: C_5  and  C_10
REMARK    2  A    between atoms: C_7  and  C_21
REMARK    3  A    between atoms: C_11  and  N_17
REMARK                            x       y       z     vdW  Elec       q    Type
REMARK                         _______ _______ _______ _____ _____    ______ ____
ROOT
ATOM      1  N   UNL     1      35.002 -22.885 -15.337  0.00  0.00    -0.191 N 
ATOM      2  N   UNL     1      34.361 -22.366 -16.414  0.00  0.00    -0.162 NA
ATOM      3  N   UNL     1      35.370 -23.906 -13.434  0.00  0.00    -0.127 NA
ATOM      4  N   UNL     1      36.583 -23.474 -13.931  0.00  0.00    -0.127 NA
ATOM      5  C   UNL     1      34.438 -23.546 -14.285  0.00  0.00    +0.187 A 
ATOM      6  C   UNL     1      36.351 -22.862 -15.073  0.00  0.00    +0.187 A 
ATOM      7  C   UNL     1      35.156 -21.793 -17.273  0.00  0.00    +0.101 C 
ATOM      8  C   UNL     1      37.184 -22.222 -16.011  0.00  0.00    +0.042 C 
ATOM      9  C   UNL     1      36.642 -21.679 -17.110  0.00  0.00    +0.024 C 
ENDROOT
BRANCH   5  10
ATOM     10  C   UNL     1      33.023 -23.797 -14.154  0.00  0.00    +0.039 C 
ATOM     11  C   UNL     1      30.762 -23.502 -14.954  0.00  0.00    +0.054 C 
ATOM     12  C   UNL     1      32.130 -23.258 -15.080  0.00  0.00    +0.018 C 
ATOM     13  C   UNL     1      32.549 -24.579 -13.102  0.00  0.00    +0.003 C 
ATOM     14  C   UNL     1      30.288 -24.284 -13.901  0.00  0.00    +0.015 C 
ATOM     15  C   UNL     1      31.182 -24.823 -12.975  0.00  0.00    +0.001 C 
BRANCH  11  17
ATOM     16  O   UNL     1      27.900 -23.939 -15.018  0.00  0.00    -0.275 OA
ATOM     17  N   UNL     1      29.868 -22.963 -15.880  0.00  0.00    -0.257 N 
ATOM     18  C   UNL     1      30.399 -22.028 -16.920  0.00  0.00    +0.120 C 
ATOM     19  C   UNL     1      28.450 -23.191 -15.830  0.00  0.00    +0.230 C 
ATOM     20  C   UNL     1      27.572 -22.444 -16.808  0.00  0.00    +0.095 C 
ENDBRANCH  11  17
ENDBRANCH   5  10
BRANCH   7  21
ATOM     21  C   UNL     1      34.575 -21.190 -18.501  0.00  0.00    +0.019 C 
ATOM     22  C   UNL     1      35.401 -20.538 -19.413  0.00  0.00    +0.002 C 
ATOM     23  C   UNL     1      33.204 -21.279 -18.735  0.00  0.00    +0.002 C 
ATOM     24  C   UNL     1      34.855 -19.972 -20.564  0.00  0.00    +0.000 C 
ATOM     25  C   UNL     1      32.658 -20.713 -19.886  0.00  0.00    +0.000 C 
ATOM     26  C   UNL     1      33.483 -20.059 -20.801  0.00  0.00    +0.000 C 
ENDBRANCH   7  21
TORSDOF 3
ENDMDL
MODEL 7
REMARK VINA RESULT:     -10.7      4.544      7.992
REMARK  Name = 5287936
REMARK  3 active torsions:
REMARK  status: ('A' for Active; 'I' for Inactive)
REMARK    1  A    between atoms: C_5  and  C_10
REMARK    2  A    between atoms: C_7  and  C_21
REMARK    3  A    between atoms: C_11  and  N_17
REMARK                            x       y       z     vdW  Elec       q    Type
REMARK                         _______ _______ _______ _____ _____    ______ ____
ROOT
ATOM      1  N   UNL     1      33.742 -16.832 -23.459  0.00  0.00    -0.191 N 
ATOM      2  N   UNL     1      33.930 -17.446 -22.265  0.00  0.00    -0.162 NA
ATOM      3  N   UNL     1      33.378 -15.276 -24.959  0.00  0.00    -0.127 NA
ATOM      4  N   UNL     1      33.538 -16.479 -25.618  0.00  0.00    -0.127 NA
ATOM      5  C   UNL     1      33.502 -15.505 -23.672  0.00  0.00    +0.187 A 
ATOM      6  C   UNL     1      33.756 -17.406 -24.709  0.00  0.00    +0.187 A 
ATOM      7  C   UNL     1      34.149 -18.726 -22.361  0.00  0.00    +0.101 C 
ATOM      8  C   UNL     1      33.980 -18.794 -24.781  0.00  0.00    +0.042 C 
ATOM      9  C   UNL     1      34.176 -19.489 -23.652  0.00  0.00    +0.024 C 
ENDROOT
BRANCH   5  10
ATOM     10  C   UNL     1      33.404 -14.523 -22.620  0.00  0.00    +0.039 C 
ATOM     11  C   UNL     1      32.637 -12.374 -21.827  0.00  0.00    +0.054 C 
ATOM     12  C   UNL     1      32.732 -13.322 -22.845  0.00  0.00    +0.018 C 
ATOM     13  C   UNL     1      33.983 -14.776 -21.376  0.00  0.00    +0.003 C 
ATOM     14  C   UNL     1      33.216 -12.627 -20.583  0.00  0.00    +0.015 C 
ATOM     15  C   UNL     1      33.889 -13.828 -20.358  0.00  0.00    +0.001 C 
BRANCH  11  17
ATOM     16  O   UNL     1      33.550 -10.194 -23.500  0.00  0.00    -0.275 OA
ATOM     17  N   UNL     1      31.964 -11.173 -22.052  0.00  0.00    -0.257 N 
ATOM     18  C   UNL     1      30.619 -10.982 -21.425  0.00  0.00    +0.120 C 
ATOM     19  C   UNL     1      32.458 -10.146 -22.929  0.00  0.00    +0.230 C 
ATOM     20  C   UNL     1      31.573  -8.950 -23.196  0.00  0.00    +0.095 C 
ENDBRANCH  11  17
ENDBRANCH   5  10
BRANCH   7  21
ATOM     21  C   UNL     1      34.377 -19.514 -21.121  0.00  0.00    +0.019 C 
ATOM     22  C   UNL     1      35.668 -19.666 -20.621  0.00  0.00    +0.002 C 
ATOM     23  C   UNL     1      33.296 -20.097 -20.462  0.00  0.00    +0.002 C 
ATOM     24  C   UNL     1      35.881 -20.405 -19.458  0.00  0.00    +0.000 C 
ATOM     25  C   UNL     1      33.509 -20.836 -19.299  0.00  0.00    +0.000 C 
ATOM     26  C   UNL     1      34.801 -20.991 -18.797  0.00  0.00    +0.000 C 
ENDBRANCH   7  21
TORSDOF 3
ENDMDL
MODEL 8
REMARK VINA RESULT:     -10.7      7.187     13.824
REMARK  Name = 5287936
REMARK  3 active torsions:
REMARK  status: ('A' for Active; 'I' for Inactive)
REMARK    1  A    between atoms: C_5  and  C_10
REMARK    2  A    between atoms: C_7  and  C_21
REMARK    3  A    between atoms: C_11  and  N_17
REMARK                            x       y       z     vdW  Elec       q    Type
REMARK                         _______ _______ _______ _____ _____    ______ ____
ROOT
ATOM      1  N   UNL     1      31.906  -9.920 -21.821  0.00  0.00    -0.191 N 
ATOM      2  N   UNL     1      32.258  -9.234 -22.938  0.00  0.00    -0.162 NA
ATOM      3  N   UNL     1      31.546 -11.570 -20.426  0.00  0.00    -0.127 NA
ATOM      4  N   UNL     1      31.204 -10.392 -19.794  0.00  0.00    -0.127 NA
ATOM      5  C   UNL     1      31.962 -11.270 -21.634  0.00  0.00    +0.187 A 
ATOM      6  C   UNL     1      31.424  -9.407 -20.640  0.00  0.00    +0.187 A 
ATOM      7  C   UNL     1      32.109  -7.945 -22.831  0.00  0.00    +0.101 C 
ATOM      8  C   UNL     1      31.257  -8.011 -20.560  0.00  0.00    +0.042 C 
ATOM      9  C   UNL     1      31.579  -7.249 -21.614  0.00  0.00    +0.024 C 
ENDROOT
BRANCH   5  10
ATOM     10  C   UNL     1      32.416 -12.206 -22.635  0.00  0.00    +0.039 C 
ATOM     11  C   UNL     1      33.450 -14.310 -23.217  0.00  0.00    +0.054 C 
ATOM     12  C   UNL     1      33.012 -13.406 -22.249  0.00  0.00    +0.018 C 
ATOM     13  C   UNL     1      32.259 -11.908 -23.988  0.00  0.00    +0.003 C 
ATOM     14  C   UNL     1      33.292 -14.013 -24.571  0.00  0.00    +0.015 C 
ATOM     15  C   UNL     1      32.697 -12.811 -24.956  0.00  0.00    +0.001 C 
BRANCH  11  17
ATOM     16  O   UNL     1      34.269 -15.025 -20.533  0.00  0.00    -0.275 OA
ATOM     17  N   UNL     1      34.045 -15.512 -22.832  0.00  0.00    -0.257 N 
ATOM     18  C   UNL     1      34.247 -16.571 -23.869  0.00  0.00    +0.120 C 
ATOM     19  C   UNL     1      34.391 -15.817 -21.470  0.00  0.00    +0.230 C 
ATOM     20  C   UNL     1      34.905 -17.205 -21.159  0.00  0.00    +0.095 C 
ENDBRANCH  11  17
ENDBRANCH   5  10
BRANCH   7  21
ATOM     21  C   UNL     1      32.466  -7.081 -23.987  0.00  0.00    +0.019 C 
ATOM     22  C   UNL     1      33.784  -6.664 -24.163  0.00  0.00    +0.002 C 
ATOM     23  C   UNL     1      31.480  -6.690 -24.891  0.00  0.00    +0.002 C 
ATOM     24  C   UNL     1      34.118  -5.853 -25.246  0.00  0.00    +0.000 C 
ATOM     25  C   UNL     1      31.815  -5.879 -25.975  0.00  0.00    +0.000 C 
ATOM     26  C   UNL     1      33.133  -5.460 -26.153  0.00  0.00    +0.000 C 
ENDBRANCH   7  21
TORSDOF 3
ENDMDL
MODEL 9
REMARK VINA RESULT:     -10.7      3.672      6.225
REMARK  Name = 5287936
REMARK  3 active torsions:
REMARK  status: ('A' for Active; 'I' for Inactive)
REMARK    1  A    between atoms: C_5  and  C_10
REMARK    2  A    between atoms: C_7  and  C_21
REMARK    3  A    between atoms: C_11  and  N_17
REMARK                            x       y       z     vdW  Elec       q    Type
REMARK                         _______ _______ _______ _____ _____    ______ ____
ROOT
ATOM      1  N   UNL     1      34.175 -22.383 -16.560  0.00  0.00    -0.191 N 
ATOM      2  N   UNL     1      34.723 -22.809 -15.395  0.00  0.00    -0.162 NA
ATOM      3  N   UNL     1      32.703 -21.929 -18.118  0.00  0.00    -0.127 NA
ATOM      4  N   UNL     1      33.944 -21.528 -18.570  0.00  0.00    -0.127 NA
ATOM      5  C   UNL     1      32.859 -22.438 -16.918  0.00  0.00    +0.187 A 
ATOM      6  C   UNL     1      34.821 -21.805 -17.628  0.00  0.00    +0.187 A 
ATOM      7  C   UNL     1      36.010 -22.624 -15.321  0.00  0.00    +0.101 C 
ATOM      8  C   UNL     1      36.215 -21.632 -17.526  0.00  0.00    +0.042 C 
ATOM      9  C   UNL     1      36.846 -22.023 -16.410  0.00  0.00    +0.024 C 
ENDROOT
BRANCH   5  10
ATOM     10  C   UNL     1      31.817 -22.979 -16.081  0.00  0.00    +0.039 C 
ATOM     11  C   UNL     1      29.470 -23.275 -15.586  0.00  0.00    +0.054 C 
ATOM     12  C   UNL     1      30.478 -22.750 -16.396  0.00  0.00    +0.018 C 
ATOM     13  C   UNL     1      32.149 -23.733 -14.955  0.00  0.00    +0.003 C 
ATOM     14  C   UNL     1      29.802 -24.028 -14.461  0.00  0.00    +0.015 C 
ATOM     15  C   UNL     1      31.142 -24.257 -14.145  0.00  0.00    +0.001 C 
BRANCH  11  17
ATOM     16  O   UNL     1      27.790 -21.189 -14.486  0.00  0.00    -0.275 OA
ATOM     17  N   UNL     1      28.131 -23.046 -15.902  0.00  0.00    -0.257 N 
ATOM     18  C   UNL     1      27.486 -23.909 -16.940  0.00  0.00    +0.120 C 
ATOM     19  C   UNL     1      27.365 -21.964 -15.346  0.00  0.00    +0.230 C 
ATOM     20  C   UNL     1      25.964 -21.739 -15.868  0.00  0.00    +0.095 C 
ENDBRANCH  11  17
ENDBRANCH   5  10
BRANCH   7  21
ATOM     21  C   UNL     1      36.728 -23.043 -14.088  0.00  0.00    +0.019 C 
ATOM     22  C   UNL     1      37.732 -24.006 -14.162  0.00  0.00    +0.002 C 
ATOM     23  C   UNL     1      36.393 -22.472 -12.862  0.00  0.00    +0.002 C 
ATOM     24  C   UNL     1      38.404 -24.400 -13.006  0.00  0.00    +0.000 C 
ATOM     25  C   UNL     1      37.066 -22.865 -11.706  0.00  0.00    +0.000 C 
ATOM     26  C   UNL     1      38.071 -23.830 -11.777  0.00  0.00    +0.000 C 
ENDBRANCH   7  21
TORSDOF 3
ENDMDL
