MODEL 1
REMARK VINA RESULT:     -11.3      0.000      0.000
REMARK  Name = 44112
REMARK  9 active torsions:
REMARK  status: ('A' for Active; 'I' for Inactive)
REMARK    1  A    between atoms: C_1  and  O_2
REMARK    2  A    between atoms: C_1  and  C_11
REMARK    3  A    between atoms: C_1  and  C_19
REMARK    4  A    between atoms: O_2  and  C_4
REMARK    5  A    between atoms: C_4  and  C_5
REMARK    6  A    between atoms: C_11  and  N_12
REMARK    7  A    between atoms: N_12  and  C_15
REMARK    8  A    between atoms: C_19  and  O_20
REMARK    9  A    between atoms: O_20  and  C_23
REMARK                            x       y       z     vdW  Elec       q    Type
REMARK                         _______ _______ _______ _____ _____    ______ ____
ROOT
ATOM      1  C   UNL     1      35.855 -22.670 -15.687  0.00  0.00    +0.192 C 
ENDROOT
BRANCH   1   2
ATOM      2  O   UNL     1      34.627 -22.432 -14.992  0.00  0.00    -0.448 OA
BRANCH   2   4
ATOM      3  O   UNL     1      34.347 -24.660 -14.486  0.00  0.00    -0.245 OA
ATOM      4  C   UNL     1      33.905 -23.539 -14.677  0.00  0.00    +0.341 C 
BRANCH   4   5
ATOM      5  C   UNL     1      32.460 -23.207 -14.590  0.00  0.00    +0.076 C 
ATOM      6  C   UNL     1      31.848 -23.208 -13.354  0.00  0.00    +0.006 C 
ATOM      7  C   UNL     1      31.774 -22.906 -15.750  0.00  0.00    +0.006 C 
ATOM      8  C   UNL     1      30.492 -22.896 -13.272  0.00  0.00    +0.000 C 
ATOM      9  C   UNL     1      30.418 -22.593 -15.669  0.00  0.00    +0.000 C 
ATOM     10  C   UNL     1      29.776 -22.588 -14.430  0.00  0.00    +0.000 C 
ENDBRANCH   4   5
ENDBRANCH   2   4
ENDBRANCH   1   2
BRANCH   1  11
ATOM     11  C   UNL     1      36.974 -22.798 -14.650  0.00  0.00    -0.033 C 
BRANCH  11  12
ATOM     12  N   UNL     1      38.072 -23.625 -15.129  0.00  0.00    +0.389 N 
ATOM     13  H   UNL     1      37.805 -24.056 -16.015  0.00  0.00    -0.084 HD
ATOM     14  H   UNL     1      38.895 -23.034 -15.255  0.00  0.00    -0.084 HD
BRANCH  12  15
ATOM     15  C   UNL     1      38.394 -24.671 -14.168  0.00  0.00    -0.046 C 
ATOM     16  C   UNL     1      38.090 -24.170 -12.751  0.00  0.00    -0.022 C 
ATOM     17  C   UNL     1      39.881 -25.014 -14.299  0.00  0.00    -0.022 C 
ATOM     18  C   UNL     1      37.540 -25.905 -14.485  0.00  0.00    -0.022 C 
ENDBRANCH  12  15
ENDBRANCH  11  12
ENDBRANCH   1  11
BRANCH   1  19
ATOM     19  C   UNL     1      36.078 -21.533 -16.682  0.00  0.00    +0.246 C 
BRANCH  19  20
ATOM     20  O   UNL     1      35.822 -22.017 -17.995  0.00  0.00    -0.472 OA
BRANCH  20  23
ATOM     21  N   UNL     1      34.313 -18.977 -21.178  0.00  0.00    -0.316 N 
ATOM     22  C   UNL     1      34.965 -20.455 -19.639  0.00  0.00    +0.048 C 
ATOM     23  C   UNL     1      34.768 -21.455 -18.666  0.00  0.00    +0.140 C 
ATOM     24  C   UNL     1      33.850 -19.920 -20.288  0.00  0.00    +0.051 C 
ATOM     25  C   UNL     1      36.111 -19.800 -20.170  0.00  0.00    +0.014 C 
ATOM     26  C   UNL     1      35.678 -18.898 -21.114  0.00  0.00    +0.026 C 
ATOM     27  C   UNL     1      33.466 -21.880 -18.377  0.00  0.00    +0.037 C 
ATOM     28  C   UNL     1      32.543 -20.335 -20.011  0.00  0.00    +0.015 C 
ATOM     29  C   UNL     1      32.372 -21.328 -19.041  0.00  0.00    +0.004 C 
ATOM     30  C   UNL     1      36.432 -17.963 -21.969  0.00  0.00    +0.047 C 
ATOM     31  H   UNL     1      33.744 -18.438 -21.774  0.00  0.00    +0.152 HD
ENDBRANCH  20  23
ENDBRANCH  19  20
ENDBRANCH   1  19
TORSDOF 9
ENDMDL
MODEL 2
REMARK VINA RESULT:     -11.0      2.123      7.556
REMARK  Name = 44112
REMARK  9 active torsions:
REMARK  status: ('A' for Active; 'I' for Inactive)
REMARK    1  A    between atoms: C_1  and  O_2
REMARK    2  A    between atoms: C_1  and  C_11
REMARK    3  A    between atoms: C_1  and  C_19
REMARK    4  A    between atoms: O_2  and  C_4
REMARK    5  A    between atoms: C_4  and  C_5
REMARK    6  A    between atoms: C_11  and  N_12
REMARK    7  A    between atoms: N_12  and  C_15
REMARK    8  A    between atoms: C_19  and  O_20
REMARK    9  A    between atoms: O_20  and  C_23
REMARK                            x       y       z     vdW  Elec       q    Type
REMARK                         _______ _______ _______ _____ _____    ______ ____
ROOT
ATOM      1  C   UNL     1      32.894 -22.921 -16.737  0.00  0.00    +0.192 C 
ENDROOT
BRANCH   1   2
ATOM      2  O   UNL     1      32.929 -21.915 -17.754  0.00  0.00    -0.448 OA
BRANCH   2   4
ATOM      3  O   UNL     1      33.505 -23.411 -19.406  0.00  0.00    -0.245 OA
ATOM      4  C   UNL     1      33.497 -22.287 -18.930  0.00  0.00    +0.341 C 
BRANCH   4   5
ATOM      5  C   UNL     1      34.133 -21.119 -19.590  0.00  0.00    +0.076 C 
ATOM      6  C   UNL     1      35.499 -20.956 -19.487  0.00  0.00    +0.006 C 
ATOM      7  C   UNL     1      33.337 -20.232 -20.287  0.00  0.00    +0.006 C 
ATOM      8  C   UNL     1      36.096 -19.859 -20.107  0.00  0.00    +0.000 C 
ATOM      9  C   UNL     1      33.934 -19.135 -20.908  0.00  0.00    +0.000 C 
ATOM     10  C   UNL     1      35.314 -18.948 -20.818  0.00  0.00    +0.000 C 
ENDBRANCH   4   5
ENDBRANCH   2   4
ENDBRANCH   1   2
BRANCH   1  11
ATOM     11  C   UNL     1      31.586 -22.767 -15.957  0.00  0.00    -0.033 C 
BRANCH  11  12
ATOM     12  N   UNL     1      31.365 -23.873 -15.035  0.00  0.00    +0.389 N 
ATOM     13  H   UNL     1      31.329 -24.745 -15.562  0.00  0.00    -0.084 HD
ATOM     14  H   UNL     1      32.131 -23.894 -14.362  0.00  0.00    -0.084 HD
BRANCH  12  15
ATOM     15  C   UNL     1      30.113 -23.703 -14.310  0.00  0.00    -0.046 C 
ATOM     16  C   UNL     1      30.416 -23.290 -12.864  0.00  0.00    -0.022 C 
ATOM     17  C   UNL     1      29.353 -25.033 -14.329  0.00  0.00    -0.022 C 
ATOM     18  C   UNL     1      29.288 -22.615 -15.007  0.00  0.00    -0.022 C 
ENDBRANCH  12  15
ENDBRANCH  11  12
ENDBRANCH   1  11
BRANCH   1  19
ATOM     19  C   UNL     1      34.140 -22.775 -15.865  0.00  0.00    +0.246 C 
BRANCH  19  20
ATOM     20  O   UNL     1      34.536 -24.064 -15.411  0.00  0.00    -0.472 OA
BRANCH  20  23
ATOM     21  N   UNL     1      38.166 -24.971 -12.646  0.00  0.00    -0.316 N 
ATOM     22  C   UNL     1      36.384 -24.520 -13.911  0.00  0.00    +0.048 C 
ATOM     23  C   UNL     1      35.046 -24.142 -14.143  0.00  0.00    +0.140 C 
ATOM     24  C   UNL     1      36.846 -24.582 -12.594  0.00  0.00    +0.051 C 
ATOM     25  C   UNL     1      37.471 -24.885 -14.752  0.00  0.00    +0.014 C 
ATOM     26  C   UNL     1      38.552 -25.156 -13.946  0.00  0.00    +0.026 C 
ATOM     27  C   UNL     1      34.222 -23.842 -13.051  0.00  0.00    +0.037 C 
ATOM     28  C   UNL     1      36.035 -24.284 -11.494  0.00  0.00    +0.015 C 
ATOM     29  C   UNL     1      34.711 -23.911 -11.749  0.00  0.00    +0.004 C 
ATOM     30  C   UNL     1      39.925 -25.574 -14.284  0.00  0.00    +0.047 C 
ATOM     31  H   UNL     1      38.747 -25.097 -11.861  0.00  0.00    +0.152 HD
ENDBRANCH  20  23
ENDBRANCH  19  20
ENDBRANCH   1  19
TORSDOF 9
ENDMDL
MODEL 3
REMARK VINA RESULT:     -10.7      2.253      6.023
REMARK  Name = 44112
REMARK  9 active torsions:
REMARK  status: ('A' for Active; 'I' for Inactive)
REMARK    1  A    between atoms: C_1  and  O_2
REMARK    2  A    between atoms: C_1  and  C_11
REMARK    3  A    between atoms: C_1  and  C_19
REMARK    4  A    between atoms: O_2  and  C_4
REMARK    5  A    between atoms: C_4  and  C_5
REMARK    6  A    between atoms: C_11  and  N_12
REMARK    7  A    between atoms: N_12  and  C_15
REMARK    8  A    between atoms: C_19  and  O_20
REMARK    9  A    between atoms: O_20  and  C_23
REMARK                            x       y       z     vdW  Elec       q    Type
REMARK                         _______ _______ _______ _____ _____    ______ ____
ROOT
ATOM      1  C   UNL     1      35.183 -22.658 -15.339  0.00  0.00    +0.192 C 
ENDROOT
BRANCH   1   2
ATOM      2  O   UNL     1      34.889 -22.641 -16.739  0.00  0.00    -0.448 OA
BRANCH   2   4
ATOM      3  O   UNL     1      36.834 -21.556 -17.321  0.00  0.00    -0.245 OA
ATOM      4  C   UNL     1      35.651 -21.804 -17.491  0.00  0.00    +0.341 C 
BRANCH   4   5
ATOM      5  C   UNL     1      34.841 -21.206 -18.582  0.00  0.00    +0.076 C 
ATOM      6  C   UNL     1      33.477 -21.417 -18.593  0.00  0.00    +0.006 C 
ATOM      7  C   UNL     1      35.476 -20.456 -19.551  0.00  0.00    +0.006 C 
ATOM      8  C   UNL     1      32.716 -20.855 -19.617  0.00  0.00    +0.000 C 
ATOM      9  C   UNL     1      34.715 -19.893 -20.575  0.00  0.00    +0.000 C 
ATOM     10  C   UNL     1      33.335 -20.093 -20.609  0.00  0.00    +0.000 C 
ENDBRANCH   4   5
ENDBRANCH   2   4
ENDBRANCH   1   2
BRANCH   1  11
ATOM     11  C   UNL     1      35.777 -24.026 -14.993  0.00  0.00    -0.033 C 
BRANCH  11  12
ATOM     12  N   UNL     1      37.216 -24.070 -15.215  0.00  0.00    +0.389 N 
ATOM     13  H   UNL     1      37.399 -24.469 -16.136  0.00  0.00    -0.084 HD
ATOM     14  H   UNL     1      37.583 -23.120 -15.158  0.00  0.00    -0.084 HD
BRANCH  12  15
ATOM     15  C   UNL     1      37.874 -24.885 -14.204  0.00  0.00    -0.046 C 
ATOM     16  C   UNL     1      37.190 -26.256 -14.131  0.00  0.00    -0.022 C 
ATOM     17  C   UNL     1      37.764 -24.170 -12.853  0.00  0.00    -0.022 C 
ATOM     18  C   UNL     1      39.347 -25.052 -14.593  0.00  0.00    -0.022 C 
ENDBRANCH  12  15
ENDBRANCH  11  12
ENDBRANCH   1  11
BRANCH   1  19
ATOM     19  C   UNL     1      33.903 -22.341 -14.569  0.00  0.00    +0.246 C 
BRANCH  19  20
ATOM     20  O   UNL     1      32.784 -22.696 -15.373  0.00  0.00    -0.472 OA
BRANCH  20  23
ATOM     21  N   UNL     1      28.239 -23.649 -15.094  0.00  0.00    -0.316 N 
ATOM     22  C   UNL     1      30.431 -23.239 -15.170  0.00  0.00    +0.048 C 
ATOM     23  C   UNL     1      31.770 -23.377 -14.753  0.00  0.00    +0.140 C 
ATOM     24  C   UNL     1      29.441 -23.960 -14.498  0.00  0.00    +0.051 C 
ATOM     25  C   UNL     1      29.781 -22.487 -16.188  0.00  0.00    +0.014 C 
ATOM     26  C   UNL     1      28.435 -22.760 -16.116  0.00  0.00    +0.026 C 
ATOM     27  C   UNL     1      32.068 -24.227 -13.682  0.00  0.00    +0.037 C 
ATOM     28  C   UNL     1      29.723 -24.814 -13.426  0.00  0.00    +0.015 C 
ATOM     29  C   UNL     1      31.059 -24.934 -13.031  0.00  0.00    +0.004 C 
ATOM     30  C   UNL     1      27.308 -22.263 -16.925  0.00  0.00    +0.047 C 
ATOM     31  H   UNL     1      27.365 -24.014 -14.823  0.00  0.00    +0.152 HD
ENDBRANCH  20  23
ENDBRANCH  19  20
ENDBRANCH   1  19
TORSDOF 9
ENDMDL
MODEL 4
REMARK VINA RESULT:     -10.4      2.105      7.448
REMARK  Name = 44112
REMARK  9 active torsions:
REMARK  status: ('A' for Active; 'I' for Inactive)
REMARK    1  A    between atoms: C_1  and  O_2
REMARK    2  A    between atoms: C_1  and  C_11
REMARK    3  A    between atoms: C_1  and  C_19
REMARK    4  A    between atoms: O_2  and  C_4
REMARK    5  A    between atoms: C_4  and  C_5
REMARK    6  A    between atoms: C_11  and  N_12
REMARK    7  A    between atoms: N_12  and  C_15
REMARK    8  A    between atoms: C_19  and  O_20
REMARK    9  A    between atoms: O_20  and  C_23
REMARK                            x       y       z     vdW  Elec       q    Type
REMARK                         _______ _______ _______ _____ _____    ______ ____
ROOT
ATOM      1  C   UNL     1      32.300 -23.038 -16.694  0.00  0.00    +0.192 C 
ENDROOT
BRANCH   1   2
ATOM      2  O   UNL     1      32.941 -22.025 -17.475  0.00  0.00    -0.448 OA
BRANCH   2   4
ATOM      3  O   UNL     1      33.386 -23.558 -19.132  0.00  0.00    -0.245 OA
ATOM      4  C   UNL     1      33.404 -22.421 -18.689  0.00  0.00    +0.341 C 
BRANCH   4   5
ATOM      5  C   UNL     1      33.956 -21.263 -19.436  0.00  0.00    +0.076 C 
ATOM      6  C   UNL     1      33.086 -20.409 -20.080  0.00  0.00    +0.006 C 
ATOM      7  C   UNL     1      35.324 -21.076 -19.461  0.00  0.00    +0.006 C 
ATOM      8  C   UNL     1      33.604 -19.321 -20.782  0.00  0.00    +0.000 C 
ATOM      9  C   UNL     1      35.842 -19.988 -20.162  0.00  0.00    +0.000 C 
ATOM     10  C   UNL     1      34.983 -19.110 -20.823  0.00  0.00    +0.000 C 
ENDBRANCH   4   5
ENDBRANCH   2   4
ENDBRANCH   1   2
BRANCH   1  11
ATOM     11  C   UNL     1      30.908 -22.533 -16.305  0.00  0.00    -0.033 C 
BRANCH  11  12
ATOM     12  N   UNL     1      29.993 -23.626 -16.007  0.00  0.00    +0.389 N 
ATOM     13  H   UNL     1      29.378 -23.775 -16.807  0.00  0.00    -0.084 HD
ATOM     14  H   UNL     1      30.541 -24.466 -15.817  0.00  0.00    -0.084 HD
BRANCH  12  15
ATOM     15  C   UNL     1      29.185 -23.323 -14.834  0.00  0.00    -0.046 C 
ATOM     16  C   UNL     1      28.457 -24.593 -14.376  0.00  0.00    -0.022 C 
ATOM     17  C   UNL     1      28.168 -22.240 -15.209  0.00  0.00    -0.022 C 
ATOM     18  C   UNL     1      30.109 -22.815 -13.722  0.00  0.00    -0.022 C 
ENDBRANCH  12  15
ENDBRANCH  11  12
ENDBRANCH   1  11
BRANCH   1  19
ATOM     19  C   UNL     1      33.186 -23.358 -15.492  0.00  0.00    +0.246 C 
BRANCH  19  20
ATOM     20  O   UNL     1      34.007 -22.230 -15.214  0.00  0.00    -0.472 OA
BRANCH  20  23
ATOM     21  N   UNL     1      37.828 -24.436 -13.734  0.00  0.00    -0.316 N 
ATOM     22  C   UNL     1      36.038 -23.340 -14.493  0.00  0.00    +0.048 C 
ATOM     23  C   UNL     1      35.361 -22.413 -15.311  0.00  0.00    +0.140 C 
ATOM     24  C   UNL     1      37.420 -23.481 -14.639  0.00  0.00    +0.051 C 
ATOM     25  C   UNL     1      35.632 -24.242 -13.470  0.00  0.00    +0.014 C 
ATOM     26  C   UNL     1      36.754 -24.901 -13.024  0.00  0.00    +0.026 C 
ATOM     27  C   UNL     1      36.091 -21.663 -16.242  0.00  0.00    +0.037 C 
ATOM     28  C   UNL     1      38.162 -22.740 -15.565  0.00  0.00    +0.015 C 
ATOM     29  C   UNL     1      37.469 -21.827 -16.366  0.00  0.00    +0.004 C 
ATOM     30  C   UNL     1      36.912 -25.936 -11.986  0.00  0.00    +0.047 C 
ATOM     31  H   UNL     1      38.757 -24.739 -13.616  0.00  0.00    +0.152 HD
ENDBRANCH  20  23
ENDBRANCH  19  20
ENDBRANCH   1  19
TORSDOF 9
ENDMDL
MODEL 5
REMARK VINA RESULT:     -10.3      1.740      4.325
REMARK  Name = 44112
REMARK  9 active torsions:
REMARK  status: ('A' for Active; 'I' for Inactive)
REMARK    1  A    between atoms: C_1  and  O_2
REMARK    2  A    between atoms: C_1  and  C_11
REMARK    3  A    between atoms: C_1  and  C_19
REMARK    4  A    between atoms: O_2  and  C_4
REMARK    5  A    between atoms: C_4  and  C_5
REMARK    6  A    between atoms: C_11  and  N_12
REMARK    7  A    between atoms: N_12  and  C_15
REMARK    8  A    between atoms: C_19  and  O_20
REMARK    9  A    between atoms: O_20  and  C_23
REMARK                            x       y       z     vdW  Elec       q    Type
REMARK                         _______ _______ _______ _____ _____    ______ ____
ROOT
ATOM      1  C   UNL     1      35.148 -22.520 -15.646  0.00  0.00    +0.192 C 
ENDROOT
BRANCH   1   2
ATOM      2  O   UNL     1      36.103 -23.585 -15.589  0.00  0.00    -0.448 OA
BRANCH   2   4
ATOM      3  O   UNL     1      38.304 -23.094 -15.129  0.00  0.00    -0.245 OA
ATOM      4  C   UNL     1      37.170 -23.375 -14.776  0.00  0.00    +0.341 C 
BRANCH   4   5
ATOM      5  C   UNL     1      36.777 -23.537 -13.353  0.00  0.00    +0.076 C 
ATOM      6  C   UNL     1      36.863 -22.449 -12.509  0.00  0.00    +0.006 C 
ATOM      7  C   UNL     1      36.335 -24.771 -12.919  0.00  0.00    +0.006 C 
ATOM      8  C   UNL     1      36.494 -22.601 -11.173  0.00  0.00    +0.000 C 
ATOM      9  C   UNL     1      35.965 -24.923 -11.584  0.00  0.00    +0.000 C 
ATOM     10  C   UNL     1      36.044 -23.839 -10.710  0.00  0.00    +0.000 C 
ENDBRANCH   4   5
ENDBRANCH   2   4
ENDBRANCH   1   2
BRANCH   1  11
ATOM     11  C   UNL     1      33.754 -23.136 -15.787  0.00  0.00    -0.033 C 
BRANCH  11  12
ATOM     12  N   UNL     1      33.234 -23.612 -14.512  0.00  0.00    +0.389 N 
ATOM     13  H   UNL     1      33.453 -24.603 -14.411  0.00  0.00    -0.084 HD
ATOM     14  H   UNL     1      33.668 -23.073 -13.762  0.00  0.00    -0.084 HD
BRANCH  12  15
ATOM     15  C   UNL     1      31.791 -23.433 -14.439  0.00  0.00    -0.046 C 
ATOM     16  C   UNL     1      31.225 -23.280 -15.857  0.00  0.00    -0.022 C 
ATOM     17  C   UNL     1      31.496 -22.175 -13.616  0.00  0.00    -0.022 C 
ATOM     18  C   UNL     1      31.179 -24.663 -13.759  0.00  0.00    -0.022 C 
ENDBRANCH  12  15
ENDBRANCH  11  12
ENDBRANCH   1  11
BRANCH   1  19
ATOM     19  C   UNL     1      35.521 -21.594 -16.802  0.00  0.00    +0.246 C 
BRANCH  19  20
ATOM     20  O   UNL     1      35.078 -22.180 -18.020  0.00  0.00    -0.472 OA
BRANCH  20  23
ATOM     21  N   UNL     1      34.550 -18.866 -21.242  0.00  0.00    -0.316 N 
ATOM     22  C   UNL     1      34.728 -20.463 -19.694  0.00  0.00    +0.048 C 
ATOM     23  C   UNL     1      34.235 -21.429 -18.795  0.00  0.00    +0.140 C 
ATOM     24  C   UNL     1      33.817 -19.729 -20.458  0.00  0.00    +0.051 C 
ATOM     25  C   UNL     1      36.030 -20.011 -20.048  0.00  0.00    +0.014 C 
ATOM     26  C   UNL     1      35.887 -19.029 -21.002  0.00  0.00    +0.026 C 
ATOM     27  C   UNL     1      32.852 -21.624 -18.692  0.00  0.00    +0.037 C 
ATOM     28  C   UNL     1      32.434 -19.913 -20.367  0.00  0.00    +0.015 C 
ATOM     29  C   UNL     1      31.968 -20.877 -19.467  0.00  0.00    +0.004 C 
ATOM     30  C   UNL     1      36.898 -18.226 -21.714  0.00  0.00    +0.047 C 
ATOM     31  H   UNL     1      34.166 -18.225 -21.883  0.00  0.00    +0.152 HD
ENDBRANCH  20  23
ENDBRANCH  19  20
ENDBRANCH   1  19
TORSDOF 9
ENDMDL
MODEL 6
REMARK VINA RESULT:     -10.2      2.250      7.891
REMARK  Name = 44112
REMARK  9 active torsions:
REMARK  status: ('A' for Active; 'I' for Inactive)
REMARK    1  A    between atoms: C_1  and  O_2
REMARK    2  A    between atoms: C_1  and  C_11
REMARK    3  A    between atoms: C_1  and  C_19
REMARK    4  A    between atoms: O_2  and  C_4
REMARK    5  A    between atoms: C_4  and  C_5
REMARK    6  A    between atoms: C_11  and  N_12
REMARK    7  A    between atoms: N_12  and  C_15
REMARK    8  A    between atoms: C_19  and  O_20
REMARK    9  A    between atoms: O_20  and  C_23
REMARK                            x       y       z     vdW  Elec       q    Type
REMARK                         _______ _______ _______ _____ _____    ______ ____
ROOT
ATOM      1  C   UNL     1      33.581 -23.047 -16.215  0.00  0.00    +0.192 C 
ENDROOT
BRANCH   1   2
ATOM      2  O   UNL     1      33.513 -21.979 -17.165  0.00  0.00    -0.448 OA
BRANCH   2   4
ATOM      3  O   UNL     1      33.182 -23.431 -18.920  0.00  0.00    -0.245 OA
ATOM      4  C   UNL     1      33.530 -22.351 -18.471  0.00  0.00    +0.341 C 
BRANCH   4   5
ATOM      5  C   UNL     1      34.043 -21.244 -19.318  0.00  0.00    +0.076 C 
ATOM      6  C   UNL     1      35.405 -21.036 -19.391  0.00  0.00    +0.006 C 
ATOM      7  C   UNL     1      33.141 -20.458 -20.007  0.00  0.00    +0.006 C 
ATOM      8  C   UNL     1      35.887 -19.997 -20.186  0.00  0.00    +0.000 C 
ATOM      9  C   UNL     1      33.623 -19.419 -20.803  0.00  0.00    +0.000 C 
ATOM     10  C   UNL     1      34.996 -19.188 -20.892  0.00  0.00    +0.000 C 
ENDBRANCH   4   5
ENDBRANCH   2   4
ENDBRANCH   1   2
BRANCH   1  11
ATOM     11  C   UNL     1      32.324 -22.993 -15.344  0.00  0.00    -0.033 C 
BRANCH  11  12
ATOM     12  N   UNL     1      31.115 -23.267 -16.109  0.00  0.00    +0.389 N 
ATOM     13  H   UNL     1      30.989 -22.534 -16.808  0.00  0.00    -0.084 HD
ATOM     14  H   UNL     1      31.215 -24.177 -16.561  0.00  0.00    -0.084 HD
BRANCH  12  15
ATOM     15  C   UNL     1      29.947 -23.304 -15.241  0.00  0.00    -0.046 C 
ATOM     16  C   UNL     1      29.425 -24.744 -15.152  0.00  0.00    -0.022 C 
ATOM     17  C   UNL     1      28.870 -22.389 -15.832  0.00  0.00    -0.022 C 
ATOM     18  C   UNL     1      30.356 -22.806 -13.850  0.00  0.00    -0.022 C 
ENDBRANCH  12  15
ENDBRANCH  11  12
ENDBRANCH   1  11
BRANCH   1  19
ATOM     19  C   UNL     1      34.877 -22.906 -15.418  0.00  0.00    +0.246 C 
BRANCH  19  20
ATOM     20  O   UNL     1      35.551 -24.159 -15.415  0.00  0.00    -0.472 OA
BRANCH  20  23
ATOM     21  N   UNL     1      37.304 -24.222 -11.105  0.00  0.00    -0.316 N 
ATOM     22  C   UNL     1      36.533 -24.201 -13.199  0.00  0.00    +0.048 C 
ATOM     23  C   UNL     1      36.648 -24.267 -14.602  0.00  0.00    +0.140 C 
ATOM     24  C   UNL     1      37.689 -24.318 -12.424  0.00  0.00    +0.051 C 
ATOM     25  C   UNL     1      35.443 -24.031 -12.301  0.00  0.00    +0.014 C 
ATOM     26  C   UNL     1      35.948 -24.048 -11.021  0.00  0.00    +0.026 C 
ATOM     27  C   UNL     1      37.913 -24.445 -15.176  0.00  0.00    +0.037 C 
ATOM     28  C   UNL     1      38.959 -24.498 -12.982  0.00  0.00    +0.015 C 
ATOM     29  C   UNL     1      39.048 -24.560 -14.377  0.00  0.00    +0.004 C 
ATOM     30  C   UNL     1      35.272 -23.918  -9.718  0.00  0.00    +0.047 C 
ATOM     31  H   UNL     1      37.915 -24.270 -10.335  0.00  0.00    +0.152 HD
ENDBRANCH  20  23
ENDBRANCH  19  20
ENDBRANCH   1  19
TORSDOF 9
ENDMDL
MODEL 7
REMARK VINA RESULT:      -9.7      1.257      2.713
REMARK  Name = 44112
REMARK  9 active torsions:
REMARK  status: ('A' for Active; 'I' for Inactive)
REMARK    1  A    between atoms: C_1  and  O_2
REMARK    2  A    between atoms: C_1  and  C_11
REMARK    3  A    between atoms: C_1  and  C_19
REMARK    4  A    between atoms: O_2  and  C_4
REMARK    5  A    between atoms: C_4  and  C_5
REMARK    6  A    between atoms: C_11  and  N_12
REMARK    7  A    between atoms: N_12  and  C_15
REMARK    8  A    between atoms: C_19  and  O_20
REMARK    9  A    between atoms: O_20  and  C_23
REMARK                            x       y       z     vdW  Elec       q    Type
REMARK                         _______ _______ _______ _____ _____    ______ ____
ROOT
ATOM      1  C   UNL     1      36.243 -22.785 -15.622  0.00  0.00    +0.192 C 
ENDROOT
BRANCH   1   2
ATOM      2  O   UNL     1      35.043 -22.754 -14.843  0.00  0.00    -0.448 OA
BRANCH   2   4
ATOM      3  O   UNL     1      34.756 -25.019 -15.137  0.00  0.00    -0.245 OA
ATOM      4  C   UNL     1      34.358 -23.925 -14.771  0.00  0.00    +0.341 C 
BRANCH   4   5
ATOM      5  C   UNL     1      33.018 -23.704 -14.173  0.00  0.00    +0.076 C 
ATOM      6  C   UNL     1      32.501 -22.424 -14.147  0.00  0.00    +0.006 C 
ATOM      7  C   UNL     1      32.328 -24.785 -13.663  0.00  0.00    +0.006 C 
ATOM      8  C   UNL     1      31.243 -22.216 -13.585  0.00  0.00    +0.000 C 
ATOM      9  C   UNL     1      31.068 -24.577 -13.102  0.00  0.00    +0.000 C 
ATOM     10  C   UNL     1      30.525 -23.293 -13.063  0.00  0.00    +0.000 C 
ENDBRANCH   4   5
ENDBRANCH   2   4
ENDBRANCH   1   2
BRANCH   1  11
ATOM     11  C   UNL     1      37.430 -22.933 -14.666  0.00  0.00    -0.033 C 
BRANCH  11  12
ATOM     12  N   UNL     1      38.328 -24.007 -15.070  0.00  0.00    +0.389 N 
ATOM     13  H   UNL     1      37.929 -24.491 -15.874  0.00  0.00    -0.084 HD
ATOM     14  H   UNL     1      39.233 -23.601 -15.310  0.00  0.00    -0.084 HD
BRANCH  12  15
ATOM     15  C   UNL     1      38.519 -24.961 -13.986  0.00  0.00    -0.046 C 
ATOM     16  C   UNL     1      38.111 -24.310 -12.658  0.00  0.00    -0.022 C 
ATOM     17  C   UNL     1      39.996 -25.362 -13.944  0.00  0.00    -0.022 C 
ATOM     18  C   UNL     1      37.646 -26.191 -14.259  0.00  0.00    -0.022 C 
ENDBRANCH  12  15
ENDBRANCH  11  12
ENDBRANCH   1  11
BRANCH   1  19
ATOM     19  C   UNL     1      36.305 -21.517 -16.471  0.00  0.00    +0.246 C 
BRANCH  19  20
ATOM     20  O   UNL     1      36.309 -21.886 -17.845  0.00  0.00    -0.472 OA
BRANCH  20  23
ATOM     21  N   UNL     1      31.820 -21.153 -18.826  0.00  0.00    -0.316 N 
ATOM     22  C   UNL     1      33.991 -21.461 -18.414  0.00  0.00    +0.048 C 
ATOM     23  C   UNL     1      35.371 -21.291 -18.647  0.00  0.00    +0.140 C 
ATOM     24  C   UNL     1      33.083 -20.829 -19.267  0.00  0.00    +0.051 C 
ATOM     25  C   UNL     1      33.229 -22.175 -17.447  0.00  0.00    +0.014 C 
ATOM     26  C   UNL     1      31.899 -21.966 -17.727  0.00  0.00    +0.026 C 
ATOM     27  C   UNL     1      35.790 -20.499 -19.722  0.00  0.00    +0.037 C 
ATOM     28  C   UNL     1      33.487 -20.034 -20.345  0.00  0.00    +0.015 C 
ATOM     29  C   UNL     1      34.861 -19.880 -20.556  0.00  0.00    +0.004 C 
ATOM     30  C   UNL     1      30.685 -22.460 -17.051  0.00  0.00    +0.047 C 
ATOM     31  H   UNL     1      30.982 -20.845 -19.241  0.00  0.00    +0.152 HD
ENDBRANCH  20  23
ENDBRANCH  19  20
ENDBRANCH   1  19
TORSDOF 9
ENDMDL
MODEL 8
REMARK VINA RESULT:      -9.4      2.527      4.222
REMARK  Name = 44112
REMARK  9 active torsions:
REMARK  status: ('A' for Active; 'I' for Inactive)
REMARK    1  A    between atoms: C_1  and  O_2
REMARK    2  A    between atoms: C_1  and  C_11
REMARK    3  A    between atoms: C_1  and  C_19
REMARK    4  A    between atoms: O_2  and  C_4
REMARK    5  A    between atoms: C_4  and  C_5
REMARK    6  A    between atoms: C_11  and  N_12
REMARK    7  A    between atoms: N_12  and  C_15
REMARK    8  A    between atoms: C_19  and  O_20
REMARK    9  A    between atoms: O_20  and  C_23
REMARK                            x       y       z     vdW  Elec       q    Type
REMARK                         _______ _______ _______ _____ _____    ______ ____
ROOT
ATOM      1  C   UNL     1      34.334 -21.021 -19.390  0.00  0.00    +0.192 C 
ENDROOT
BRANCH   1   2
ATOM      2  O   UNL     1      33.373 -21.305 -18.369  0.00  0.00    -0.448 OA
BRANCH   2   4
ATOM      3  O   UNL     1      33.403 -23.548 -18.883  0.00  0.00    -0.245 OA
ATOM      4  C   UNL     1      33.133 -22.621 -18.136  0.00  0.00    +0.341 C 
BRANCH   4   5
ATOM      5  C   UNL     1      32.476 -22.803 -16.817  0.00  0.00    +0.076 C 
ATOM      6  C   UNL     1      33.197 -23.369 -15.785  0.00  0.00    +0.006 C 
ATOM      7  C   UNL     1      31.166 -22.397 -16.662  0.00  0.00    +0.006 C 
ATOM      8  C   UNL     1      32.580 -23.540 -14.546  0.00  0.00    +0.000 C 
ATOM      9  C   UNL     1      30.549 -22.567 -15.423  0.00  0.00    +0.000 C 
ATOM     10  C   UNL     1      31.256 -23.138 -14.365  0.00  0.00    +0.000 C 
ENDBRANCH   4   5
ENDBRANCH   2   4
ENDBRANCH   1   2
BRANCH   1  11
ATOM     11  C   UNL     1      35.688 -20.778 -18.719  0.00  0.00    -0.033 C 
BRANCH  11  12
ATOM     12  N   UNL     1      36.061 -21.868 -17.829  0.00  0.00    +0.389 N 
ATOM     13  H   UNL     1      35.229 -22.411 -17.597  0.00  0.00    -0.084 HD
ATOM     14  H   UNL     1      36.748 -22.455 -18.304  0.00  0.00    -0.084 HD
BRANCH  12  15
ATOM     15  C   UNL     1      36.654 -21.358 -16.601  0.00  0.00    -0.046 C 
ATOM     16  C   UNL     1      35.570 -21.247 -15.521  0.00  0.00    -0.022 C 
ATOM     17  C   UNL     1      37.257 -19.979 -16.886  0.00  0.00    -0.022 C 
ATOM     18  C   UNL     1      37.751 -22.329 -16.148  0.00  0.00    -0.022 C 
ENDBRANCH  12  15
ENDBRANCH  11  12
ENDBRANCH   1  11
BRANCH   1  19
ATOM     19  C   UNL     1      33.839 -19.827 -20.204  0.00  0.00    +0.246 C 
BRANCH  19  20
ATOM     20  O   UNL     1      34.905 -19.354 -21.019  0.00  0.00    -0.472 OA
BRANCH  20  23
ATOM     21  N   UNL     1      33.866 -15.194 -22.825  0.00  0.00    -0.316 N 
ATOM     22  C   UNL     1      34.355 -17.219 -22.027  0.00  0.00    +0.048 C 
ATOM     23  C   UNL     1      34.560 -18.610 -22.117  0.00  0.00    +0.140 C 
ATOM     24  C   UNL     1      34.005 -16.516 -23.183  0.00  0.00    +0.051 C 
ATOM     25  C   UNL     1      34.421 -16.273 -20.966  0.00  0.00    +0.014 C 
ATOM     26  C   UNL     1      34.115 -15.037 -21.488  0.00  0.00    +0.026 C 
ATOM     27  C   UNL     1      34.406 -19.245 -23.355  0.00  0.00    +0.037 C 
ATOM     28  C   UNL     1      33.849 -17.136 -24.427  0.00  0.00    +0.015 C 
ATOM     29  C   UNL     1      34.057 -18.518 -24.490  0.00  0.00    +0.004 C 
ATOM     30  C   UNL     1      34.037 -13.714 -20.844  0.00  0.00    +0.047 C 
ATOM     31  H   UNL     1      33.622 -14.466 -23.442  0.00  0.00    +0.152 HD
ENDBRANCH  20  23
ENDBRANCH  19  20
ENDBRANCH   1  19
TORSDOF 9
ENDMDL
MODEL 9
REMARK VINA RESULT:      -9.2      2.512      6.798
REMARK  Name = 44112
REMARK  9 active torsions:
REMARK  status: ('A' for Active; 'I' for Inactive)
REMARK    1  A    between atoms: C_1  and  O_2
REMARK    2  A    between atoms: C_1  and  C_11
REMARK    3  A    between atoms: C_1  and  C_19
REMARK    4  A    between atoms: O_2  and  C_4
REMARK    5  A    between atoms: C_4  and  C_5
REMARK    6  A    between atoms: C_11  and  N_12
REMARK    7  A    between atoms: N_12  and  C_15
REMARK    8  A    between atoms: C_19  and  O_20
REMARK    9  A    between atoms: O_20  and  C_23
REMARK                            x       y       z     vdW  Elec       q    Type
REMARK                         _______ _______ _______ _____ _____    ______ ____
ROOT
ATOM      1  C   UNL     1      35.338 -22.512 -15.836  0.00  0.00    +0.192 C 
ENDROOT
BRANCH   1   2
ATOM      2  O   UNL     1      36.453 -22.059 -15.063  0.00  0.00    -0.448 OA
BRANCH   2   4
ATOM      3  O   UNL     1      38.514 -22.846 -15.718  0.00  0.00    -0.245 OA
ATOM      4  C   UNL     1      37.517 -22.901 -15.015  0.00  0.00    +0.341 C 
BRANCH   4   5
ATOM      5  C   UNL     1      37.313 -23.935 -13.969  0.00  0.00    +0.076 C 
ATOM      6  C   UNL     1      37.283 -23.547 -12.645  0.00  0.00    +0.006 C 
ATOM      7  C   UNL     1      37.158 -25.252 -14.353  0.00  0.00    +0.006 C 
ATOM      8  C   UNL     1      37.092 -24.517 -11.662  0.00  0.00    +0.000 C 
ATOM      9  C   UNL     1      36.965 -26.222 -13.370  0.00  0.00    +0.000 C 
ATOM     10  C   UNL     1      36.932 -25.855 -12.025  0.00  0.00    +0.000 C 
ENDBRANCH   4   5
ENDBRANCH   2   4
ENDBRANCH   1   2
BRANCH   1  11
ATOM     11  C   UNL     1      35.342 -21.757 -17.168  0.00  0.00    -0.033 C 
BRANCH  11  12
ATOM     12  N   UNL     1      34.001 -21.604 -17.716  0.00  0.00    +0.389 N 
ATOM     13  H   UNL     1      33.432 -22.402 -17.433  0.00  0.00    -0.084 HD
ATOM     14  H   UNL     1      33.601 -20.736 -17.359  0.00  0.00    -0.084 HD
BRANCH  12  15
ATOM     15  C   UNL     1      34.037 -21.537 -19.170  0.00  0.00    -0.046 C 
ATOM     16  C   UNL     1      35.405 -21.010 -19.621  0.00  0.00    -0.022 C 
ATOM     17  C   UNL     1      32.927 -20.593 -19.643  0.00  0.00    -0.022 C 
ATOM     18  C   UNL     1      33.805 -22.945 -19.730  0.00  0.00    -0.022 C 
ENDBRANCH  12  15
ENDBRANCH  11  12
ENDBRANCH   1  11
BRANCH   1  19
ATOM     19  C   UNL     1      34.062 -22.297 -15.024  0.00  0.00    +0.246 C 
BRANCH  19  20
ATOM     20  O   UNL     1      32.978 -22.924 -15.698  0.00  0.00    -0.472 OA
BRANCH  20  23
ATOM     21  N   UNL     1      28.432 -23.513 -14.899  0.00  0.00    -0.316 N 
ATOM     22  C   UNL     1      30.627 -23.272 -15.221  0.00  0.00    +0.048 C 
ATOM     23  C   UNL     1      31.990 -23.460 -14.915  0.00  0.00    +0.140 C 
ATOM     24  C   UNL     1      29.666 -23.843 -14.383  0.00  0.00    +0.051 C 
ATOM     25  C   UNL     1      29.927 -22.590 -16.255  0.00  0.00    +0.014 C 
ATOM     26  C   UNL     1      28.581 -22.757 -16.030  0.00  0.00    +0.026 C 
ATOM     27  C   UNL     1      32.340 -24.208 -13.784  0.00  0.00    +0.037 C 
ATOM     28  C   UNL     1      30.000 -24.594 -13.251  0.00  0.00    +0.015 C 
ATOM     29  C   UNL     1      31.359 -24.766 -12.968  0.00  0.00    +0.004 C 
ATOM     30  C   UNL     1      27.412 -22.270 -16.785  0.00  0.00    +0.047 C 
ATOM     31  H   UNL     1      27.569 -23.783 -14.510  0.00  0.00    +0.152 HD
ENDBRANCH  20  23
ENDBRANCH  19  20
ENDBRANCH   1  19
TORSDOF 9
ENDMDL
