MODEL 1
REMARK VINA RESULT:     -10.2      0.000      0.000
REMARK  Name = 10116877
REMARK  6 active torsions:
REMARK  status: ('A' for Active; 'I' for Inactive)
REMARK    1  A    between atoms: C_1  and  N_3
REMARK    2  A    between atoms: C_1  and  C_20
REMARK    3  A    between atoms: N_4  and  C_12
REMARK    4  A    between atoms: C_20  and  N_22
REMARK    5  A    between atoms: C_23  and  C_30
REMARK    6  A    between atoms: C_35  and  C_37
REMARK                            x       y       z     vdW  Elec       q    Type
REMARK                         _______ _______ _______ _____ _____    ______ ____
ROOT
ATOM      1  C   UNL     1      34.835 -21.926 -16.706  0.00  0.00    -0.037 C 
ATOM      2  C   UNL     1      36.287 -21.778 -16.254  0.00  0.00    -0.021 C 
ENDROOT
BRANCH   1   3
ATOM      3  N   UNL     1      34.755 -21.639 -18.138  0.00  0.00    +0.392 N 
ATOM      4  N   UNL     1      34.539 -19.987 -20.458  0.00  0.00    -0.309 N 
ATOM      5  C   UNL     1      33.487 -20.972 -18.459  0.00  0.00    -0.055 C 
ATOM      6  C   UNL     1      35.882 -20.796 -18.559  0.00  0.00    -0.055 C 
ATOM      7  C   UNL     1      33.366 -20.718 -19.964  0.00  0.00    +0.068 C 
ATOM      8  C   UNL     1      35.841 -20.535 -20.066  0.00  0.00    +0.068 C 
ATOM      9  H   UNL     1      34.799 -22.524 -18.642  0.00  0.00    -0.079 HD
BRANCH   4  12
ATOM     10  O   UNL     1      34.374 -17.251 -20.463  0.00  0.00    -0.467 OA
ATOM     11  O   UNL     1      34.185 -15.839 -22.970  0.00  0.00    -0.468 OA
ATOM     12  C   UNL     1      34.416 -19.283 -21.662  0.00  0.00    +0.085 C 
ATOM     13  C   UNL     1      34.337 -17.891 -21.675  0.00  0.00    +0.186 C 
ATOM     14  C   UNL     1      34.362 -19.993 -22.862  0.00  0.00    +0.018 C 
ATOM     15  C   UNL     1      34.234 -17.207 -22.890  0.00  0.00    +0.174 C 
ATOM     16  C   UNL     1      34.232 -19.311 -24.073  0.00  0.00    +0.005 C 
ATOM     17  C   UNL     1      34.166 -17.918 -24.088  0.00  0.00    +0.040 C 
ATOM     18  C   UNL     1      33.944 -15.891 -20.565  0.00  0.00    +0.253 C 
ATOM     19  C   UNL     1      34.605 -15.218 -21.753  0.00  0.00    +0.253 C 
ENDBRANCH   4  12
ENDBRANCH   1   3
BRANCH   1  20
ATOM     20  C   UNL     1      34.290 -23.333 -16.449  0.00  0.00    +0.079 C 
BRANCH  20  22
ATOM     21  O   UNL     1      33.466 -24.015 -12.934  0.00  0.00    -0.270 OA
ATOM     22  N   UNL     1      33.510 -23.402 -15.243  0.00  0.00    -0.242 N 
ATOM     23  C   UNL     1      34.040 -23.910 -14.018  0.00  0.00    +0.254 C 
ATOM     24  N   UNL     1      31.654 -22.440 -14.138  0.00  0.00    -0.229 NA
ATOM     25  C   UNL     1      32.120 -22.933 -15.271  0.00  0.00    +0.138 C 
ATOM     26  C   UNL     1      31.496 -23.068 -16.467  0.00  0.00    +0.035 C 
ATOM     27  C   UNL     1      30.177 -22.627 -16.504  0.00  0.00    +0.004 C 
ATOM     28  C   UNL     1      30.370 -22.022 -14.213  0.00  0.00    +0.100 C 
ATOM     29  C   UNL     1      29.596 -22.093 -15.360  0.00  0.00    +0.021 C 
BRANCH  23  30
ATOM     30  C   UNL     1      35.447 -24.356 -14.027  0.00  0.00    +0.054 C 
ATOM     31  C   UNL     1      36.390 -23.632 -13.318  0.00  0.00    +0.005 C 
ATOM     32  C   UNL     1      35.793 -25.489 -14.743  0.00  0.00    +0.005 C 
ATOM     33  C   UNL     1      37.720 -24.054 -13.326  0.00  0.00    +0.010 C 
ATOM     34  C   UNL     1      37.122 -25.911 -14.751  0.00  0.00    +0.010 C 
ATOM     35  C   UNL     1      38.086 -25.193 -14.042  0.00  0.00    +0.068 C 
BRANCH  35  37
ATOM     36  N   UNL     1      40.556 -25.975 -14.060  0.00  0.00    -0.191 NA
ATOM     37  C   UNL     1      39.448 -25.624 -14.052  0.00  0.00    +0.100 C 
ENDBRANCH  35  37
ENDBRANCH  23  30
ENDBRANCH  20  22
ENDBRANCH   1  20
TORSDOF 6
ENDMDL
MODEL 2
REMARK VINA RESULT:      -9.8      1.410      5.214
REMARK  Name = 10116877
REMARK  6 active torsions:
REMARK  status: ('A' for Active; 'I' for Inactive)
REMARK    1  A    between atoms: C_1  and  N_3
REMARK    2  A    between atoms: C_1  and  C_20
REMARK    3  A    between atoms: N_4  and  C_12
REMARK    4  A    between atoms: C_20  and  N_22
REMARK    5  A    between atoms: C_23  and  C_30
REMARK    6  A    between atoms: C_35  and  C_37
REMARK                            x       y       z     vdW  Elec       q    Type
REMARK                         _______ _______ _______ _____ _____    ______ ____
ROOT
ATOM      1  C   UNL     1      34.336 -22.303 -17.784  0.00  0.00    -0.037 C 
ATOM      2  C   UNL     1      33.451 -23.380 -18.409  0.00  0.00    -0.021 C 
ENDROOT
BRANCH   1   3
ATOM      3  N   UNL     1      34.273 -21.100 -18.613  0.00  0.00    +0.392 N 
ATOM      4  N   UNL     1      34.119 -19.620 -21.052  0.00  0.00    -0.309 N 
ATOM      5  C   UNL     1      35.427 -21.039 -19.520  0.00  0.00    -0.055 C 
ATOM      6  C   UNL     1      33.028 -21.075 -19.390  0.00  0.00    -0.055 C 
ATOM      7  C   UNL     1      35.403 -19.756 -20.353  0.00  0.00    +0.068 C 
ATOM      8  C   UNL     1      32.923 -19.793 -20.220  0.00  0.00    +0.068 C 
ATOM      9  H   UNL     1      34.295 -20.288 -17.998  0.00  0.00    -0.079 HD
BRANCH   4  12
ATOM     10  O   UNL     1      34.160 -16.893 -20.777  0.00  0.00    -0.467 OA
ATOM     11  O   UNL     1      34.114 -15.223 -23.127  0.00  0.00    -0.468 OA
ATOM     12  C   UNL     1      34.067 -18.790 -22.178  0.00  0.00    +0.085 C 
ATOM     13  C   UNL     1      34.093 -17.401 -22.049  0.00  0.00    +0.186 C 
ATOM     14  C   UNL     1      33.978 -19.368 -23.444  0.00  0.00    +0.018 C 
ATOM     15  C   UNL     1      34.060 -16.592 -23.187  0.00  0.00    +0.174 C 
ATOM     16  C   UNL     1      33.917 -18.558 -24.580  0.00  0.00    +0.005 C 
ATOM     17  C   UNL     1      33.956 -17.170 -24.452  0.00  0.00    +0.040 C 
ATOM     18  C   UNL     1      33.834 -15.501 -20.742  0.00  0.00    +0.253 C 
ATOM     19  C   UNL     1      34.561 -14.763 -21.849  0.00  0.00    +0.253 C 
ENDBRANCH   4  12
ENDBRANCH   1   3
BRANCH   1  20
ATOM     20  C   UNL     1      33.898 -21.950 -16.361  0.00  0.00    +0.079 C 
BRANCH  20  22
ATOM     21  O   UNL     1      33.407 -24.532 -13.794  0.00  0.00    -0.270 OA
ATOM     22  N   UNL     1      34.228 -22.984 -15.417  0.00  0.00    -0.242 N 
ATOM     23  C   UNL     1      33.238 -23.640 -14.625  0.00  0.00    +0.254 C 
ATOM     24  N   UNL     1      35.844 -24.636 -14.917  0.00  0.00    -0.229 NA
ATOM     25  C   UNL     1      35.633 -23.380 -15.264  0.00  0.00    +0.138 C 
ATOM     26  C   UNL     1      36.533 -22.394 -15.501  0.00  0.00    +0.035 C 
ATOM     27  C   UNL     1      37.868 -22.759 -15.357  0.00  0.00    +0.004 C 
ATOM     28  C   UNL     1      37.152 -24.954 -14.787  0.00  0.00    +0.100 C 
ATOM     29  C   UNL     1      38.191 -24.061 -14.994  0.00  0.00    +0.021 C 
BRANCH  23  30
ATOM     30  C   UNL     1      31.835 -23.225 -14.822  0.00  0.00    +0.054 C 
ATOM     31  C   UNL     1      31.158 -23.645 -15.955  0.00  0.00    +0.005 C 
ATOM     32  C   UNL     1      31.227 -22.426 -13.869  0.00  0.00    +0.005 C 
ATOM     33  C   UNL     1      29.832 -23.254 -16.139  0.00  0.00    +0.010 C 
ATOM     34  C   UNL     1      29.901 -22.034 -14.055  0.00  0.00    +0.010 C 
ATOM     35  C   UNL     1      29.204 -22.449 -15.190  0.00  0.00    +0.068 C 
BRANCH  35  37
ATOM     36  N   UNL     1      26.742 -21.718 -15.537  0.00  0.00    -0.191 NA
ATOM     37  C   UNL     1      27.846 -22.046 -15.381  0.00  0.00    +0.100 C 
ENDBRANCH  35  37
ENDBRANCH  23  30
ENDBRANCH  20  22
ENDBRANCH   1  20
TORSDOF 6
ENDMDL
MODEL 3
REMARK VINA RESULT:      -9.6      1.736      5.457
REMARK  Name = 10116877
REMARK  6 active torsions:
REMARK  status: ('A' for Active; 'I' for Inactive)
REMARK    1  A    between atoms: C_1  and  N_3
REMARK    2  A    between atoms: C_1  and  C_20
REMARK    3  A    between atoms: N_4  and  C_12
REMARK    4  A    between atoms: C_20  and  N_22
REMARK    5  A    between atoms: C_23  and  C_30
REMARK    6  A    between atoms: C_35  and  C_37
REMARK                            x       y       z     vdW  Elec       q    Type
REMARK                         _______ _______ _______ _____ _____    ______ ____
ROOT
ATOM      1  C   UNL     1      34.100 -22.671 -18.251  0.00  0.00    -0.037 C 
ATOM      2  C   UNL     1      33.326 -23.921 -18.668  0.00  0.00    -0.021 C 
ENDROOT
BRANCH   1   3
ATOM      3  N   UNL     1      34.115 -21.730 -19.370  0.00  0.00    +0.392 N 
ATOM      4  N   UNL     1      34.217 -19.160 -20.613  0.00  0.00    -0.309 N 
ATOM      5  C   UNL     1      32.964 -20.820 -19.291  0.00  0.00    -0.055 C 
ATOM      6  C   UNL     1      35.362 -20.956 -19.376  0.00  0.00    -0.055 C 
ATOM      7  C   UNL     1      32.937 -19.867 -20.488  0.00  0.00    +0.068 C 
ATOM      8  C   UNL     1      35.415 -20.006 -20.574  0.00  0.00    +0.068 C 
ATOM      9  H   UNL     1      34.054 -22.264 -20.236  0.00  0.00    -0.079 HD
BRANCH   4  12
ATOM     10  O   UNL     1      33.645 -19.129 -23.294  0.00  0.00    -0.467 OA
ATOM     11  O   UNL     1      33.640 -16.624 -24.721  0.00  0.00    -0.468 OA
ATOM     12  C   UNL     1      34.239 -17.959 -21.332  0.00  0.00    +0.085 C 
ATOM     13  C   UNL     1      33.943 -17.932 -22.695  0.00  0.00    +0.186 C 
ATOM     14  C   UNL     1      34.571 -16.777 -20.670  0.00  0.00    +0.018 C 
ATOM     15  C   UNL     1      33.952 -16.719 -23.389  0.00  0.00    +0.174 C 
ATOM     16  C   UNL     1      34.606 -15.570 -21.370  0.00  0.00    +0.005 C 
ATOM     17  C   UNL     1      34.298 -15.540 -22.730  0.00  0.00    +0.040 C 
ATOM     18  C   UNL     1      33.703 -19.041 -24.720  0.00  0.00    +0.253 C 
ATOM     19  C   UNL     1      32.978 -17.798 -25.199  0.00  0.00    +0.253 C 
ENDBRANCH   4  12
ENDBRANCH   1   3
BRANCH   1  20
ATOM     20  C   UNL     1      33.478 -21.986 -17.032  0.00  0.00    +0.079 C 
BRANCH  20  22
ATOM     21  O   UNL     1      33.303 -23.451 -13.667  0.00  0.00    -0.270 OA
ATOM     22  N   UNL     1      33.930 -22.564 -15.794  0.00  0.00    -0.242 N 
ATOM     23  C   UNL     1      33.028 -22.951 -14.757  0.00  0.00    +0.254 C 
ATOM     24  N   UNL     1      35.708 -23.777 -14.816  0.00  0.00    -0.229 NA
ATOM     25  C   UNL     1      35.369 -22.762 -15.589  0.00  0.00    +0.138 C 
ATOM     26  C   UNL     1      36.165 -21.870 -16.228  0.00  0.00    +0.035 C 
ATOM     27  C   UNL     1      37.532 -22.049 -16.039  0.00  0.00    +0.004 C 
ATOM     28  C   UNL     1      37.043 -23.920 -14.656  0.00  0.00    +0.100 C 
ATOM     29  C   UNL     1      37.987 -23.091 -15.240  0.00  0.00    +0.021 C 
BRANCH  23  30
ATOM     30  C   UNL     1      31.587 -22.751 -15.010  0.00  0.00    +0.054 C 
ATOM     31  C   UNL     1      30.798 -22.191 -14.019  0.00  0.00    +0.005 C 
ATOM     32  C   UNL     1      31.056 -23.127 -16.232  0.00  0.00    +0.005 C 
ATOM     33  C   UNL     1      29.437 -22.001 -14.258  0.00  0.00    +0.010 C 
ATOM     34  C   UNL     1      29.695 -22.938 -16.470  0.00  0.00    +0.010 C 
ATOM     35  C   UNL     1      28.886 -22.374 -15.483  0.00  0.00    +0.068 C 
BRANCH  35  37
ATOM     36  N   UNL     1      26.357 -22.025 -15.925  0.00  0.00    -0.191 NA
ATOM     37  C   UNL     1      27.491 -22.182 -15.727  0.00  0.00    +0.100 C 
ENDBRANCH  35  37
ENDBRANCH  23  30
ENDBRANCH  20  22
ENDBRANCH   1  20
TORSDOF 6
ENDMDL
MODEL 4
REMARK VINA RESULT:      -7.8     10.680     18.001
REMARK  Name = 10116877
REMARK  6 active torsions:
REMARK  status: ('A' for Active; 'I' for Inactive)
REMARK    1  A    between atoms: C_1  and  N_3
REMARK    2  A    between atoms: C_1  and  C_20
REMARK    3  A    between atoms: N_4  and  C_12
REMARK    4  A    between atoms: C_20  and  N_22
REMARK    5  A    between atoms: C_23  and  C_30
REMARK    6  A    between atoms: C_35  and  C_37
REMARK                            x       y       z     vdW  Elec       q    Type
REMARK                         _______ _______ _______ _____ _____    ______ ____
ROOT
ATOM      1  C   UNL     1      31.360  -6.190 -24.197  0.00  0.00    -0.037 C 
ATOM      2  C   UNL     1      30.860  -6.755 -25.525  0.00  0.00    -0.021 C 
ENDROOT
BRANCH   1   3
ATOM      3  N   UNL     1      31.651  -7.300 -23.291  0.00  0.00    +0.392 N 
ATOM      4  N   UNL     1      31.972 -10.038 -22.542  0.00  0.00    -0.309 N 
ATOM      5  C   UNL     1      30.480  -8.178 -23.160  0.00  0.00    -0.055 C 
ATOM      6  C   UNL     1      32.800  -8.074 -23.776  0.00  0.00    -0.055 C 
ATOM      7  C   UNL     1      30.752  -9.312 -22.170  0.00  0.00    +0.068 C 
ATOM      8  C   UNL     1      33.150  -9.206 -22.807  0.00  0.00    +0.068 C 
ATOM      9  H   UNL     1      31.876  -6.913 -22.375  0.00  0.00    -0.079 HD
BRANCH   4  12
ATOM     10  O   UNL     1      32.763 -12.062 -24.213  0.00  0.00    -0.467 OA
ATOM     11  O   UNL     1      33.150 -14.715 -23.153  0.00  0.00    -0.468 OA
ATOM     12  C   UNL     1      32.137 -11.340 -22.055  0.00  0.00    +0.085 C 
ATOM     13  C   UNL     1      32.545 -12.376 -22.896  0.00  0.00    +0.186 C 
ATOM     14  C   UNL     1      31.880 -11.600 -20.709  0.00  0.00    +0.018 C 
ATOM     15  C   UNL     1      32.722 -13.664 -22.385  0.00  0.00    +0.174 C 
ATOM     16  C   UNL     1      32.030 -12.893 -20.205  0.00  0.00    +0.005 C 
ATOM     17  C   UNL     1      32.450 -13.926 -21.042  0.00  0.00    +0.040 C 
ATOM     18  C   UNL     1      32.831 -13.230 -25.035  0.00  0.00    +0.253 C 
ATOM     19  C   UNL     1      33.721 -14.276 -24.389  0.00  0.00    +0.253 C 
ENDBRANCH   4  12
ENDBRANCH   1   3
BRANCH   1  20
ATOM     20  C   UNL     1      32.625  -5.344 -24.368  0.00  0.00    +0.079 C 
BRANCH  20  22
ATOM     21  O   UNL     1      32.763  -1.924 -25.705  0.00  0.00    -0.270 OA
ATOM     22  N   UNL     1      32.327  -3.943 -24.505  0.00  0.00    -0.242 N 
ATOM     23  C   UNL     1      32.942  -3.125 -25.500  0.00  0.00    +0.254 C 
ATOM     24  N   UNL     1      30.668  -2.315 -24.071  0.00  0.00    -0.229 NA
ATOM     25  C   UNL     1      31.357  -3.333 -23.589  0.00  0.00    +0.138 C 
ATOM     26  C   UNL     1      31.296  -3.902 -22.359  0.00  0.00    +0.035 C 
ATOM     27  C   UNL     1      30.380  -3.330 -21.483  0.00  0.00    +0.004 C 
ATOM     28  C   UNL     1      29.788  -1.786 -23.191  0.00  0.00    +0.100 C 
ATOM     29  C   UNL     1      29.607  -2.252 -21.899  0.00  0.00    +0.021 C 
BRANCH  23  30
ATOM     30  C   UNL     1      33.900  -3.780 -26.413  0.00  0.00    +0.054 C 
ATOM     31  C   UNL     1      35.256  -3.691 -26.149  0.00  0.00    +0.005 C 
ATOM     32  C   UNL     1      33.420  -4.471 -27.513  0.00  0.00    +0.005 C 
ATOM     33  C   UNL     1      36.160  -4.311 -27.011  0.00  0.00    +0.010 C 
ATOM     34  C   UNL     1      34.325  -5.091 -28.375  0.00  0.00    +0.010 C 
ATOM     35  C   UNL     1      35.695  -5.011 -28.123  0.00  0.00    +0.068 C 
BRANCH  35  37
ATOM     36  N   UNL     1      37.375  -6.160 -29.726  0.00  0.00    -0.191 NA
ATOM     37  C   UNL     1      36.621  -5.645 -29.008  0.00  0.00    +0.100 C 
ENDBRANCH  35  37
ENDBRANCH  23  30
ENDBRANCH  20  22
ENDBRANCH   1  20
TORSDOF 6
ENDMDL
MODEL 5
REMARK VINA RESULT:      -7.8      1.265      2.102
REMARK  Name = 10116877
REMARK  6 active torsions:
REMARK  status: ('A' for Active; 'I' for Inactive)
REMARK    1  A    between atoms: C_1  and  N_3
REMARK    2  A    between atoms: C_1  and  C_20
REMARK    3  A    between atoms: N_4  and  C_12
REMARK    4  A    between atoms: C_20  and  N_22
REMARK    5  A    between atoms: C_23  and  C_30
REMARK    6  A    between atoms: C_35  and  C_37
REMARK                            x       y       z     vdW  Elec       q    Type
REMARK                         _______ _______ _______ _____ _____    ______ ____
ROOT
ATOM      1  C   UNL     1      34.040 -22.884 -17.618  0.00  0.00    -0.037 C 
ATOM      2  C   UNL     1      33.053 -24.016 -17.901  0.00  0.00    -0.021 C 
ENDROOT
BRANCH   1   3
ATOM      3  N   UNL     1      34.132 -22.031 -18.802  0.00  0.00    +0.392 N 
ATOM      4  N   UNL     1      34.289 -19.562 -20.231  0.00  0.00    -0.309 N 
ATOM      5  C   UNL     1      32.961 -21.148 -18.892  0.00  0.00    -0.055 C 
ATOM      6  C   UNL     1      35.360 -21.227 -18.764  0.00  0.00    -0.055 C 
ATOM      7  C   UNL     1      33.017 -20.290 -20.158  0.00  0.00    +0.068 C 
ATOM      8  C   UNL     1      35.496 -20.370 -20.025  0.00  0.00    +0.068 C 
ATOM      9  H   UNL     1      34.155 -22.631 -19.626  0.00  0.00    -0.079 HD
BRANCH   4  12
ATOM     10  O   UNL     1      33.880 -19.742 -22.935  0.00  0.00    -0.467 OA
ATOM     11  O   UNL     1      33.949 -17.353 -24.548  0.00  0.00    -0.468 OA
ATOM     12  C   UNL     1      34.349 -18.419 -21.037  0.00  0.00    +0.085 C 
ATOM     13  C   UNL     1      34.136 -18.500 -22.413  0.00  0.00    +0.186 C 
ATOM     14  C   UNL     1      34.634 -17.187 -20.450  0.00  0.00    +0.018 C 
ATOM     15  C   UNL     1      34.181 -17.344 -23.197  0.00  0.00    +0.174 C 
ATOM     16  C   UNL     1      34.706 -16.036 -21.237  0.00  0.00    +0.005 C 
ATOM     17  C   UNL     1      34.481 -16.114 -22.611  0.00  0.00    +0.040 C 
ATOM     18  C   UNL     1      34.024 -19.762 -24.357  0.00  0.00    +0.253 C 
ATOM     19  C   UNL     1      33.324 -18.566 -24.974  0.00  0.00    +0.253 C 
ENDBRANCH   4  12
ENDBRANCH   1   3
BRANCH   1  20
ATOM     20  C   UNL     1      33.613 -22.031 -16.421  0.00  0.00    +0.079 C 
BRANCH  20  22
ATOM     21  O   UNL     1      32.817 -24.355 -13.689  0.00  0.00    -0.270 OA
ATOM     22  N   UNL     1      32.819 -22.773 -15.480  0.00  0.00    -0.242 N 
ATOM     23  C   UNL     1      33.397 -23.674 -14.534  0.00  0.00    +0.254 C 
ATOM     24  N   UNL     1      30.752 -22.761 -14.331  0.00  0.00    -0.229 NA
ATOM     25  C   UNL     1      31.362 -22.600 -15.490  0.00  0.00    +0.138 C 
ATOM     26  C   UNL     1      30.832 -22.293 -16.700  0.00  0.00    +0.035 C 
ATOM     27  C   UNL     1      29.451 -22.127 -16.721  0.00  0.00    +0.004 C 
ATOM     28  C   UNL     1      29.412 -22.592 -14.390  0.00  0.00    +0.100 C 
ATOM     29  C   UNL     1      28.721 -22.277 -15.549  0.00  0.00    +0.021 C 
BRANCH  23  30
ATOM     30  C   UNL     1      34.867 -23.807 -14.544  0.00  0.00    +0.054 C 
ATOM     31  C   UNL     1      35.648 -22.703 -14.246  0.00  0.00    +0.005 C 
ATOM     32  C   UNL     1      35.433 -25.033 -14.850  0.00  0.00    +0.005 C 
ATOM     33  C   UNL     1      37.038 -22.830 -14.254  0.00  0.00    +0.010 C 
ATOM     34  C   UNL     1      36.822 -25.159 -14.859  0.00  0.00    +0.010 C 
ATOM     35  C   UNL     1      37.624 -24.057 -14.561  0.00  0.00    +0.068 C 
BRANCH  35  37
ATOM     36  N   UNL     1      40.204 -24.291 -14.580  0.00  0.00    -0.191 NA
ATOM     37  C   UNL     1      39.047 -24.186 -14.572  0.00  0.00    +0.100 C 
ENDBRANCH  35  37
ENDBRANCH  23  30
ENDBRANCH  20  22
ENDBRANCH   1  20
TORSDOF 6
ENDMDL
MODEL 6
REMARK VINA RESULT:      -7.7      2.197      5.464
REMARK  Name = 10116877
REMARK  6 active torsions:
REMARK  status: ('A' for Active; 'I' for Inactive)
REMARK    1  A    between atoms: C_1  and  N_3
REMARK    2  A    between atoms: C_1  and  C_20
REMARK    3  A    between atoms: N_4  and  C_12
REMARK    4  A    between atoms: C_20  and  N_22
REMARK    5  A    between atoms: C_23  and  C_30
REMARK    6  A    between atoms: C_35  and  C_37
REMARK                            x       y       z     vdW  Elec       q    Type
REMARK                         _______ _______ _______ _____ _____    ______ ____
ROOT
ATOM      1  C   UNL     1      35.118 -23.785 -15.018  0.00  0.00    -0.037 C 
ATOM      2  C   UNL     1      36.097 -24.957 -15.027  0.00  0.00    -0.021 C 
ENDROOT
BRANCH   1   3
ATOM      3  N   UNL     1      34.938 -23.309 -16.389  0.00  0.00    +0.392 N 
ATOM      4  N   UNL     1      34.092 -21.499 -18.431  0.00  0.00    -0.309 N 
ATOM      5  C   UNL     1      33.510 -23.147 -16.694  0.00  0.00    -0.055 C 
ATOM      6  C   UNL     1      35.637 -22.034 -16.588  0.00  0.00    -0.055 C 
ATOM      7  C   UNL     1      33.306 -22.705 -18.145  0.00  0.00    +0.068 C 
ATOM      8  C   UNL     1      35.503 -21.553 -18.035  0.00  0.00    +0.068 C 
ATOM      9  H   UNL     1      35.333 -24.005 -17.021  0.00  0.00    -0.079 HD
BRANCH   4  12
ATOM     10  O   UNL     1      35.921 -19.914 -19.718  0.00  0.00    -0.467 OA
ATOM     11  O   UNL     1      35.093 -18.338 -21.986  0.00  0.00    -0.468 OA
ATOM     12  C   UNL     1      33.706 -20.703 -19.515  0.00  0.00    +0.085 C 
ATOM     13  C   UNL     1      34.630 -19.897 -20.180  0.00  0.00    +0.186 C 
ATOM     14  C   UNL     1      32.372 -20.713 -19.925  0.00  0.00    +0.018 C 
ATOM     15  C   UNL     1      34.227 -19.124 -21.273  0.00  0.00    +0.174 C 
ATOM     16  C   UNL     1      31.965 -19.920 -20.999  0.00  0.00    +0.005 C 
ATOM     17  C   UNL     1      32.891 -19.124 -21.672  0.00  0.00    +0.040 C 
ATOM     18  C   UNL     1      36.685 -18.819 -20.230  0.00  0.00    +0.253 C 
ATOM     19  C   UNL     1      36.459 -18.673 -21.723  0.00  0.00    +0.253 C 
ENDBRANCH   4  12
ENDBRANCH   1   3
BRANCH   1  20
ATOM     20  C   UNL     1      33.754 -24.177 -14.444  0.00  0.00    +0.079 C 
BRANCH  20  22
ATOM     21  O   UNL     1      31.900 -22.584 -11.701  0.00  0.00    -0.270 OA
ATOM     22  N   UNL     1      33.510 -23.574 -13.161  0.00  0.00    -0.242 N 
ATOM     23  C   UNL     1      32.219 -23.111 -12.767  0.00  0.00    +0.254 C 
ATOM     24  N   UNL     1      34.318 -23.471 -10.941  0.00  0.00    -0.229 NA
ATOM     25  C   UNL     1      34.630 -23.430 -12.223  0.00  0.00    +0.138 C 
ATOM     26  C   UNL     1      35.845 -23.273 -12.803  0.00  0.00    +0.035 C 
ATOM     27  C   UNL     1      36.912 -23.135 -11.923  0.00  0.00    +0.004 C 
ATOM     28  C   UNL     1      35.380 -23.333 -10.116  0.00  0.00    +0.100 C 
ATOM     29  C   UNL     1      36.685 -23.165 -10.552  0.00  0.00    +0.021 C 
BRANCH  23  30
ATOM     30  C   UNL     1      31.116 -23.290 -13.732  0.00  0.00    +0.054 C 
ATOM     31  C   UNL     1      30.797 -22.254 -14.593  0.00  0.00    +0.005 C 
ATOM     32  C   UNL     1      30.427 -24.490 -13.755  0.00  0.00    +0.005 C 
ATOM     33  C   UNL     1      29.756 -22.425 -15.506  0.00  0.00    +0.010 C 
ATOM     34  C   UNL     1      29.385 -24.660 -14.668  0.00  0.00    +0.010 C 
ATOM     35  C   UNL     1      29.050 -23.627 -15.543  0.00  0.00    +0.068 C 
BRANCH  35  37
ATOM     36  N   UNL     1      27.114 -23.942 -17.235  0.00  0.00    -0.191 NA
ATOM     37  C   UNL     1      27.982 -23.800 -16.477  0.00  0.00    +0.100 C 
ENDBRANCH  35  37
ENDBRANCH  23  30
ENDBRANCH  20  22
ENDBRANCH   1  20
TORSDOF 6
ENDMDL
MODEL 7
REMARK VINA RESULT:      -7.3     11.002     17.060
REMARK  Name = 10116877
REMARK  6 active torsions:
REMARK  status: ('A' for Active; 'I' for Inactive)
REMARK    1  A    between atoms: C_1  and  N_3
REMARK    2  A    between atoms: C_1  and  C_20
REMARK    3  A    between atoms: N_4  and  C_12
REMARK    4  A    between atoms: C_20  and  N_22
REMARK    5  A    between atoms: C_23  and  C_30
REMARK    6  A    between atoms: C_35  and  C_37
REMARK                            x       y       z     vdW  Elec       q    Type
REMARK                         _______ _______ _______ _____ _____    ______ ____
ROOT
ATOM      1  C   UNL     1      33.474  -8.153 -23.252  0.00  0.00    -0.037 C 
ATOM      2  C   UNL     1      34.708  -8.689 -23.975  0.00  0.00    -0.021 C 
ENDROOT
BRANCH   1   3
ATOM      3  N   UNL     1      33.065  -6.899 -23.883  0.00  0.00    +0.392 N 
ATOM      4  N   UNL     1      32.979  -4.926 -25.947  0.00  0.00    -0.309 N 
ATOM      5  C   UNL     1      34.235  -6.051 -24.150  0.00  0.00    -0.055 C 
ATOM      6  C   UNL     1      32.345  -7.163 -25.136  0.00  0.00    -0.055 C 
ATOM      7  C   UNL     1      33.814  -4.712 -24.759  0.00  0.00    +0.068 C 
ATOM      8  C   UNL     1      31.863  -5.861 -25.778  0.00  0.00    +0.068 C 
ATOM      9  H   UNL     1      32.442  -6.408 -23.242  0.00  0.00    -0.079 HD
BRANCH   4  12
ATOM     10  O   UNL     1      34.907  -4.573 -27.863  0.00  0.00    -0.467 OA
ATOM     11  O   UNL     1      34.625  -2.451 -29.795  0.00  0.00    -0.468 OA
ATOM     12  C   UNL     1      32.878  -3.883 -26.876  0.00  0.00    +0.085 C 
ATOM     13  C   UNL     1      33.851  -3.699 -27.858  0.00  0.00    +0.186 C 
ATOM     14  C   UNL     1      31.789  -3.014 -26.806  0.00  0.00    +0.018 C 
ATOM     15  C   UNL     1      33.720  -2.663 -28.787  0.00  0.00    +0.174 C 
ATOM     16  C   UNL     1      31.673  -1.963 -27.717  0.00  0.00    +0.005 C 
ATOM     17  C   UNL     1      32.639  -1.786 -28.707  0.00  0.00    +0.040 C 
ATOM     18  C   UNL     1      35.991  -4.094 -28.663  0.00  0.00    +0.253 C 
ATOM     19  C   UNL     1      35.476  -3.582 -29.995  0.00  0.00    +0.253 C 
ENDBRANCH   4  12
ENDBRANCH   1   3
BRANCH   1  20
ATOM     20  C   UNL     1      32.304  -9.138 -23.298  0.00  0.00    +0.079 C 
BRANCH  20  22
ATOM     21  O   UNL     1      31.170  -9.311 -19.808  0.00  0.00    -0.270 OA
ATOM     22  N   UNL     1      32.016  -9.703 -22.007  0.00  0.00    -0.242 N 
ATOM     23  C   UNL     1      31.454  -8.933 -20.944  0.00  0.00    +0.254 C 
ATOM     24  N   UNL     1      31.535 -11.737 -20.901  0.00  0.00    -0.229 NA
ATOM     25  C   UNL     1      32.312 -11.121 -21.773  0.00  0.00    +0.138 C 
ATOM     26  C   UNL     1      33.352 -11.614 -22.490  0.00  0.00    +0.035 C 
ATOM     27  C   UNL     1      33.641 -12.957 -22.274  0.00  0.00    +0.004 C 
ATOM     28  C   UNL     1      31.845 -13.040 -20.718  0.00  0.00    +0.100 C 
ATOM     29  C   UNL     1      32.878 -13.691 -21.374  0.00  0.00    +0.021 C 
BRANCH  23  30
ATOM     30  C   UNL     1      31.155  -7.515 -21.225  0.00  0.00    +0.054 C 
ATOM     31  C   UNL     1      31.755  -6.532 -20.456  0.00  0.00    +0.005 C 
ATOM     32  C   UNL     1      30.283  -7.199 -22.253  0.00  0.00    +0.005 C 
ATOM     33  C   UNL     1      31.473  -5.192 -20.723  0.00  0.00    +0.010 C 
ATOM     34  C   UNL     1      30.001  -5.859 -22.519  0.00  0.00    +0.010 C 
ATOM     35  C   UNL     1      30.597  -4.856 -21.754  0.00  0.00    +0.068 C 
BRANCH  35  37
ATOM     36  N   UNL     1      30.071  -2.367 -22.247  0.00  0.00    -0.191 NA
ATOM     37  C   UNL     1      30.307  -3.483 -22.026  0.00  0.00    +0.100 C 
ENDBRANCH  35  37
ENDBRANCH  23  30
ENDBRANCH  20  22
ENDBRANCH   1  20
TORSDOF 6
ENDMDL
