MODEL 1
REMARK VINA RESULT:     -12.9      0.000      0.000
REMARK  Name = 15942672
REMARK  5 active torsions:
REMARK  status: ('A' for Active; 'I' for Inactive)
REMARK    1  A    between atoms: N_2  and  C_7
REMARK    2  A    between atoms: N_3  and  C_17
REMARK    3  A    between atoms: C_8  and  C_16
REMARK    4  A    between atoms: C_18  and  O_23
REMARK    5  A    between atoms: O_23  and  C_25
REMARK                            x       y       z     vdW  Elec       q    Type
REMARK                         _______ _______ _______ _____ _____    ______ ____
ROOT
ATOM      1  O   UNL     1      34.889 -21.938 -18.501  0.00  0.00    -0.252 OA
ATOM      2  N   UNL     1      36.580 -21.389 -16.976  0.00  0.00    -0.268 N 
ATOM      3  N   UNL     1      36.261 -20.077 -18.850  0.00  0.00    -0.268 N 
ATOM      4  C   UNL     1      35.812 -21.208 -18.152  0.00  0.00    +0.308 C 
ATOM      5  H   UNL     1      37.290 -20.724 -16.825  0.00  0.00    +0.156 HD
ATOM      6  H   UNL     1      37.014 -19.590 -18.444  0.00  0.00    +0.156 HD
ENDROOT
BRANCH   2   7
ATOM      7  C   UNL     1      36.466 -22.385 -16.005  0.00  0.00    +0.052 C 
ATOM      8  C   UNL     1      37.498 -23.986 -14.519  0.00  0.00    +0.073 C 
ATOM      9  C   UNL     1      37.612 -22.990 -15.490  0.00  0.00    +0.019 C 
ATOM     10  C   UNL     1      35.206 -22.775 -15.552  0.00  0.00    +0.015 C 
ATOM     11  C   UNL     1      36.237 -24.376 -14.065  0.00  0.00    +0.004 C 
ATOM     12  C   UNL     1      35.092 -23.771 -14.582  0.00  0.00    +0.001 C 
BRANCH   8  16
ATOM     13  F   UNL     1      39.840 -24.429 -14.722  0.00  0.00    -0.166 F 
ATOM     14  F   UNL     1      39.053 -24.197 -12.715  0.00  0.00    -0.166 F 
ATOM     15  F   UNL     1      38.596 -25.989 -13.859  0.00  0.00    -0.166 F 
ATOM     16  C   UNL     1      38.722 -24.634 -13.966  0.00  0.00    +0.419 C 
ENDBRANCH   8  16
ENDBRANCH   2   7
BRANCH   3  17
ATOM     17  C   UNL     1      35.767 -19.550 -20.066  0.00  0.00    +0.052 C 
ATOM     18  C   UNL     1      34.801 -18.517 -22.448  0.00  0.00    +0.145 C 
ATOM     19  C   UNL     1      34.467 -19.832 -20.448  0.00  0.00    +0.018 C 
ATOM     20  C   UNL     1      36.595 -18.762 -20.850  0.00  0.00    +0.018 C 
ATOM     21  C   UNL     1      33.980 -19.312 -21.649  0.00  0.00    +0.039 C 
ATOM     22  C   UNL     1      36.109 -18.241 -22.049  0.00  0.00    +0.039 C 
BRANCH  18  23
ATOM     23  O   UNL     1      34.325 -18.008 -23.617  0.00  0.00    -0.453 OA
BRANCH  23  25
ATOM     24  N   UNL     1      33.517 -13.934 -23.761  0.00  0.00    -0.242 NA
ATOM     25  C   UNL     1      34.055 -16.651 -23.665  0.00  0.00    +0.148 C 
ATOM     26  C   UNL     1      33.476 -16.118 -24.798  0.00  0.00    +0.058 C 
ATOM     27  C   UNL     1      34.370 -15.862 -22.580  0.00  0.00    +0.058 C 
ATOM     28  C   UNL     1      33.228 -14.755 -24.796  0.00  0.00    +0.102 C 
ATOM     29  C   UNL     1      34.083 -14.511 -22.678  0.00  0.00    +0.102 C 
ENDBRANCH  23  25
ENDBRANCH  18  23
ENDBRANCH   3  17
TORSDOF 5
ENDMDL
MODEL 2
REMARK VINA RESULT:     -12.8      5.150     10.780
REMARK  Name = 15942672
REMARK  5 active torsions:
REMARK  status: ('A' for Active; 'I' for Inactive)
REMARK    1  A    between atoms: N_2  and  C_7
REMARK    2  A    between atoms: N_3  and  C_17
REMARK    3  A    between atoms: C_8  and  C_16
REMARK    4  A    between atoms: C_18  and  O_23
REMARK    5  A    between atoms: O_23  and  C_25
REMARK                            x       y       z     vdW  Elec       q    Type
REMARK                         _______ _______ _______ _____ _____    ______ ____
ROOT
ATOM      1  O   UNL     1      33.500 -19.971 -19.890  0.00  0.00    -0.252 OA
ATOM      2  N   UNL     1      35.346 -19.333 -21.184  0.00  0.00    -0.268 N 
ATOM      3  N   UNL     1      35.671 -20.569 -19.259  0.00  0.00    -0.268 N 
ATOM      4  C   UNL     1      34.712 -19.962 -20.085  0.00  0.00    +0.308 C 
ATOM      5  H   UNL     1      36.328 -19.408 -21.208  0.00  0.00    +0.156 HD
ATOM      6  H   UNL     1      36.608 -20.476 -19.546  0.00  0.00    +0.156 HD
ENDROOT
BRANCH   2   7
ATOM      7  C   UNL     1      34.766 -18.621 -22.233  0.00  0.00    +0.052 C 
ATOM      8  C   UNL     1      34.137 -16.515 -23.236  0.00  0.00    +0.073 C 
ATOM      9  C   UNL     1      34.717 -17.228 -22.187  0.00  0.00    +0.019 C 
ATOM     10  C   UNL     1      34.236 -19.302 -23.328  0.00  0.00    +0.015 C 
ATOM     11  C   UNL     1      33.606 -17.196 -24.332  0.00  0.00    +0.004 C 
ATOM     12  C   UNL     1      33.655 -18.589 -24.378  0.00  0.00    +0.001 C 
BRANCH   8  16
ATOM     13  F   UNL     1      32.847 -14.512 -23.454  0.00  0.00    -0.166 F 
ATOM     14  F   UNL     1      34.433 -14.505 -21.975  0.00  0.00    -0.166 F 
ATOM     15  F   UNL     1      34.924 -14.442 -24.093  0.00  0.00    -0.166 F 
ATOM     16  C   UNL     1      34.084 -15.025 -23.189  0.00  0.00    +0.419 C 
ENDBRANCH   8  16
ENDBRANCH   2   7
BRANCH   3  17
ATOM     17  C   UNL     1      35.458 -21.297 -18.065  0.00  0.00    +0.052 C 
ATOM     18  C   UNL     1      35.043 -22.723 -15.726  0.00  0.00    +0.145 C 
ATOM     19  C   UNL     1      34.254 -21.954 -17.877  0.00  0.00    +0.018 C 
ATOM     20  C   UNL     1      36.459 -21.338 -17.108  0.00  0.00    +0.018 C 
ATOM     21  C   UNL     1      34.045 -22.672 -16.699  0.00  0.00    +0.039 C 
ATOM     22  C   UNL     1      36.251 -22.056 -15.931  0.00  0.00    +0.039 C 
BRANCH  18  23
ATOM     23  O   UNL     1      34.840 -23.425 -14.578  0.00  0.00    -0.453 OA
BRANCH  23  25
ATOM     24  N   UNL     1      37.481 -26.515 -13.716  0.00  0.00    -0.242 NA
ATOM     25  C   UNL     1      35.719 -24.454 -14.289  0.00  0.00    +0.148 C 
ATOM     26  C   UNL     1      36.593 -24.318 -13.231  0.00  0.00    +0.058 C 
ATOM     27  C   UNL     1      35.702 -25.592 -15.067  0.00  0.00    +0.058 C 
ATOM     28  C   UNL     1      37.453 -25.377 -12.986  0.00  0.00    +0.102 C 
ATOM     29  C   UNL     1      36.602 -26.593 -14.740  0.00  0.00    +0.102 C 
ENDBRANCH  23  25
ENDBRANCH  18  23
ENDBRANCH   3  17
TORSDOF 5
ENDMDL
MODEL 3
REMARK VINA RESULT:     -12.6      8.625     13.524
REMARK  Name = 15942672
REMARK  5 active torsions:
REMARK  status: ('A' for Active; 'I' for Inactive)
REMARK    1  A    between atoms: N_2  and  C_7
REMARK    2  A    between atoms: N_3  and  C_17
REMARK    3  A    between atoms: C_8  and  C_16
REMARK    4  A    between atoms: C_18  and  O_23
REMARK    5  A    between atoms: O_23  and  C_25
REMARK                            x       y       z     vdW  Elec       q    Type
REMARK                         _______ _______ _______ _____ _____    ______ ____
ROOT
ATOM      1  O   UNL     1      33.250 -10.662 -23.543  0.00  0.00    -0.252 OA
ATOM      2  N   UNL     1      31.404 -10.070 -22.227  0.00  0.00    -0.268 N 
ATOM      3  N   UNL     1      32.154 -12.255 -22.228  0.00  0.00    -0.268 N 
ATOM      4  C   UNL     1      32.365 -10.970 -22.750  0.00  0.00    +0.308 C 
ATOM      5  H   UNL     1      30.753 -10.461 -21.599  0.00  0.00    +0.156 HD
ATOM      6  H   UNL     1      31.401 -12.348 -21.600  0.00  0.00    +0.156 HD
ENDROOT
BRANCH   2   7
ATOM      7  C   UNL     1      31.256  -8.707 -22.483  0.00  0.00    +0.052 C 
ATOM      8  C   UNL     1      31.245  -6.421 -21.703  0.00  0.00    +0.073 C 
ATOM      9  C   UNL     1      31.392  -7.784 -21.447  0.00  0.00    +0.019 C 
ATOM     10  C   UNL     1      30.973  -8.268 -23.776  0.00  0.00    +0.015 C 
ATOM     11  C   UNL     1      30.961  -5.982 -22.997  0.00  0.00    +0.004 C 
ATOM     12  C   UNL     1      30.825  -6.905 -24.033  0.00  0.00    +0.001 C 
BRANCH   8  16
ATOM     13  F   UNL     1      31.929  -5.960 -19.458  0.00  0.00    -0.166 F 
ATOM     14  F   UNL     1      32.193  -4.373 -20.913  0.00  0.00    -0.166 F 
ATOM     15  F   UNL     1      30.197  -4.888 -20.218  0.00  0.00    -0.166 F 
ATOM     16  C   UNL     1      31.391  -5.432 -20.596  0.00  0.00    +0.419 C 
ENDBRANCH   8  16
ENDBRANCH   2   7
BRANCH   3  17
ATOM     17  C   UNL     1      32.888 -13.435 -22.493  0.00  0.00    +0.052 C 
ATOM     18  C   UNL     1      34.327 -15.745 -23.012  0.00  0.00    +0.145 C 
ATOM     19  C   UNL     1      33.530 -14.083 -21.450  0.00  0.00    +0.018 C 
ATOM     20  C   UNL     1      32.951 -13.918 -23.790  0.00  0.00    +0.018 C 
ATOM     21  C   UNL     1      34.255 -15.246 -21.712  0.00  0.00    +0.039 C 
ATOM     22  C   UNL     1      33.674 -15.081 -24.051  0.00  0.00    +0.039 C 
BRANCH  18  23
ATOM     23  O   UNL     1      35.032 -16.881 -23.268  0.00  0.00    -0.453 OA
BRANCH  23  25
ATOM     24  N   UNL     1      35.233 -19.742 -20.261  0.00  0.00    -0.242 NA
ATOM     25  C   UNL     1      35.099 -17.836 -22.267  0.00  0.00    +0.148 C 
ATOM     26  C   UNL     1      34.000 -18.631 -22.019  0.00  0.00    +0.058 C 
ATOM     27  C   UNL     1      36.262 -17.968 -21.540  0.00  0.00    +0.058 C 
ATOM     28  C   UNL     1      34.118 -19.570 -21.006  0.00  0.00    +0.102 C 
ATOM     29  C   UNL     1      36.278 -18.935 -20.548  0.00  0.00    +0.102 C 
ENDBRANCH  23  25
ENDBRANCH  18  23
ENDBRANCH   3  17
TORSDOF 5
ENDMDL
MODEL 4
REMARK VINA RESULT:     -12.3      7.645     12.317
REMARK  Name = 15942672
REMARK  5 active torsions:
REMARK  status: ('A' for Active; 'I' for Inactive)
REMARK    1  A    between atoms: N_2  and  C_7
REMARK    2  A    between atoms: N_3  and  C_17
REMARK    3  A    between atoms: C_8  and  C_16
REMARK    4  A    between atoms: C_18  and  O_23
REMARK    5  A    between atoms: O_23  and  C_25
REMARK                            x       y       z     vdW  Elec       q    Type
REMARK                         _______ _______ _______ _____ _____    ______ ____
ROOT
ATOM      1  O   UNL     1      33.077 -13.343 -21.210  0.00  0.00    -0.252 OA
ATOM      2  N   UNL     1      32.989 -12.206 -23.257  0.00  0.00    -0.268 N 
ATOM      3  N   UNL     1      33.778 -14.376 -23.188  0.00  0.00    -0.268 N 
ATOM      4  C   UNL     1      33.264 -13.317 -22.423  0.00  0.00    +0.308 C 
ATOM      5  H   UNL     1      33.191 -12.331 -24.213  0.00  0.00    +0.156 HD
ATOM      6  H   UNL     1      33.872 -14.206 -24.153  0.00  0.00    +0.156 HD
ENDROOT
BRANCH   2   7
ATOM      7  C   UNL     1      32.473 -10.959 -22.905  0.00  0.00    +0.052 C 
ATOM      8  C   UNL     1      32.642  -8.549 -22.903  0.00  0.00    +0.073 C 
ATOM      9  C   UNL     1      33.159  -9.796 -23.256  0.00  0.00    +0.019 C 
ATOM     10  C   UNL     1      31.272 -10.875 -22.201  0.00  0.00    +0.015 C 
ATOM     11  C   UNL     1      31.440  -8.465 -22.199  0.00  0.00    +0.004 C 
ATOM     12  C   UNL     1      30.755  -9.628 -21.849  0.00  0.00    +0.001 C 
BRANCH   8  16
ATOM     13  F   UNL     1      32.647  -6.457 -24.064  0.00  0.00    -0.166 F 
ATOM     14  F   UNL     1      33.760  -6.553 -22.205  0.00  0.00    -0.166 F 
ATOM     15  F   UNL     1      34.519  -7.560 -23.977  0.00  0.00    -0.166 F 
ATOM     16  C   UNL     1      33.374  -7.304 -23.278  0.00  0.00    +0.419 C 
ENDBRANCH   8  16
ENDBRANCH   2   7
BRANCH   3  17
ATOM     17  C   UNL     1      34.179 -15.658 -22.743  0.00  0.00    +0.052 C 
ATOM     18  C   UNL     1      34.963 -18.168 -21.871  0.00  0.00    +0.145 C 
ATOM     19  C   UNL     1      34.217 -16.707 -23.646  0.00  0.00    +0.018 C 
ATOM     20  C   UNL     1      34.524 -15.837 -21.413  0.00  0.00    +0.018 C 
ATOM     21  C   UNL     1      34.612 -17.971 -23.206  0.00  0.00    +0.039 C 
ATOM     22  C   UNL     1      34.920 -17.100 -20.974  0.00  0.00    +0.039 C 
BRANCH  18  23
ATOM     23  O   UNL     1      35.350 -19.400 -21.443  0.00  0.00    -0.453 OA
BRANCH  23  25
ATOM     24  N   UNL     1      32.900 -21.356 -18.716  0.00  0.00    -0.242 NA
ATOM     25  C   UNL     1      34.533 -20.052 -20.536  0.00  0.00    +0.148 C 
ATOM     26  C   UNL     1      33.174 -19.820 -20.563  0.00  0.00    +0.058 C 
ATOM     27  C   UNL     1      35.096 -20.919 -19.624  0.00  0.00    +0.058 C 
ATOM     28  C   UNL     1      32.401 -20.496 -19.632  0.00  0.00    +0.102 C 
ATOM     29  C   UNL     1      34.237 -21.545 -18.735  0.00  0.00    +0.102 C 
ENDBRANCH  23  25
ENDBRANCH  18  23
ENDBRANCH   3  17
TORSDOF 5
ENDMDL
MODEL 5
REMARK VINA RESULT:     -12.3      8.891     13.779
REMARK  Name = 15942672
REMARK  5 active torsions:
REMARK  status: ('A' for Active; 'I' for Inactive)
REMARK    1  A    between atoms: N_2  and  C_7
REMARK    2  A    between atoms: N_3  and  C_17
REMARK    3  A    between atoms: C_8  and  C_16
REMARK    4  A    between atoms: C_18  and  O_23
REMARK    5  A    between atoms: O_23  and  C_25
REMARK                            x       y       z     vdW  Elec       q    Type
REMARK                         _______ _______ _______ _____ _____    ______ ____
ROOT
ATOM      1  O   UNL     1      33.469 -10.710 -23.367  0.00  0.00    -0.252 OA
ATOM      2  N   UNL     1      31.542 -10.108 -22.176  0.00  0.00    -0.268 N 
ATOM      3  N   UNL     1      32.207 -12.320 -22.233  0.00  0.00    -0.268 N 
ATOM      4  C   UNL     1      32.509 -11.020 -22.666  0.00  0.00    +0.308 C 
ATOM      5  H   UNL     1      30.827 -10.502 -21.626  0.00  0.00    +0.156 HD
ATOM      6  H   UNL     1      31.402 -12.413 -21.675  0.00  0.00    +0.156 HD
ENDROOT
BRANCH   2   7
ATOM      7  C   UNL     1      31.468  -8.729 -22.370  0.00  0.00    +0.052 C 
ATOM      8  C   UNL     1      31.465  -6.823 -23.854  0.00  0.00    +0.073 C 
ATOM      9  C   UNL     1      31.539  -8.202 -23.660  0.00  0.00    +0.019 C 
ATOM     10  C   UNL     1      31.323  -7.878 -21.275  0.00  0.00    +0.015 C 
ATOM     11  C   UNL     1      31.319  -5.971 -22.758  0.00  0.00    +0.004 C 
ATOM     12  C   UNL     1      31.249  -6.498 -21.470  0.00  0.00    +0.001 C 
BRANCH   8  16
ATOM     13  F   UNL     1      31.053  -4.986 -25.330  0.00  0.00    -0.166 F 
ATOM     14  F   UNL     1      32.811  -6.192 -25.727  0.00  0.00    -0.166 F 
ATOM     15  F   UNL     1      30.831  -6.991 -26.139  0.00  0.00    -0.166 F 
ATOM     16  C   UNL     1      31.540  -6.257 -25.232  0.00  0.00    +0.419 C 
ENDBRANCH   8  16
ENDBRANCH   2   7
BRANCH   3  17
ATOM     17  C   UNL     1      32.917 -13.515 -22.500  0.00  0.00    +0.052 C 
ATOM     18  C   UNL     1      34.306 -15.854 -23.023  0.00  0.00    +0.145 C 
ATOM     19  C   UNL     1      33.569 -14.161 -21.464  0.00  0.00    +0.018 C 
ATOM     20  C   UNL     1      32.945 -14.012 -23.792  0.00  0.00    +0.018 C 
ATOM     21  C   UNL     1      34.269 -15.340 -21.728  0.00  0.00    +0.039 C 
ATOM     22  C   UNL     1      33.643 -15.190 -24.056  0.00  0.00    +0.039 C 
BRANCH  18  23
ATOM     23  O   UNL     1      34.987 -17.004 -23.280  0.00  0.00    -0.453 OA
BRANCH  23  25
ATOM     24  N   UNL     1      35.307 -19.783 -20.208  0.00  0.00    -0.242 NA
ATOM     25  C   UNL     1      35.093 -17.931 -22.258  0.00  0.00    +0.148 C 
ATOM     26  C   UNL     1      34.011 -18.730 -21.956  0.00  0.00    +0.058 C 
ATOM     27  C   UNL     1      36.279 -18.033 -21.562  0.00  0.00    +0.058 C 
ATOM     28  C   UNL     1      34.169 -19.640 -20.923  0.00  0.00    +0.102 C 
ATOM     29  C   UNL     1      36.335 -18.974 -20.547  0.00  0.00    +0.102 C 
ENDBRANCH  23  25
ENDBRANCH  18  23
ENDBRANCH   3  17
TORSDOF 5
ENDMDL
MODEL 6
REMARK VINA RESULT:     -12.3      8.146     13.081
REMARK  Name = 15942672
REMARK  5 active torsions:
REMARK  status: ('A' for Active; 'I' for Inactive)
REMARK    1  A    between atoms: N_2  and  C_7
REMARK    2  A    between atoms: N_3  and  C_17
REMARK    3  A    between atoms: C_8  and  C_16
REMARK    4  A    between atoms: C_18  and  O_23
REMARK    5  A    between atoms: O_23  and  C_25
REMARK                            x       y       z     vdW  Elec       q    Type
REMARK                         _______ _______ _______ _____ _____    ______ ____
ROOT
ATOM      1  O   UNL     1      31.521 -11.674 -22.455  0.00  0.00    -0.252 OA
ATOM      2  N   UNL     1      32.859  -9.885 -23.162  0.00  0.00    -0.268 N 
ATOM      3  N   UNL     1      33.605 -12.053 -23.447  0.00  0.00    -0.268 N 
ATOM      4  C   UNL     1      32.555 -11.254 -22.968  0.00  0.00    +0.308 C 
ATOM      5  H   UNL     1      33.728  -9.698 -23.587  0.00  0.00    +0.156 HD
ATOM      6  H   UNL     1      34.371 -11.571 -23.833  0.00  0.00    +0.156 HD
ENDROOT
BRANCH   2   7
ATOM      7  C   UNL     1      32.094  -8.767 -22.830  0.00  0.00    +0.052 C 
ATOM      8  C   UNL     1      31.560  -6.976 -21.299  0.00  0.00    +0.073 C 
ATOM      9  C   UNL     1      32.326  -8.094 -21.631  0.00  0.00    +0.019 C 
ATOM     10  C   UNL     1      31.097  -8.323 -23.698  0.00  0.00    +0.015 C 
ATOM     11  C   UNL     1      30.563  -6.531 -22.168  0.00  0.00    +0.004 C 
ATOM     12  C   UNL     1      30.331  -7.204 -23.367  0.00  0.00    +0.001 C 
BRANCH   8  16
ATOM     13  F   UNL     1      31.622  -4.905 -20.104  0.00  0.00    -0.166 F 
ATOM     14  F   UNL     1      30.997  -6.661 -18.997  0.00  0.00    -0.166 F 
ATOM     15  F   UNL     1      33.084  -6.420 -19.561  0.00  0.00    -0.166 F 
ATOM     16  C   UNL     1      31.808  -6.254 -20.018  0.00  0.00    +0.419 C 
ENDBRANCH   8  16
ENDBRANCH   2   7
BRANCH   3  17
ATOM     17  C   UNL     1      33.698 -13.464 -23.443  0.00  0.00    +0.052 C 
ATOM     18  C   UNL     1      33.881 -16.229 -23.438  0.00  0.00    +0.145 C 
ATOM     19  C   UNL     1      34.096 -14.115 -22.288  0.00  0.00    +0.018 C 
ATOM     20  C   UNL     1      33.390 -14.167 -24.597  0.00  0.00    +0.018 C 
ATOM     21  C   UNL     1      34.189 -15.507 -22.285  0.00  0.00    +0.039 C 
ATOM     22  C   UNL     1      33.481 -15.559 -24.594  0.00  0.00    +0.039 C 
BRANCH  18  23
ATOM     23  O   UNL     1      33.969 -17.587 -23.435  0.00  0.00    -0.453 OA
BRANCH  23  25
ATOM     24  N   UNL     1      35.880 -19.397 -20.220  0.00  0.00    -0.242 NA
ATOM     25  C   UNL     1      34.606 -18.188 -22.363  0.00  0.00    +0.148 C 
ATOM     26  C   UNL     1      35.931 -17.897 -22.116  0.00  0.00    +0.058 C 
ATOM     27  C   UNL     1      33.902 -19.067 -21.568  0.00  0.00    +0.058 C 
ATOM     28  C   UNL     1      36.522 -18.527 -21.032  0.00  0.00    +0.102 C 
ATOM     29  C   UNL     1      34.584 -19.645 -20.510  0.00  0.00    +0.102 C 
ENDBRANCH  23  25
ENDBRANCH  18  23
ENDBRANCH   3  17
TORSDOF 5
ENDMDL
MODEL 7
REMARK VINA RESULT:     -12.3      1.541      2.279
REMARK  Name = 15942672
REMARK  5 active torsions:
REMARK  status: ('A' for Active; 'I' for Inactive)
REMARK    1  A    between atoms: N_2  and  C_7
REMARK    2  A    between atoms: N_3  and  C_17
REMARK    3  A    between atoms: C_8  and  C_16
REMARK    4  A    between atoms: C_18  and  O_23
REMARK    5  A    between atoms: O_23  and  C_25
REMARK                            x       y       z     vdW  Elec       q    Type
REMARK                         _______ _______ _______ _____ _____    ______ ____
ROOT
ATOM      1  O   UNL     1      35.959 -21.374 -16.647  0.00  0.00    -0.252 OA
ATOM      2  N   UNL     1      34.383 -23.025 -16.117  0.00  0.00    -0.268 N 
ATOM      3  N   UNL     1      34.213 -21.882 -18.117  0.00  0.00    -0.268 N 
ATOM      4  C   UNL     1      34.957 -22.021 -16.936  0.00  0.00    +0.308 C 
ATOM      5  H   UNL     1      33.578 -23.461 -16.480  0.00  0.00    +0.156 HD
ATOM      6  H   UNL     1      33.432 -22.473 -18.208  0.00  0.00    +0.156 HD
ENDROOT
BRANCH   2   7
ATOM      7  C   UNL     1      34.806 -23.476 -14.867  0.00  0.00    +0.052 C 
ATOM      8  C   UNL     1      36.467 -24.553 -13.483  0.00  0.00    +0.073 C 
ATOM      9  C   UNL     1      36.045 -24.102 -14.734  0.00  0.00    +0.019 C 
ATOM     10  C   UNL     1      33.989 -23.301 -13.750  0.00  0.00    +0.015 C 
ATOM     11  C   UNL     1      35.650 -24.378 -12.366  0.00  0.00    +0.004 C 
ATOM     12  C   UNL     1      34.411 -23.752 -12.500  0.00  0.00    +0.001 C 
BRANCH   8  16
ATOM     13  F   UNL     1      38.851 -24.362 -13.406  0.00  0.00    -0.166 F 
ATOM     14  F   UNL     1      37.945 -25.883 -12.153  0.00  0.00    -0.166 F 
ATOM     15  F   UNL     1      38.018 -26.156 -14.309  0.00  0.00    -0.166 F 
ATOM     16  C   UNL     1      37.793 -25.222 -13.339  0.00  0.00    +0.419 C 
ENDBRANCH   8  16
ENDBRANCH   2   7
BRANCH   3  17
ATOM     17  C   UNL     1      34.447 -20.995 -19.195  0.00  0.00    +0.052 C 
ATOM     18  C   UNL     1      34.903 -19.258 -21.304  0.00  0.00    +0.145 C 
ATOM     19  C   UNL     1      35.746 -20.629 -19.502  0.00  0.00    +0.018 C 
ATOM     20  C   UNL     1      33.370 -20.511 -19.920  0.00  0.00    +0.018 C 
ATOM     21  C   UNL     1      35.976 -19.754 -20.565  0.00  0.00    +0.039 C 
ATOM     22  C   UNL     1      33.600 -19.637 -20.983  0.00  0.00    +0.039 C 
BRANCH  18  23
ATOM     23  O   UNL     1      35.127 -18.407 -22.342  0.00  0.00    -0.453 OA
BRANCH  23  25
ATOM     24  N   UNL     1      33.858 -14.473 -21.922  0.00  0.00    -0.242 NA
ATOM     25  C   UNL     1      34.706 -17.096 -22.202  0.00  0.00    +0.148 C 
ATOM     26  C   UNL     1      34.571 -16.563 -20.937  0.00  0.00    +0.058 C 
ATOM     27  C   UNL     1      34.429 -16.353 -23.329  0.00  0.00    +0.058 C 
ATOM     28  C   UNL     1      34.144 -15.247 -20.851  0.00  0.00    +0.102 C 
ATOM     29  C   UNL     1      34.008 -15.047 -23.135  0.00  0.00    +0.102 C 
ENDBRANCH  23  25
ENDBRANCH  18  23
ENDBRANCH   3  17
TORSDOF 5
ENDMDL
MODEL 8
REMARK VINA RESULT:     -12.1      4.933      5.619
REMARK  Name = 15942672
REMARK  5 active torsions:
REMARK  status: ('A' for Active; 'I' for Inactive)
REMARK    1  A    between atoms: N_2  and  C_7
REMARK    2  A    between atoms: N_3  and  C_17
REMARK    3  A    between atoms: C_8  and  C_16
REMARK    4  A    between atoms: C_18  and  O_23
REMARK    5  A    between atoms: O_23  and  C_25
REMARK                            x       y       z     vdW  Elec       q    Type
REMARK                         _______ _______ _______ _____ _____    ______ ____
ROOT
ATOM      1  O   UNL     1      31.629 -20.915 -18.423  0.00  0.00    -0.252 OA
ATOM      2  N   UNL     1      32.729 -22.468 -17.056  0.00  0.00    -0.268 N 
ATOM      3  N   UNL     1      33.910 -21.352 -18.698  0.00  0.00    -0.268 N 
ATOM      4  C   UNL     1      32.651 -21.512 -18.098  0.00  0.00    +0.308 C 
ATOM      5  H   UNL     1      33.618 -22.867 -16.910  0.00  0.00    +0.156 HD
ATOM      6  H   UNL     1      34.637 -21.902 -18.329  0.00  0.00    +0.156 HD
ENDROOT
BRANCH   2   7
ATOM      7  C   UNL     1      31.715 -22.921 -16.212  0.00  0.00    +0.052 C 
ATOM      8  C   UNL     1      29.366 -23.253 -15.754  0.00  0.00    +0.073 C 
ATOM      9  C   UNL     1      30.380 -22.800 -16.599  0.00  0.00    +0.019 C 
ATOM     10  C   UNL     1      32.036 -23.493 -14.981  0.00  0.00    +0.015 C 
ATOM     11  C   UNL     1      29.688 -23.826 -14.523  0.00  0.00    +0.004 C 
ATOM     12  C   UNL     1      31.022 -23.945 -14.137  0.00  0.00    +0.001 C 
BRANCH   8  16
ATOM     13  F   UNL     1      27.436 -24.251 -16.755  0.00  0.00    -0.166 F 
ATOM     14  F   UNL     1      27.092 -22.858 -15.129  0.00  0.00    -0.166 F 
ATOM     15  F   UNL     1      27.741 -22.121 -17.070  0.00  0.00    -0.166 F 
ATOM     16  C   UNL     1      27.939 -23.126 -16.167  0.00  0.00    +0.419 C 
ENDBRANCH   8  16
ENDBRANCH   2   7
BRANCH   3  17
ATOM     17  C   UNL     1      34.263 -20.499 -19.770  0.00  0.00    +0.052 C 
ATOM     18  C   UNL     1      34.954 -18.828 -21.869  0.00  0.00    +0.145 C 
ATOM     19  C   UNL     1      33.283 -20.082 -20.656  0.00  0.00    +0.018 C 
ATOM     20  C   UNL     1      35.581 -20.098 -19.912  0.00  0.00    +0.018 C 
ATOM     21  C   UNL     1      33.632 -19.241 -21.713  0.00  0.00    +0.039 C 
ATOM     22  C   UNL     1      35.930 -19.256 -20.968  0.00  0.00    +0.039 C 
BRANCH  18  23
ATOM     23  O   UNL     1      35.294 -18.005 -22.898  0.00  0.00    -0.453 OA
BRANCH  23  25
ATOM     24  N   UNL     1      33.368 -14.332 -23.156  0.00  0.00    -0.242 NA
ATOM     25  C   UNL     1      34.651 -16.782 -22.984  0.00  0.00    +0.148 C 
ATOM     26  C   UNL     1      34.060 -16.413 -24.174  0.00  0.00    +0.058 C 
ATOM     27  C   UNL     1      34.617 -15.960 -21.878  0.00  0.00    +0.058 C 
ATOM     28  C   UNL     1      33.431 -15.178 -24.208  0.00  0.00    +0.102 C 
ATOM     29  C   UNL     1      33.964 -14.746 -22.016  0.00  0.00    +0.102 C 
ENDBRANCH  23  25
ENDBRANCH  18  23
ENDBRANCH   3  17
TORSDOF 5
ENDMDL
MODEL 9
REMARK VINA RESULT:     -12.1      2.594      3.255
REMARK  Name = 15942672
REMARK  5 active torsions:
REMARK  status: ('A' for Active; 'I' for Inactive)
REMARK    1  A    between atoms: N_2  and  C_7
REMARK    2  A    between atoms: N_3  and  C_17
REMARK    3  A    between atoms: C_8  and  C_16
REMARK    4  A    between atoms: C_18  and  O_23
REMARK    5  A    between atoms: O_23  and  C_25
REMARK                            x       y       z     vdW  Elec       q    Type
REMARK                         _______ _______ _______ _____ _____    ______ ____
ROOT
ATOM      1  O   UNL     1      33.959 -21.495 -18.445  0.00  0.00    -0.252 OA
ATOM      2  N   UNL     1      35.850 -21.652 -17.070  0.00  0.00    -0.268 N 
ATOM      3  N   UNL     1      35.920 -20.331 -18.964  0.00  0.00    -0.268 N 
ATOM      4  C   UNL     1      35.120 -21.188 -18.192  0.00  0.00    +0.308 C 
ATOM      5  H   UNL     1      36.774 -21.321 -16.997  0.00  0.00    +0.156 HD
ATOM      6  H   UNL     1      36.834 -20.180 -18.633  0.00  0.00    +0.156 HD
ENDROOT
BRANCH   2   7
ATOM      7  C   UNL     1      35.433 -22.516 -16.057  0.00  0.00    +0.052 C 
ATOM      8  C   UNL     1      33.664 -23.466 -14.714  0.00  0.00    +0.073 C 
ATOM      9  C   UNL     1      34.081 -22.602 -15.727  0.00  0.00    +0.019 C 
ATOM     10  C   UNL     1      36.369 -23.292 -15.374  0.00  0.00    +0.015 C 
ATOM     11  C   UNL     1      34.601 -24.243 -14.031  0.00  0.00    +0.004 C 
ATOM     12  C   UNL     1      35.953 -24.155 -14.361  0.00  0.00    +0.001 C 
BRANCH   8  16
ATOM     13  F   UNL     1      31.813 -22.622 -13.457  0.00  0.00    -0.166 F 
ATOM     14  F   UNL     1      31.384 -23.410 -15.430  0.00  0.00    -0.166 F 
ATOM     15  F   UNL     1      31.892 -24.766 -13.808  0.00  0.00    -0.166 F 
ATOM     16  C   UNL     1      32.218 -23.561 -14.360  0.00  0.00    +0.419 C 
ENDBRANCH   8  16
ENDBRANCH   2   7
BRANCH   3  17
ATOM     17  C   UNL     1      35.574 -19.658 -20.160  0.00  0.00    +0.052 C 
ATOM     18  C   UNL     1      34.899 -18.341 -22.502  0.00  0.00    +0.145 C 
ATOM     19  C   UNL     1      34.297 -19.802 -20.673  0.00  0.00    +0.018 C 
ATOM     20  C   UNL     1      36.522 -18.871 -20.792  0.00  0.00    +0.018 C 
ATOM     21  C   UNL     1      33.957 -19.138 -21.853  0.00  0.00    +0.039 C 
ATOM     22  C   UNL     1      36.183 -18.206 -21.971  0.00  0.00    +0.039 C 
BRANCH  18  23
ATOM     23  O   UNL     1      34.568 -17.692 -23.651  0.00  0.00    -0.453 OA
BRANCH  23  25
ATOM     24  N   UNL     1      33.377 -13.722 -23.353  0.00  0.00    -0.242 NA
ATOM     25  C   UNL     1      34.172 -16.369 -23.551  0.00  0.00    +0.148 C 
ATOM     26  C   UNL     1      34.402 -15.683 -22.377  0.00  0.00    +0.058 C 
ATOM     27  C   UNL     1      33.557 -15.767 -24.628  0.00  0.00    +0.058 C 
ATOM     28  C   UNL     1      33.985 -14.362 -22.329  0.00  0.00    +0.102 C 
ATOM     29  C   UNL     1      33.177 -14.443 -24.478  0.00  0.00    +0.102 C 
ENDBRANCH  23  25
ENDBRANCH  18  23
ENDBRANCH   3  17
TORSDOF 5
ENDMDL
