MODEL 1
REMARK VINA RESULT:     -10.5      0.000      0.000
REMARK  Name = 9884366
REMARK  4 active torsions:
REMARK  status: ('A' for Active; 'I' for Inactive)
REMARK    1  A    between atoms: N_2  and  C_23
REMARK    2  A    between atoms: C_6  and  C_15
REMARK    3  A    between atoms: C_20  and  O_21
REMARK    4  A    between atoms: C_23  and  C_25
REMARK                            x       y       z     vdW  Elec       q    Type
REMARK                         _______ _______ _______ _____ _____    ______ ____
ROOT
ATOM      1  N   UNL     1      33.657 -16.132 -23.410  0.00  0.00    -0.124 N 
ATOM      2  N   UNL     1      32.976 -14.396 -24.864  0.00  0.00    -0.296 N 
ATOM      3  N   UNL     1      33.584 -17.059 -24.382  0.00  0.00    -0.177 NA
ATOM      4  N   UNL     1      34.165 -15.790 -21.135  0.00  0.00    -0.331 NA
ATOM      5  N   UNL     1      33.476 -14.002 -22.580  0.00  0.00    -0.311 NA
ATOM      6  C   UNL     1      34.248 -17.971 -22.392  0.00  0.00    +0.118 C 
ATOM      7  C   UNL     1      34.051 -16.623 -22.196  0.00  0.00    +0.204 C 
ATOM      8  C   UNL     1      33.361 -14.789 -23.611  0.00  0.00    +0.274 C 
ATOM      9  C   UNL     1      33.947 -18.181 -23.753  0.00  0.00    +0.064 C 
ATOM     10  C   UNL     1      33.878 -14.541 -21.369  0.00  0.00    +0.119 C 
ATOM     11  C   UNL     1      33.991 -19.449 -24.503  0.00  0.00    +0.049 C 
ATOM     12  C   UNL     1      33.975 -13.542 -20.249  0.00  0.00    +0.143 C 
ATOM     13  H   UNL     1      32.906 -15.075 -25.574  0.00  0.00    +0.150 HD
ENDROOT
BRANCH   6  15
ATOM     14  N   UNL     1      36.437 -19.843 -20.022  0.00  0.00    -0.376 NA
ATOM     15  C   UNL     1      34.670 -18.878 -21.368  0.00  0.00    +0.084 C 
ATOM     16  C   UNL     1      35.998 -18.999 -20.983  0.00  0.00    +0.095 C 
ATOM     17  C   UNL     1      33.735 -19.680 -20.719  0.00  0.00    -0.013 C 
ATOM     18  C   UNL     1      37.058 -18.171 -21.635  0.00  0.00    +0.062 C 
ATOM     19  C   UNL     1      34.148 -20.560 -19.725  0.00  0.00    +0.067 C 
ATOM     20  C   UNL     1      35.498 -20.603 -19.416  0.00  0.00    +0.277 C 
BRANCH  20  21
ATOM     21  O   UNL     1      35.930 -21.463 -18.441  0.00  0.00    -0.448 OA
ATOM     22  C   UNL     1      36.455 -20.875 -17.256  0.00  0.00    +0.255 C 
ENDBRANCH  20  21
ENDBRANCH   6  15
BRANCH   2  23
ATOM     23  C   UNL     1      32.671 -13.034 -25.179  0.00  0.00    +0.073 C 
ATOM     24  C   UNL     1      32.930 -12.808 -26.665  0.00  0.00    +0.021 C 
BRANCH  23  25
ATOM     25  C   UNL     1      33.521 -12.087 -24.324  0.00  0.00    +0.020 C 
ATOM     26  C   UNL     1      32.688 -11.029 -23.613  0.00  0.00    +0.002 C 
ENDBRANCH  23  25
ENDBRANCH   2  23
TORSDOF 4
ENDMDL
MODEL 2
REMARK VINA RESULT:      -9.7      8.284     10.861
REMARK  Name = 9884366
REMARK  4 active torsions:
REMARK  status: ('A' for Active; 'I' for Inactive)
REMARK    1  A    between atoms: N_2  and  C_23
REMARK    2  A    between atoms: C_6  and  C_15
REMARK    3  A    between atoms: C_20  and  O_21
REMARK    4  A    between atoms: C_23  and  C_25
REMARK                            x       y       z     vdW  Elec       q    Type
REMARK                         _______ _______ _______ _____ _____    ______ ____
ROOT
ATOM      1  N   UNL     1      32.686 -23.249 -14.787  0.00  0.00    -0.124 N 
ATOM      2  N   UNL     1      30.384 -22.729 -14.927  0.00  0.00    -0.296 N 
ATOM      3  N   UNL     1      32.623 -23.456 -13.459  0.00  0.00    -0.177 NA
ATOM      4  N   UNL     1      34.128 -23.253 -16.651  0.00  0.00    -0.331 NA
ATOM      5  N   UNL     1      31.795 -22.719 -16.832  0.00  0.00    -0.311 NA
ATOM      6  C   UNL     1      34.740 -23.779 -14.265  0.00  0.00    +0.118 C 
ATOM      7  C   UNL     1      33.931 -23.429 -15.323  0.00  0.00    +0.204 C 
ATOM      8  C   UNL     1      31.588 -22.885 -15.557  0.00  0.00    +0.274 C 
ATOM      9  C   UNL     1      33.882 -23.779 -13.146  0.00  0.00    +0.064 C 
ATOM     10  C   UNL     1      33.072 -22.912 -17.333  0.00  0.00    +0.119 C 
ATOM     11  C   UNL     1      34.223 -24.084 -11.745  0.00  0.00    +0.049 C 
ATOM     12  C   UNL     1      33.194 -22.693 -18.816  0.00  0.00    +0.143 C 
ATOM     13  H   UNL     1      30.337 -22.864 -13.952  0.00  0.00    +0.150 HD
ENDROOT
BRANCH   6  15
ATOM     14  N   UNL     1      38.392 -23.319 -14.865  0.00  0.00    -0.376 NA
ATOM     15  C   UNL     1      36.139 -24.061 -14.381  0.00  0.00    +0.084 C 
ATOM     16  C   UNL     1      37.064 -23.093 -14.743  0.00  0.00    +0.095 C 
ATOM     17  C   UNL     1      36.613 -25.345 -14.127  0.00  0.00    -0.013 C 
ATOM     18  C   UNL     1      36.628 -21.692 -15.032  0.00  0.00    +0.062 C 
ATOM     19  C   UNL     1      37.972 -25.616 -14.241  0.00  0.00    +0.067 C 
ATOM     20  C   UNL     1      38.812 -24.578 -14.609  0.00  0.00    +0.277 C 
BRANCH  20  21
ATOM     21  O   UNL     1      40.155 -24.820 -14.730  0.00  0.00    -0.448 OA
ATOM     22  C   UNL     1      40.638 -26.040 -14.177  0.00  0.00    +0.255 C 
ENDBRANCH  20  21
ENDBRANCH   6  15
BRANCH   2  23
ATOM     23  C   UNL     1      29.190 -22.377 -15.633  0.00  0.00    +0.073 C 
ATOM     24  C   UNL     1      28.312 -21.533 -14.715  0.00  0.00    +0.021 C 
BRANCH  23  25
ATOM     25  C   UNL     1      28.451 -23.641 -16.088  0.00  0.00    +0.020 C 
ATOM     26  C   UNL     1      28.546 -24.774 -15.076  0.00  0.00    +0.002 C 
ENDBRANCH  23  25
ENDBRANCH   2  23
TORSDOF 4
ENDMDL
MODEL 3
REMARK VINA RESULT:      -9.6      8.462     12.235
REMARK  Name = 9884366
REMARK  4 active torsions:
REMARK  status: ('A' for Active; 'I' for Inactive)
REMARK    1  A    between atoms: N_2  and  C_23
REMARK    2  A    between atoms: C_6  and  C_15
REMARK    3  A    between atoms: C_20  and  O_21
REMARK    4  A    between atoms: C_23  and  C_25
REMARK                            x       y       z     vdW  Elec       q    Type
REMARK                         _______ _______ _______ _____ _____    ______ ____
ROOT
ATOM      1  N   UNL     1      32.694 -23.846 -14.531  0.00  0.00    -0.124 N 
ATOM      2  N   UNL     1      34.932 -24.443 -14.051  0.00  0.00    -0.296 N 
ATOM      3  N   UNL     1      32.242 -24.362 -13.374  0.00  0.00    -0.177 NA
ATOM      4  N   UNL     1      32.046 -22.739 -16.507  0.00  0.00    -0.331 NA
ATOM      5  N   UNL     1      34.327 -23.329 -16.055  0.00  0.00    -0.311 NA
ATOM      6  C   UNL     1      30.546 -23.463 -14.617  0.00  0.00    +0.118 C 
ATOM      7  C   UNL     1      31.720 -23.294 -15.316  0.00  0.00    +0.204 C 
ATOM      8  C   UNL     1      34.032 -23.867 -14.906  0.00  0.00    +0.274 C 
ATOM      9  C   UNL     1      30.929 -24.125 -13.433  0.00  0.00    +0.064 C 
ATOM     10  C   UNL     1      33.310 -22.781 -16.818  0.00  0.00    +0.119 C 
ATOM     11  C   UNL     1      30.065 -24.555 -12.318  0.00  0.00    +0.049 C 
ATOM     12  C   UNL     1      33.765 -22.189 -18.124  0.00  0.00    +0.143 C 
ATOM     13  H   UNL     1      34.602 -24.836 -13.210  0.00  0.00    +0.150 HD
ENDROOT
BRANCH   6  15
ATOM     14  N   UNL     1      27.201 -23.473 -16.267  0.00  0.00    -0.376 NA
ATOM     15  C   UNL     1      29.264 -23.025 -15.082  0.00  0.00    +0.084 C 
ATOM     16  C   UNL     1      28.417 -23.849 -15.810  0.00  0.00    +0.095 C 
ATOM     17  C   UNL     1      28.829 -21.732 -14.808  0.00  0.00    -0.013 C 
ATOM     18  C   UNL     1      28.817 -25.250 -16.143  0.00  0.00    +0.062 C 
ATOM     19  C   UNL     1      27.584 -21.309 -15.260  0.00  0.00    +0.067 C 
ATOM     20  C   UNL     1      26.815 -22.210 -15.979  0.00  0.00    +0.277 C 
BRANCH  20  21
ATOM     21  O   UNL     1      25.585 -21.818 -16.436  0.00  0.00    -0.448 OA
ATOM     22  C   UNL     1      25.569 -20.936 -17.553  0.00  0.00    +0.255 C 
ENDBRANCH  20  21
ENDBRANCH   6  15
BRANCH   2  23
ATOM     23  C   UNL     1      36.333 -24.495 -14.335  0.00  0.00    +0.073 C 
ATOM     24  C   UNL     1      36.677 -25.894 -14.834  0.00  0.00    +0.021 C 
BRANCH  23  25
ATOM     25  C   UNL     1      37.142 -24.146 -13.080  0.00  0.00    +0.020 C 
ATOM     26  C   UNL     1      37.502 -25.374 -12.253  0.00  0.00    +0.002 C 
ENDBRANCH  23  25
ENDBRANCH   2  23
TORSDOF 4
ENDMDL
MODEL 4
REMARK VINA RESULT:      -9.2      7.760      9.883
REMARK  Name = 9884366
REMARK  4 active torsions:
REMARK  status: ('A' for Active; 'I' for Inactive)
REMARK    1  A    between atoms: N_2  and  C_23
REMARK    2  A    between atoms: C_6  and  C_15
REMARK    3  A    between atoms: C_20  and  O_21
REMARK    4  A    between atoms: C_23  and  C_25
REMARK                            x       y       z     vdW  Elec       q    Type
REMARK                         _______ _______ _______ _____ _____    ______ ____
ROOT
ATOM      1  N   UNL     1      31.411 -22.507 -16.380  0.00  0.00    -0.124 N 
ATOM      2  N   UNL     1      29.082 -22.280 -16.721  0.00  0.00    -0.296 N 
ATOM      3  N   UNL     1      31.682 -22.336 -17.687  0.00  0.00    -0.177 NA
ATOM      4  N   UNL     1      32.378 -22.890 -14.266  0.00  0.00    -0.331 NA
ATOM      5  N   UNL     1      30.009 -22.665 -14.573  0.00  0.00    -0.311 NA
ATOM      6  C   UNL     1      33.588 -22.662 -16.464  0.00  0.00    +0.118 C 
ATOM      7  C   UNL     1      32.516 -22.706 -15.600  0.00  0.00    +0.204 C 
ATOM      8  C   UNL     1      30.123 -22.486 -15.858  0.00  0.00    +0.274 C 
ATOM      9  C   UNL     1      33.014 -22.431 -17.731  0.00  0.00    +0.064 C 
ATOM     10  C   UNL     1      31.155 -22.863 -13.820  0.00  0.00    +0.119 C 
ATOM     11  C   UNL     1      33.707 -22.294 -19.025  0.00  0.00    +0.049 C 
ATOM     12  C   UNL     1      30.903 -23.059 -12.350  0.00  0.00    +0.143 C 
ATOM     13  H   UNL     1      29.276 -22.170 -17.680  0.00  0.00    +0.150 HD
ENDROOT
BRANCH   6  15
ATOM     14  N   UNL     1      36.675 -24.147 -14.991  0.00  0.00    -0.376 NA
ATOM     15  C   UNL     1      34.952 -22.825 -16.061  0.00  0.00    +0.084 C 
ATOM     16  C   UNL     1      35.398 -23.955 -15.389  0.00  0.00    +0.095 C 
ATOM     17  C   UNL     1      35.885 -21.830 -16.340  0.00  0.00    -0.013 C 
ATOM     18  C   UNL     1      34.453 -25.064 -15.053  0.00  0.00    +0.062 C 
ATOM     19  C   UNL     1      37.209 -21.992 -15.948  0.00  0.00    +0.067 C 
ATOM     20  C   UNL     1      37.550 -23.158 -15.282  0.00  0.00    +0.277 C 
BRANCH  20  21
ATOM     21  O   UNL     1      38.848 -23.340 -14.884  0.00  0.00    -0.448 OA
ATOM     22  C   UNL     1      39.262 -24.681 -14.646  0.00  0.00    +0.255 C 
ENDBRANCH  20  21
ENDBRANCH   6  15
BRANCH   2  23
ATOM     23  C   UNL     1      27.722 -22.218 -16.280  0.00  0.00    +0.073 C 
ATOM     24  C   UNL     1      27.413 -23.477 -15.476  0.00  0.00    +0.021 C 
BRANCH  23  25
ATOM     25  C   UNL     1      26.779 -22.090 -17.482  0.00  0.00    +0.020 C 
ATOM     26  C   UNL     1      25.723 -21.010 -17.287  0.00  0.00    +0.002 C 
ENDBRANCH  23  25
ENDBRANCH   2  23
TORSDOF 4
ENDMDL
MODEL 5
REMARK VINA RESULT:      -8.4      4.481      7.735
REMARK  Name = 9884366
REMARK  4 active torsions:
REMARK  status: ('A' for Active; 'I' for Inactive)
REMARK    1  A    between atoms: N_2  and  C_23
REMARK    2  A    between atoms: C_6  and  C_15
REMARK    3  A    between atoms: C_20  and  O_21
REMARK    4  A    between atoms: C_23  and  C_25
REMARK                            x       y       z     vdW  Elec       q    Type
REMARK                         _______ _______ _______ _____ _____    ______ ____
ROOT
ATOM      1  N   UNL     1      32.151  -9.117 -22.127  0.00  0.00    -0.124 N 
ATOM      2  N   UNL     1      31.613  -6.979 -21.273  0.00  0.00    -0.296 N 
ATOM      3  N   UNL     1      31.240  -9.727 -21.348  0.00  0.00    -0.177 NA
ATOM      4  N   UNL     1      33.801  -9.477 -23.770  0.00  0.00    -0.331 NA
ATOM      5  N   UNL     1      33.284  -7.291 -22.927  0.00  0.00    -0.311 NA
ATOM      6  C   UNL     1      32.364 -11.224 -22.663  0.00  0.00    +0.118 C 
ATOM      7  C   UNL     1      32.854  -9.967 -22.936  0.00  0.00    +0.204 C 
ATOM      8  C   UNL     1      32.368  -7.745 -22.119  0.00  0.00    +0.274 C 
ATOM      9  C   UNL     1      31.375 -11.014 -21.681  0.00  0.00    +0.064 C 
ATOM     10  C   UNL     1      33.972  -8.186 -23.729  0.00  0.00    +0.119 C 
ATOM     11  C   UNL     1      30.524 -12.024 -21.024  0.00  0.00    +0.049 C 
ATOM     12  C   UNL     1      35.004  -7.551 -24.620  0.00  0.00    +0.143 C 
ATOM     13  H   UNL     1      30.956  -7.424 -20.690  0.00  0.00    +0.150 HD
ENDROOT
BRANCH   6  15
ATOM     14  N   UNL     1      33.994 -14.539 -23.172  0.00  0.00    -0.376 NA
ATOM     15  C   UNL     1      32.826 -12.422 -23.296  0.00  0.00    +0.084 C 
ATOM     16  C   UNL     1      33.539 -13.396 -22.612  0.00  0.00    +0.095 C 
ATOM     17  C   UNL     1      32.566 -12.642 -24.646  0.00  0.00    -0.013 C 
ATOM     18  C   UNL     1      33.857 -13.229 -21.161  0.00  0.00    +0.062 C 
ATOM     19  C   UNL     1      33.016 -13.806 -25.258  0.00  0.00    +0.067 C 
ATOM     20  C   UNL     1      33.719 -14.715 -24.484  0.00  0.00    +0.277 C 
BRANCH  20  21
ATOM     21  O   UNL     1      34.175 -15.869 -25.065  0.00  0.00    -0.448 OA
ATOM     22  C   UNL     1      33.817 -17.091 -24.427  0.00  0.00    +0.255 C 
ENDBRANCH  20  21
ENDBRANCH   6  15
BRANCH   2  23
ATOM     23  C   UNL     1      31.745  -5.556 -21.205  0.00  0.00    +0.073 C 
ATOM     24  C   UNL     1      32.065  -5.164 -19.766  0.00  0.00    +0.021 C 
BRANCH  23  25
ATOM     25  C   UNL     1      30.454  -4.880 -21.683  0.00  0.00    +0.020 C 
ATOM     26  C   UNL     1      30.464  -4.585 -23.177  0.00  0.00    +0.002 C 
ENDBRANCH  23  25
ENDBRANCH   2  23
TORSDOF 4
ENDMDL
MODEL 6
REMARK VINA RESULT:      -8.3      4.123      8.803
REMARK  Name = 9884366
REMARK  4 active torsions:
REMARK  status: ('A' for Active; 'I' for Inactive)
REMARK    1  A    between atoms: N_2  and  C_23
REMARK    2  A    between atoms: C_6  and  C_15
REMARK    3  A    between atoms: C_20  and  O_21
REMARK    4  A    between atoms: C_23  and  C_25
REMARK                            x       y       z     vdW  Elec       q    Type
REMARK                         _______ _______ _______ _____ _____    ______ ____
ROOT
ATOM      1  N   UNL     1      32.977 -13.635 -22.989  0.00  0.00    -0.124 N 
ATOM      2  N   UNL     1      33.758 -15.862 -23.147  0.00  0.00    -0.296 N 
ATOM      3  N   UNL     1      32.877 -13.698 -21.649  0.00  0.00    -0.177 NA
ATOM      4  N   UNL     1      32.666 -12.237 -24.860  0.00  0.00    -0.331 NA
ATOM      5  N   UNL     1      33.460 -14.493 -25.060  0.00  0.00    -0.311 NA
ATOM      6  C   UNL     1      32.243 -11.651 -22.447  0.00  0.00    +0.118 C 
ATOM      7  C   UNL     1      32.609 -12.430 -23.521  0.00  0.00    +0.204 C 
ATOM      8  C   UNL     1      33.413 -14.695 -23.774  0.00  0.00    +0.274 C 
ATOM      9  C   UNL     1      32.429 -12.482 -21.324  0.00  0.00    +0.064 C 
ATOM     10  C   UNL     1      33.079 -13.257 -25.557  0.00  0.00    +0.119 C 
ATOM     11  C   UNL     1      32.187 -12.155 -19.907  0.00  0.00    +0.049 C 
ATOM     12  C   UNL     1      33.174 -13.136 -27.053  0.00  0.00    +0.143 C 
ATOM     13  H   UNL     1      33.671 -15.917 -22.167  0.00  0.00    +0.150 HD
ENDROOT
BRANCH   6  15
ATOM     14  N   UNL     1      32.196  -7.992 -23.169  0.00  0.00    -0.376 NA
ATOM     15  C   UNL     1      31.787 -10.298 -22.555  0.00  0.00    +0.084 C 
ATOM     16  C   UNL     1      32.589  -9.280 -23.052  0.00  0.00    +0.095 C 
ATOM     17  C   UNL     1      30.496  -9.964 -22.153  0.00  0.00    -0.013 C 
ATOM     18  C   UNL     1      33.986  -9.563 -23.502  0.00  0.00    +0.062 C 
ATOM     19  C   UNL     1      30.055  -8.650 -22.258  0.00  0.00    +0.067 C 
ATOM     20  C   UNL     1      30.936  -7.710 -22.768  0.00  0.00    +0.277 C 
BRANCH  20  21
ATOM     21  O   UNL     1      30.526  -6.408 -22.881  0.00  0.00    -0.448 OA
ATOM     22  C   UNL     1      30.667  -5.589 -21.725  0.00  0.00    +0.255 C 
ENDBRANCH  20  21
ENDBRANCH   6  15
BRANCH   2  23
ATOM     23  C   UNL     1      34.239 -17.003 -23.863  0.00  0.00    +0.073 C 
ATOM     24  C   UNL     1      33.052 -17.713 -24.503  0.00  0.00    +0.021 C 
BRANCH  23  25
ATOM     25  C   UNL     1      34.995 -17.943 -22.916  0.00  0.00    +0.020 C 
ATOM     26  C   UNL     1      35.193 -17.346 -21.529  0.00  0.00    +0.002 C 
ENDBRANCH  23  25
ENDBRANCH   2  23
TORSDOF 4
ENDMDL
MODEL 7
REMARK VINA RESULT:      -8.2      2.709      7.802
REMARK  Name = 9884366
REMARK  4 active torsions:
REMARK  status: ('A' for Active; 'I' for Inactive)
REMARK    1  A    between atoms: N_2  and  C_23
REMARK    2  A    between atoms: C_6  and  C_15
REMARK    3  A    between atoms: C_20  and  O_21
REMARK    4  A    between atoms: C_23  and  C_25
REMARK                            x       y       z     vdW  Elec       q    Type
REMARK                         _______ _______ _______ _____ _____    ______ ____
ROOT
ATOM      1  N   UNL     1      35.289 -19.740 -20.152  0.00  0.00    -0.124 N 
ATOM      2  N   UNL     1      35.890 -21.255 -18.440  0.00  0.00    -0.296 N 
ATOM      3  N   UNL     1      36.566 -19.379 -20.369  0.00  0.00    -0.177 NA
ATOM      4  N   UNL     1      33.064 -19.380 -20.840  0.00  0.00    -0.331 NA
ATOM      5  N   UNL     1      33.636 -20.927 -19.097  0.00  0.00    -0.311 NA
ATOM      6  C   UNL     1      35.128 -18.267 -21.758  0.00  0.00    +0.118 C 
ATOM      7  C   UNL     1      34.384 -19.104 -20.957  0.00  0.00    +0.204 C 
ATOM      8  C   UNL     1      34.909 -20.674 -19.197  0.00  0.00    +0.274 C 
ATOM      9  C   UNL     1      36.461 -18.479 -21.351  0.00  0.00    +0.064 C 
ATOM     10  C   UNL     1      32.754 -20.261 -19.932  0.00  0.00    +0.119 C 
ATOM     11  C   UNL     1      37.680 -17.838 -21.878  0.00  0.00    +0.049 C 
ATOM     12  C   UNL     1      31.310 -20.631 -19.728  0.00  0.00    +0.143 C 
ATOM     13  H   UNL     1      36.825 -20.982 -18.585  0.00  0.00    +0.150 HD
ENDROOT
BRANCH   6  15
ATOM     14  N   UNL     1      33.492 -17.117 -24.905  0.00  0.00    -0.376 NA
ATOM     15  C   UNL     1      34.572 -17.407 -22.758  0.00  0.00    +0.084 C 
ATOM     16  C   UNL     1      34.026 -17.895 -23.937  0.00  0.00    +0.095 C 
ATOM     17  C   UNL     1      34.567 -16.028 -22.566  0.00  0.00    -0.013 C 
ATOM     18  C   UNL     1      33.997 -19.364 -24.212  0.00  0.00    +0.062 C 
ATOM     19  C   UNL     1      34.026 -15.195 -23.539  0.00  0.00    +0.067 C 
ATOM     20  C   UNL     1      33.506 -15.784 -24.680  0.00  0.00    +0.277 C 
BRANCH  20  21
ATOM     21  O   UNL     1      32.968 -14.985 -25.654  0.00  0.00    -0.448 OA
ATOM     22  C   UNL     1      32.749 -13.620 -25.314  0.00  0.00    +0.255 C 
ENDBRANCH  20  21
ENDBRANCH   6  15
BRANCH   2  23
ATOM     23  C   UNL     1      35.606 -22.244 -17.446  0.00  0.00    +0.073 C 
ATOM     24  C   UNL     1      34.098 -22.293 -17.224  0.00  0.00    +0.021 C 
BRANCH  23  25
ATOM     25  C   UNL     1      36.342 -21.914 -16.142  0.00  0.00    +0.020 C 
ATOM     26  C   UNL     1      37.300 -20.739 -16.290  0.00  0.00    +0.002 C 
ENDBRANCH  23  25
ENDBRANCH   2  23
TORSDOF 4
ENDMDL
MODEL 8
REMARK VINA RESULT:      -8.1      5.683     10.923
REMARK  Name = 9884366
REMARK  4 active torsions:
REMARK  status: ('A' for Active; 'I' for Inactive)
REMARK    1  A    between atoms: N_2  and  C_23
REMARK    2  A    between atoms: C_6  and  C_15
REMARK    3  A    between atoms: C_20  and  O_21
REMARK    4  A    between atoms: C_23  and  C_25
REMARK                            x       y       z     vdW  Elec       q    Type
REMARK                         _______ _______ _______ _____ _____    ______ ____
ROOT
ATOM      1  N   UNL     1      31.922 -10.564 -21.637  0.00  0.00    -0.124 N 
ATOM      2  N   UNL     1      32.059 -12.632 -20.497  0.00  0.00    -0.296 N 
ATOM      3  N   UNL     1      31.622  -9.892 -20.511  0.00  0.00    -0.177 NA
ATOM      4  N   UNL     1      32.281 -10.337 -23.954  0.00  0.00    -0.331 NA
ATOM      5  N   UNL     1      32.428 -12.454 -22.833  0.00  0.00    -0.311 NA
ATOM      6  C   UNL     1      31.708  -8.503 -22.326  0.00  0.00    +0.118 C 
ATOM      7  C   UNL     1      31.986  -9.781 -22.756  0.00  0.00    +0.204 C 
ATOM      8  C   UNL     1      32.147 -11.935 -21.672  0.00  0.00    +0.274 C 
ATOM      9  C   UNL     1      31.493  -8.633 -20.939  0.00  0.00    +0.064 C 
ATOM     10  C   UNL     1      32.484 -11.624 -23.941  0.00  0.00    +0.119 C 
ATOM     11  C   UNL     1      31.158  -7.571 -19.973  0.00  0.00    +0.049 C 
ATOM     12  C   UNL     1      32.816 -12.330 -25.226  0.00  0.00    +0.143 C 
ATOM     13  H   UNL     1      31.824 -12.145 -19.674  0.00  0.00    +0.150 HD
ENDROOT
BRANCH   6  15
ATOM     14  N   UNL     1      32.743  -5.388 -24.097  0.00  0.00    -0.376 NA
ATOM     15  C   UNL     1      31.670  -7.357 -23.184  0.00  0.00    +0.084 C 
ATOM     16  C   UNL     1      32.739  -6.480 -23.300  0.00  0.00    +0.095 C 
ATOM     17  C   UNL     1      30.532  -7.090 -23.940  0.00  0.00    -0.013 C 
ATOM     18  C   UNL     1      33.994  -6.702 -22.518  0.00  0.00    +0.062 C 
ATOM     19  C   UNL     1      30.498  -5.977 -24.772  0.00  0.00    +0.067 C 
ATOM     20  C   UNL     1      31.620  -5.165 -24.814  0.00  0.00    +0.277 C 
BRANCH  20  21
ATOM     21  O   UNL     1      31.610  -4.061 -25.626  0.00  0.00    -0.448 OA
ATOM     22  C   UNL     1      31.329  -2.812 -25.004  0.00  0.00    +0.255 C 
ENDBRANCH  20  21
ENDBRANCH   6  15
BRANCH   2  23
ATOM     23  C   UNL     1      32.294 -14.041 -20.423  0.00  0.00    +0.073 C 
ATOM     24  C   UNL     1      31.665 -14.573 -19.141  0.00  0.00    +0.021 C 
BRANCH  23  25
ATOM     25  C   UNL     1      33.800 -14.330 -20.457  0.00  0.00    +0.020 C 
ATOM     26  C   UNL     1      34.190 -15.284 -21.578  0.00  0.00    +0.002 C 
ENDBRANCH  23  25
ENDBRANCH   2  23
TORSDOF 4
ENDMDL
MODEL 9
REMARK VINA RESULT:      -8.0      6.202     11.314
REMARK  Name = 9884366
REMARK  4 active torsions:
REMARK  status: ('A' for Active; 'I' for Inactive)
REMARK    1  A    between atoms: N_2  and  C_23
REMARK    2  A    between atoms: C_6  and  C_15
REMARK    3  A    between atoms: C_20  and  O_21
REMARK    4  A    between atoms: C_23  and  C_25
REMARK                            x       y       z     vdW  Elec       q    Type
REMARK                         _______ _______ _______ _____ _____    ______ ____
ROOT
ATOM      1  N   UNL     1      33.017  -9.869 -22.964  0.00  0.00    -0.124 N 
ATOM      2  N   UNL     1      33.613 -12.157 -22.890  0.00  0.00    -0.296 N 
ATOM      3  N   UNL     1      34.093  -9.548 -23.704  0.00  0.00    -0.177 NA
ATOM      4  N   UNL     1      31.089  -9.001 -21.924  0.00  0.00    -0.331 NA
ATOM      5  N   UNL     1      31.662 -11.329 -21.827  0.00  0.00    -0.311 NA
ATOM      6  C   UNL     1      32.802  -7.715 -23.250  0.00  0.00    +0.118 C 
ATOM      7  C   UNL     1      32.208  -8.809 -22.663  0.00  0.00    +0.204 C 
ATOM      8  C   UNL     1      32.741 -11.163 -22.537  0.00  0.00    +0.274 C 
ATOM      9  C   UNL     1      33.955  -8.230 -23.875  0.00  0.00    +0.064 C 
ATOM     10  C   UNL     1      30.871 -10.228 -21.545  0.00  0.00    +0.119 C 
ATOM     11  C   UNL     1      34.967  -7.492 -24.655  0.00  0.00    +0.049 C 
ATOM     12  C   UNL     1      29.652 -10.536 -20.719  0.00  0.00    +0.143 C 
ATOM     13  H   UNL     1      34.411 -11.922 -23.418  0.00  0.00    +0.150 HD
ENDROOT
BRANCH   6  15
ATOM     14  N   UNL     1      30.962  -4.599 -24.153  0.00  0.00    -0.376 NA
ATOM     15  C   UNL     1      32.279  -6.384 -23.182  0.00  0.00    +0.084 C 
ATOM     16  C   UNL     1      31.474  -5.850 -24.179  0.00  0.00    +0.095 C 
ATOM     17  C   UNL     1      32.575  -5.574 -22.089  0.00  0.00    -0.013 C 
ATOM     18  C   UNL     1      31.114  -6.660 -25.383  0.00  0.00    +0.062 C 
ATOM     19  C   UNL     1      32.066  -4.282 -22.026  0.00  0.00    +0.067 C 
ATOM     20  C   UNL     1      31.271  -3.846 -23.074  0.00  0.00    +0.277 C 
BRANCH  20  21
ATOM     21  O   UNL     1      30.759  -2.576 -23.036  0.00  0.00    -0.448 OA
ATOM     22  C   UNL     1      30.427  -1.981 -24.286  0.00  0.00    +0.255 C 
ENDBRANCH  20  21
ENDBRANCH   6  15
BRANCH   2  23
ATOM     23  C   UNL     1      33.408 -13.523 -22.520  0.00  0.00    +0.073 C 
ATOM     24  C   UNL     1      33.835 -13.703 -21.067  0.00  0.00    +0.021 C 
BRANCH  23  25
ATOM     25  C   UNL     1      34.206 -14.450 -23.445  0.00  0.00    +0.020 C 
ATOM     26  C   UNL     1      34.581 -15.766 -22.777  0.00  0.00    +0.002 C 
ENDBRANCH  23  25
ENDBRANCH   2  23
TORSDOF 4
ENDMDL
