MODEL 1
REMARK VINA RESULT:     -12.7      0.000      0.000
REMARK  Name = 46937120
REMARK  6 active torsions:
REMARK  status: ('A' for Active; 'I' for Inactive)
REMARK    1  A    between atoms: N_2  and  C_6
REMARK    2  A    between atoms: C_3  and  C_25
REMARK    3  A    between atoms: C_9  and  C_12
REMARK    4  A    between atoms: C_12  and  O_13
REMARK    5  A    between atoms: O_13  and  C_15
REMARK    6  A    between atoms: C_21  and  N_28
REMARK                            x       y       z     vdW  Elec       q    Type
REMARK                         _______ _______ _______ _____ _____    ______ ____
ROOT
ATOM      1  O   UNL     1      36.372 -18.506 -20.255  0.00  0.00    -0.270 OA
ATOM      2  N   UNL     1      34.565 -20.014 -20.205  0.00  0.00    -0.281 N 
ATOM      3  C   UNL     1      35.326 -18.968 -20.711  0.00  0.00    +0.245 C 
ATOM      4  H   UNL     1      33.752 -20.245 -20.712  0.00  0.00    +0.155 HD
ENDROOT
BRANCH   2   6
ATOM      5 CL   UNL     1      35.664 -23.245 -15.354  0.00  0.00    -0.082 Cl
ATOM      6  C   UNL     1      34.818 -20.789 -19.046  0.00  0.00    +0.050 C 
ATOM      7  C   UNL     1      33.805 -21.575 -18.498  0.00  0.00    +0.015 C 
ATOM      8  C   UNL     1      36.081 -20.766 -18.455  0.00  0.00    +0.016 C 
ATOM      9  C   UNL     1      34.055 -22.339 -17.358  0.00  0.00    +0.033 C 
ATOM     10  C   UNL     1      36.331 -21.529 -17.315  0.00  0.00    +0.012 C 
ATOM     11  C   UNL     1      35.319 -22.316 -16.766  0.00  0.00    +0.057 C 
BRANCH   9  12
ATOM     12  C   UNL     1      32.943 -23.167 -16.801  0.00  0.00    +0.233 C 
BRANCH  12  13
ATOM     13  O   UNL     1      32.334 -22.472 -15.721  0.00  0.00    -0.469 OA
BRANCH  13  15
ATOM     14  N   UNL     1      31.324 -24.532 -12.871  0.00  0.00    -0.239 NA
ATOM     15  C   UNL     1      31.538 -23.208 -14.883  0.00  0.00    +0.158 C 
ATOM     16  C   UNL     1      30.187 -23.391 -15.155  0.00  0.00    +0.040 C 
ATOM     17  C   UNL     1      32.053 -23.794 -13.739  0.00  0.00    +0.136 C 
ATOM     18  C   UNL     1      29.403 -24.143 -14.287  0.00  0.00    +0.024 C 
ATOM     19  C   UNL     1      30.014 -24.688 -13.170  0.00  0.00    +0.099 C 
ENDBRANCH  13  15
ENDBRANCH  12  13
ENDBRANCH   9  12
ENDBRANCH   2   6
BRANCH   3  25
ATOM     20  F   UNL     1      34.401 -19.108 -25.143  0.00  0.00    -0.233 F 
ATOM     21  C   UNL     1      34.534 -16.506 -23.588  0.00  0.00    -0.050 C 
ATOM     22  C   UNL     1      33.329 -17.276 -24.144  0.00  0.00    +0.019 C 
ATOM     23  C   UNL     1      34.812 -16.915 -22.131  0.00  0.00    +0.010 C 
ATOM     24  C   UNL     1      33.582 -18.786 -24.100  0.00  0.00    +0.181 C 
ATOM     25  C   UNL     1      34.749 -18.402 -21.933  0.00  0.00    +0.028 C 
ATOM     26  C   UNL     1      34.210 -19.250 -22.820  0.00  0.00    +0.009 C 
BRANCH  21  28
ATOM     27  O   UNL     1      32.669 -12.752 -23.394  0.00  0.00    -0.358 OA
ATOM     28  N   UNL     1      34.300 -15.067 -23.681  0.00  0.00    +0.392 N 
ATOM     29  C   UNL     1      33.205 -14.777 -24.617  0.00  0.00    -0.045 C 
ATOM     30  C   UNL     1      33.995 -14.501 -22.360  0.00  0.00    -0.045 C 
ATOM     31  C   UNL     1      33.741 -13.001 -22.484  0.00  0.00    +0.119 C 
ATOM     32  C   UNL     1      32.971 -13.270 -24.689  0.00  0.00    +0.119 C 
ATOM     33  H   UNL     1      35.153 -14.633 -24.033  0.00  0.00    -0.079 HD
ENDBRANCH  21  28
ENDBRANCH   3  25
TORSDOF 6
ENDMDL
MODEL 2
REMARK VINA RESULT:     -12.5      3.286     10.147
REMARK  Name = 46937120
REMARK  6 active torsions:
REMARK  status: ('A' for Active; 'I' for Inactive)
REMARK    1  A    between atoms: N_2  and  C_6
REMARK    2  A    between atoms: C_3  and  C_25
REMARK    3  A    between atoms: C_9  and  C_12
REMARK    4  A    between atoms: C_12  and  O_13
REMARK    5  A    between atoms: O_13  and  C_15
REMARK    6  A    between atoms: C_21  and  N_28
REMARK                            x       y       z     vdW  Elec       q    Type
REMARK                         _______ _______ _______ _____ _____    ______ ____
ROOT
ATOM      1  O   UNL     1      36.098 -21.369 -20.495  0.00  0.00    -0.270 OA
ATOM      2  N   UNL     1      34.658 -19.631 -19.824  0.00  0.00    -0.281 N 
ATOM      3  C   UNL     1      35.422 -20.777 -19.652  0.00  0.00    +0.245 C 
ATOM      4  H   UNL     1      34.182 -19.302 -19.027  0.00  0.00    +0.155 HD
ENDROOT
BRANCH   2   6
ATOM      5 CL   UNL     1      33.913 -16.509 -24.812  0.00  0.00    -0.082 Cl
ATOM      6  C   UNL     1      34.482 -18.877 -21.010  0.00  0.00    +0.050 C 
ATOM      7  C   UNL     1      34.631 -17.491 -20.984  0.00  0.00    +0.015 C 
ATOM      8  C   UNL     1      34.159 -19.522 -22.204  0.00  0.00    +0.016 C 
ATOM      9  C   UNL     1      34.458 -16.748 -22.153  0.00  0.00    +0.033 C 
ATOM     10  C   UNL     1      33.987 -18.780 -23.373  0.00  0.00    +0.012 C 
ATOM     11  C   UNL     1      34.136 -17.394 -23.348  0.00  0.00    +0.057 C 
BRANCH   9  12
ATOM     12  C   UNL     1      34.626 -15.265 -22.083  0.00  0.00    +0.233 C 
BRANCH  12  13
ATOM     13  O   UNL     1      33.710 -14.732 -21.136  0.00  0.00    -0.469 OA
BRANCH  13  15
ATOM     14  N   UNL     1      32.833 -11.724 -23.025  0.00  0.00    -0.239 NA
ATOM     15  C   UNL     1      33.082 -13.562 -21.474  0.00  0.00    +0.158 C 
ATOM     16  C   UNL     1      32.095 -13.018 -20.660  0.00  0.00    +0.040 C 
ATOM     17  C   UNL     1      33.412 -12.883 -22.635  0.00  0.00    +0.136 C 
ATOM     18  C   UNL     1      31.476 -11.828 -21.027  0.00  0.00    +0.024 C 
ATOM     19  C   UNL     1      31.878 -11.226 -22.208  0.00  0.00    +0.099 C 
ENDBRANCH  13  15
ENDBRANCH  12  13
ENDBRANCH   9  12
ENDBRANCH   2   6
BRANCH   3  25
ATOM     20  F   UNL     1      37.304 -22.697 -16.006  0.00  0.00    -0.233 F 
ATOM     21  C   UNL     1      34.315 -22.767 -16.524  0.00  0.00    -0.050 C 
ATOM     22  C   UNL     1      35.134 -21.958 -15.509  0.00  0.00    +0.019 C 
ATOM     23  C   UNL     1      34.106 -21.960 -17.818  0.00  0.00    +0.010 C 
ATOM     24  C   UNL     1      36.505 -21.593 -16.085  0.00  0.00    +0.181 C 
ATOM     25  C   UNL     1      35.364 -21.283 -18.278  0.00  0.00    +0.028 C 
ATOM     26  C   UNL     1      36.451 -21.126 -17.510  0.00  0.00    +0.009 C 
BRANCH  21  28
ATOM     27  O   UNL     1      30.574 -22.553 -14.635  0.00  0.00    -0.358 OA
ATOM     28  N   UNL     1      33.030 -23.150 -15.945  0.00  0.00    +0.392 N 
ATOM     29  C   UNL     1      32.982 -22.815 -14.514  0.00  0.00    -0.045 C 
ATOM     30  C   UNL     1      31.922 -22.494 -16.652  0.00  0.00    -0.045 C 
ATOM     31  C   UNL     1      30.592 -22.898 -16.021  0.00  0.00    +0.119 C 
ATOM     32  C   UNL     1      31.628 -23.213 -13.934  0.00  0.00    +0.119 C 
ATOM     33  H   UNL     1      32.929 -24.160 -16.046  0.00  0.00    -0.079 HD
ENDBRANCH  21  28
ENDBRANCH   3  25
TORSDOF 6
ENDMDL
MODEL 3
REMARK VINA RESULT:     -12.4      3.677     10.393
REMARK  Name = 46937120
REMARK  6 active torsions:
REMARK  status: ('A' for Active; 'I' for Inactive)
REMARK    1  A    between atoms: N_2  and  C_6
REMARK    2  A    between atoms: C_3  and  C_25
REMARK    3  A    between atoms: C_9  and  C_12
REMARK    4  A    between atoms: C_12  and  O_13
REMARK    5  A    between atoms: O_13  and  C_15
REMARK    6  A    between atoms: C_21  and  N_28
REMARK                            x       y       z     vdW  Elec       q    Type
REMARK                         _______ _______ _______ _____ _____    ______ ____
ROOT
ATOM      1  O   UNL     1      36.102 -20.572 -19.861  0.00  0.00    -0.270 OA
ATOM      2  N   UNL     1      33.891 -19.837 -20.199  0.00  0.00    -0.281 N 
ATOM      3  C   UNL     1      34.901 -20.569 -19.589  0.00  0.00    +0.245 C 
ATOM      4  H   UNL     1      32.983 -19.967 -19.841  0.00  0.00    +0.155 HD
ENDROOT
BRANCH   2   6
ATOM      5 CL   UNL     1      34.391 -16.045 -24.733  0.00  0.00    -0.082 Cl
ATOM      6  C   UNL     1      34.011 -18.924 -21.275  0.00  0.00    +0.050 C 
ATOM      7  C   UNL     1      34.252 -17.574 -21.021  0.00  0.00    +0.015 C 
ATOM      8  C   UNL     1      33.890 -19.376 -22.589  0.00  0.00    +0.016 C 
ATOM      9  C   UNL     1      34.371 -16.675 -22.082  0.00  0.00    +0.033 C 
ATOM     10  C   UNL     1      34.010 -18.478 -23.649  0.00  0.00    +0.012 C 
ATOM     11  C   UNL     1      34.251 -17.127 -23.396  0.00  0.00    +0.057 C 
BRANCH   9  12
ATOM     12  C   UNL     1      34.628 -15.237 -21.768  0.00  0.00    +0.233 C 
BRANCH  12  13
ATOM     13  O   UNL     1      33.553 -14.726 -20.993  0.00  0.00    -0.469 OA
BRANCH  13  15
ATOM     14  N   UNL     1      32.918 -11.759 -23.038  0.00  0.00    -0.239 NA
ATOM     15  C   UNL     1      32.997 -13.544 -21.408  0.00  0.00    +0.158 C 
ATOM     16  C   UNL     1      31.991 -12.927 -20.674  0.00  0.00    +0.040 C 
ATOM     17  C   UNL     1      33.422 -12.925 -22.573  0.00  0.00    +0.136 C 
ATOM     18  C   UNL     1      31.447 -11.727 -21.120  0.00  0.00    +0.024 C 
ATOM     19  C   UNL     1      31.941 -11.189 -22.296  0.00  0.00    +0.099 C 
ENDBRANCH  13  15
ENDBRANCH  12  13
ENDBRANCH   9  12
ENDBRANCH   2   6
BRANCH   3  25
ATOM     20  F   UNL     1      31.626 -21.962 -16.786  0.00  0.00    -0.233 F 
ATOM     21  C   UNL     1      34.573 -22.299 -16.144  0.00  0.00    -0.050 C 
ATOM     22  C   UNL     1      33.519 -23.331 -16.572  0.00  0.00    +0.019 C 
ATOM     23  C   UNL     1      35.323 -21.752 -17.372  0.00  0.00    +0.010 C 
ATOM     24  C   UNL     1      32.501 -22.702 -17.528  0.00  0.00    +0.181 C 
ATOM     25  C   UNL     1      34.397 -21.414 -18.504  0.00  0.00    +0.028 C 
ATOM     26  C   UNL     1      33.123 -21.826 -18.574  0.00  0.00    +0.009 C 
BRANCH  21  28
ATOM     27  O   UNL     1      37.532 -24.770 -14.487  0.00  0.00    -0.358 OA
ATOM     28  N   UNL     1      35.508 -22.898 -15.196  0.00  0.00    +0.392 N 
ATOM     29  C   UNL     1      35.201 -24.320 -14.988  0.00  0.00    -0.045 C 
ATOM     30  C   UNL     1      36.893 -22.745 -15.661  0.00  0.00    -0.045 C 
ATOM     31  C   UNL     1      37.851 -23.389 -14.662  0.00  0.00    +0.119 C 
ATOM     32  C   UNL     1      36.198 -24.925 -14.003  0.00  0.00    +0.119 C 
ATOM     33  H   UNL     1      35.408 -22.409 -14.306  0.00  0.00    -0.079 HD
ENDBRANCH  21  28
ENDBRANCH   3  25
TORSDOF 6
ENDMDL
MODEL 4
REMARK VINA RESULT:     -12.1      4.672      8.029
REMARK  Name = 46937120
REMARK  6 active torsions:
REMARK  status: ('A' for Active; 'I' for Inactive)
REMARK    1  A    between atoms: N_2  and  C_6
REMARK    2  A    between atoms: C_3  and  C_25
REMARK    3  A    between atoms: C_9  and  C_12
REMARK    4  A    between atoms: C_12  and  O_13
REMARK    5  A    between atoms: O_13  and  C_15
REMARK    6  A    between atoms: C_21  and  N_28
REMARK                            x       y       z     vdW  Elec       q    Type
REMARK                         _______ _______ _______ _____ _____    ______ ____
ROOT
ATOM      1  O   UNL     1      31.557 -13.640 -20.329  0.00  0.00    -0.270 OA
ATOM      2  N   UNL     1      32.998 -13.138 -22.121  0.00  0.00    -0.281 N 
ATOM      3  C   UNL     1      32.108 -12.849 -21.096  0.00  0.00    +0.245 C 
ATOM      4  H   UNL     1      33.338 -12.367 -22.632  0.00  0.00    +0.155 HD
ENDROOT
BRANCH   2   6
ATOM      5 CL   UNL     1      34.990 -18.456 -23.833  0.00  0.00    -0.082 Cl
ATOM      6  C   UNL     1      33.477 -14.410 -22.521  0.00  0.00    +0.050 C 
ATOM      7  C   UNL     1      34.076 -15.255 -21.587  0.00  0.00    +0.015 C 
ATOM      8  C   UNL     1      33.349 -14.817 -23.849  0.00  0.00    +0.016 C 
ATOM      9  C   UNL     1      34.547 -16.508 -21.981  0.00  0.00    +0.033 C 
ATOM     10  C   UNL     1      33.819 -16.069 -24.243  0.00  0.00    +0.012 C 
ATOM     11  C   UNL     1      34.418 -16.916 -23.309  0.00  0.00    +0.057 C 
BRANCH   9  12
ATOM     12  C   UNL     1      35.183 -17.383 -20.950  0.00  0.00    +0.233 C 
BRANCH  12  13
ATOM     13  O   UNL     1      35.165 -18.730 -21.401  0.00  0.00    -0.469 OA
BRANCH  13  15
ATOM     14  N   UNL     1      34.823 -21.439 -18.966  0.00  0.00    -0.239 NA
ATOM     15  C   UNL     1      34.576 -19.651 -20.575  0.00  0.00    +0.158 C 
ATOM     16  C   UNL     1      33.193 -19.757 -20.490  0.00  0.00    +0.040 C 
ATOM     17  C   UNL     1      35.340 -20.508 -19.800  0.00  0.00    +0.136 C 
ATOM     18  C   UNL     1      32.623 -20.702 -19.644  0.00  0.00    +0.024 C 
ATOM     19  C   UNL     1      33.474 -21.512 -18.910  0.00  0.00    +0.099 C 
ENDBRANCH  13  15
ENDBRANCH  12  13
ENDBRANCH   9  12
ENDBRANCH   2   6
BRANCH   3  25
ATOM     20  F   UNL     1      30.046  -9.299 -19.181  0.00  0.00    -0.233 F 
ATOM     21  C   UNL     1      31.151  -9.213 -22.006  0.00  0.00    -0.050 C 
ATOM     22  C   UNL     1      31.669  -8.572 -20.711  0.00  0.00    +0.019 C 
ATOM     23  C   UNL     1      31.808 -10.587 -22.230  0.00  0.00    +0.010 C 
ATOM     24  C   UNL     1      31.362  -9.463 -19.504  0.00  0.00    +0.181 C 
ATOM     25  C   UNL     1      31.844 -11.413 -20.977  0.00  0.00    +0.028 C 
ATOM     26  C   UNL     1      31.632 -10.918 -19.750  0.00  0.00    +0.009 C 
BRANCH  21  28
ATOM     27  O   UNL     1      31.815  -5.764 -24.303  0.00  0.00    -0.358 OA
ATOM     28  N   UNL     1      31.407  -8.331 -23.142  0.00  0.00    +0.392 N 
ATOM     29  C   UNL     1      30.296  -7.385 -23.328  0.00  0.00    -0.045 C 
ATOM     30  C   UNL     1      32.666  -7.597 -22.961  0.00  0.00    -0.045 C 
ATOM     31  C   UNL     1      32.905  -6.674 -24.153  0.00  0.00    +0.119 C 
ATOM     32  C   UNL     1      30.591  -6.468 -24.512  0.00  0.00    +0.119 C 
ATOM     33  H   UNL     1      31.484  -8.911 -23.978  0.00  0.00    -0.079 HD
ENDBRANCH  21  28
ENDBRANCH   3  25
TORSDOF 6
ENDMDL
MODEL 5
REMARK VINA RESULT:     -11.9      3.173      4.777
REMARK  Name = 46937120
REMARK  6 active torsions:
REMARK  status: ('A' for Active; 'I' for Inactive)
REMARK    1  A    between atoms: N_2  and  C_6
REMARK    2  A    between atoms: C_3  and  C_25
REMARK    3  A    between atoms: C_9  and  C_12
REMARK    4  A    between atoms: C_12  and  O_13
REMARK    5  A    between atoms: O_13  and  C_15
REMARK    6  A    between atoms: C_21  and  N_28
REMARK                            x       y       z     vdW  Elec       q    Type
REMARK                         _______ _______ _______ _____ _____    ______ ____
ROOT
ATOM      1  O   UNL     1      32.247 -21.652 -19.806  0.00  0.00    -0.270 OA
ATOM      2  N   UNL     1      33.749 -21.391 -18.012  0.00  0.00    -0.281 N 
ATOM      3  C   UNL     1      33.266 -21.182 -19.296  0.00  0.00    +0.245 C 
ATOM      4  H   UNL     1      34.587 -20.925 -17.782  0.00  0.00    +0.155 HD
ENDROOT
BRANCH   2   6
ATOM      5 CL   UNL     1      31.338 -24.741 -13.753  0.00  0.00    -0.082 Cl
ATOM      6  C   UNL     1      33.182 -22.193 -16.991  0.00  0.00    +0.050 C 
ATOM      7  C   UNL     1      34.006 -22.806 -16.047  0.00  0.00    +0.015 C 
ATOM      8  C   UNL     1      31.800 -22.370 -16.930  0.00  0.00    +0.016 C 
ATOM      9  C   UNL     1      33.448 -23.595 -15.042  0.00  0.00    +0.033 C 
ATOM     10  C   UNL     1      31.242 -23.158 -15.925  0.00  0.00    +0.012 C 
ATOM     11  C   UNL     1      32.065 -23.771 -14.980  0.00  0.00    +0.057 C 
BRANCH   9  12
ATOM     12  C   UNL     1      34.364 -24.235 -14.050  0.00  0.00    +0.233 C 
BRANCH  12  13
ATOM     13  O   UNL     1      35.060 -25.304 -14.674  0.00  0.00    -0.469 OA
BRANCH  13  15
ATOM     14  N   UNL     1      38.464 -26.569 -14.230  0.00  0.00    -0.239 NA
ATOM     15  C   UNL     1      36.425 -25.310 -14.550  0.00  0.00    +0.158 C 
ATOM     16  C   UNL     1      37.155 -24.129 -14.608  0.00  0.00    +0.040 C 
ATOM     17  C   UNL     1      37.120 -26.493 -14.361  0.00  0.00    +0.136 C 
ATOM     18  C   UNL     1      38.539 -24.166 -14.477  0.00  0.00    +0.024 C 
ATOM     19  C   UNL     1      39.140 -25.400 -14.291  0.00  0.00    +0.099 C 
ENDBRANCH  13  15
ENDBRANCH  12  13
ENDBRANCH   9  12
ENDBRANCH   2   6
BRANCH   3  25
ATOM     20  F   UNL     1      36.988 -18.656 -19.824  0.00  0.00    -0.233 F 
ATOM     21  C   UNL     1      34.449 -18.169 -21.414  0.00  0.00    -0.050 C 
ATOM     22  C   UNL     1      35.793 -18.777 -21.839  0.00  0.00    +0.019 C 
ATOM     23  C   UNL     1      33.472 -19.272 -20.970  0.00  0.00    +0.010 C 
ATOM     24  C   UNL     1      36.427 -19.556 -20.683  0.00  0.00    +0.181 C 
ATOM     25  C   UNL     1      34.123 -20.286 -20.075  0.00  0.00    +0.028 C 
ATOM     26  C   UNL     1      35.450 -20.410 -19.930  0.00  0.00    +0.009 C 
BRANCH  21  28
ATOM     27  O   UNL     1      34.030 -16.140 -25.063  0.00  0.00    -0.358 OA
ATOM     28  N   UNL     1      33.879 -17.389 -22.510  0.00  0.00    +0.392 N 
ATOM     29  C   UNL     1      34.638 -16.146 -22.714  0.00  0.00    -0.045 C 
ATOM     30  C   UNL     1      33.855 -18.173 -23.751  0.00  0.00    -0.045 C 
ATOM     31  C   UNL     1      33.268 -17.334 -24.884  0.00  0.00    +0.119 C 
ATOM     32  C   UNL     1      34.031 -15.355 -23.870  0.00  0.00    +0.119 C 
ATOM     33  H   UNL     1      32.921 -17.148 -22.257  0.00  0.00    -0.079 HD
ENDBRANCH  21  28
ENDBRANCH   3  25
TORSDOF 6
ENDMDL
MODEL 6
REMARK VINA RESULT:     -11.9      2.287      3.395
REMARK  Name = 46937120
REMARK  6 active torsions:
REMARK  status: ('A' for Active; 'I' for Inactive)
REMARK    1  A    between atoms: N_2  and  C_6
REMARK    2  A    between atoms: C_3  and  C_25
REMARK    3  A    between atoms: C_9  and  C_12
REMARK    4  A    between atoms: C_12  and  O_13
REMARK    5  A    between atoms: O_13  and  C_15
REMARK    6  A    between atoms: C_21  and  N_28
REMARK                            x       y       z     vdW  Elec       q    Type
REMARK                         _______ _______ _______ _____ _____    ______ ____
ROOT
ATOM      1  O   UNL     1      35.952 -18.989 -20.252  0.00  0.00    -0.270 OA
ATOM      2  N   UNL     1      33.864 -20.076 -20.292  0.00  0.00    -0.281 N 
ATOM      3  C   UNL     1      34.841 -19.199 -20.743  0.00  0.00    +0.245 C 
ATOM      4  H   UNL     1      33.032 -20.107 -20.820  0.00  0.00    +0.155 HD
ENDROOT
BRANCH   2   6
ATOM      5 CL   UNL     1      34.053 -23.661 -15.571  0.00  0.00    -0.082 Cl
ATOM      6  C   UNL     1      33.918 -20.930 -19.163  0.00  0.00    +0.050 C 
ATOM      7  C   UNL     1      35.114 -21.084 -18.463  0.00  0.00    +0.015 C 
ATOM      8  C   UNL     1      32.776 -21.616 -18.753  0.00  0.00    +0.016 C 
ATOM      9  C   UNL     1      35.168 -21.925 -17.351  0.00  0.00    +0.033 C 
ATOM     10  C   UNL     1      32.829 -22.457 -17.641  0.00  0.00    +0.012 C 
ATOM     11  C   UNL     1      34.024 -22.611 -16.939  0.00  0.00    +0.057 C 
BRANCH   9  12
ATOM     12  C   UNL     1      36.468 -22.064 -16.627  0.00  0.00    +0.233 C 
BRANCH  12  13
ATOM     13  O   UNL     1      36.272 -21.780 -15.249  0.00  0.00    -0.469 OA
BRANCH  13  15
ATOM     14  N   UNL     1      37.193 -23.308 -12.055  0.00  0.00    -0.239 NA
ATOM     15  C   UNL     1      36.868 -22.628 -14.352  0.00  0.00    +0.158 C 
ATOM     16  C   UNL     1      37.724 -23.638 -14.779  0.00  0.00    +0.040 C 
ATOM     17  C   UNL     1      36.637 -22.507 -12.992  0.00  0.00    +0.136 C 
ATOM     18  C   UNL     1      38.315 -24.482 -13.846  0.00  0.00    +0.024 C 
ATOM     19  C   UNL     1      38.020 -24.277 -12.508  0.00  0.00    +0.099 C 
ENDBRANCH  13  15
ENDBRANCH  12  13
ENDBRANCH   9  12
ENDBRANCH   2   6
BRANCH   3  25
ATOM     20  F   UNL     1      34.438 -18.802 -25.237  0.00  0.00    -0.233 F 
ATOM     21  C   UNL     1      34.459 -16.399 -23.384  0.00  0.00    -0.050 C 
ATOM     22  C   UNL     1      33.307 -17.052 -24.159  0.00  0.00    +0.019 C 
ATOM     23  C   UNL     1      34.553 -16.981 -21.962  0.00  0.00    +0.010 C 
ATOM     24  C   UNL     1      33.512 -18.567 -24.263  0.00  0.00    +0.181 C 
ATOM     25  C   UNL     1      34.428 -18.476 -21.948  0.00  0.00    +0.028 C 
ATOM     26  C   UNL     1      33.973 -19.197 -22.982  0.00  0.00    +0.009 C 
BRANCH  21  28
ATOM     27  O   UNL     1      32.724 -12.619 -22.833  0.00  0.00    -0.358 OA
ATOM     28  N   UNL     1      34.277 -14.950 -23.335  0.00  0.00    +0.392 N 
ATOM     29  C   UNL     1      33.204 -14.529 -24.248  0.00  0.00    -0.045 C 
ATOM     30  C   UNL     1      33.975 -14.508 -21.967  0.00  0.00    -0.045 C 
ATOM     31  C   UNL     1      33.776 -12.995 -21.943  0.00  0.00    +0.119 C 
ATOM     32  C   UNL     1      33.024 -13.016 -24.170  0.00  0.00    +0.119 C 
ATOM     33  H   UNL     1      35.149 -14.514 -23.635  0.00  0.00    -0.079 HD
ENDBRANCH  21  28
ENDBRANCH   3  25
TORSDOF 6
ENDMDL
MODEL 7
REMARK VINA RESULT:     -11.4      5.853     10.170
REMARK  Name = 46937120
REMARK  6 active torsions:
REMARK  status: ('A' for Active; 'I' for Inactive)
REMARK    1  A    between atoms: N_2  and  C_6
REMARK    2  A    between atoms: C_3  and  C_25
REMARK    3  A    between atoms: C_9  and  C_12
REMARK    4  A    between atoms: C_12  and  O_13
REMARK    5  A    between atoms: O_13  and  C_15
REMARK    6  A    between atoms: C_21  and  N_28
REMARK                            x       y       z     vdW  Elec       q    Type
REMARK                         _______ _______ _______ _____ _____    ______ ____
ROOT
ATOM      1  O   UNL     1      30.716 -10.788 -21.995  0.00  0.00    -0.270 OA
ATOM      2  N   UNL     1      32.864 -10.795 -22.960  0.00  0.00    -0.281 N 
ATOM      3  C   UNL     1      31.756 -10.227 -22.346  0.00  0.00    +0.245 C 
ATOM      4  H   UNL     1      33.607 -10.182 -23.167  0.00  0.00    +0.155 HD
ENDROOT
BRANCH   2   6
ATOM      5 CL   UNL     1      33.645 -16.464 -24.520  0.00  0.00    -0.082 Cl
ATOM      6  C   UNL     1      33.054 -12.151 -23.323  0.00  0.00    +0.050 C 
ATOM      7  C   UNL     1      33.531 -13.065 -22.384  0.00  0.00    +0.015 C 
ATOM      8  C   UNL     1      32.763 -12.572 -24.621  0.00  0.00    +0.016 C 
ATOM      9  C   UNL     1      33.717 -14.400 -22.742  0.00  0.00    +0.033 C 
ATOM     10  C   UNL     1      32.949 -13.906 -24.979  0.00  0.00    +0.012 C 
ATOM     11  C   UNL     1      33.425 -14.821 -24.040  0.00  0.00    +0.057 C 
BRANCH   9  12
ATOM     12  C   UNL     1      34.231 -15.348 -21.707  0.00  0.00    +0.233 C 
BRANCH  12  13
ATOM     13  O   UNL     1      34.944 -16.399 -22.345  0.00  0.00    -0.469 OA
BRANCH  13  15
ATOM     14  N   UNL     1      36.391 -19.138 -20.399  0.00  0.00    -0.239 NA
ATOM     15  C   UNL     1      35.038 -17.584 -21.663  0.00  0.00    +0.158 C 
ATOM     16  C   UNL     1      33.939 -18.426 -21.535  0.00  0.00    +0.040 C 
ATOM     17  C   UNL     1      36.230 -17.982 -21.082  0.00  0.00    +0.136 C 
ATOM     18  C   UNL     1      34.064 -19.624 -20.840  0.00  0.00    +0.024 C 
ATOM     19  C   UNL     1      35.300 -19.931 -20.296  0.00  0.00    +0.099 C 
ENDBRANCH  13  15
ENDBRANCH  12  13
ENDBRANCH   9  12
ENDBRANCH   2   6
BRANCH   3  25
ATOM     20  F   UNL     1      30.845  -6.387 -20.123  0.00  0.00    -0.233 F 
ATOM     21  C   UNL     1      31.866  -6.412 -22.980  0.00  0.00    -0.050 C 
ATOM     22  C   UNL     1      32.575  -6.043 -21.670  0.00  0.00    +0.019 C 
ATOM     23  C   UNL     1      32.095  -7.897 -23.319  0.00  0.00    +0.010 C 
ATOM     24  C   UNL     1      32.051  -6.896 -20.510  0.00  0.00    +0.181 C 
ATOM     25  C   UNL     1      31.919  -8.788 -22.124  0.00  0.00    +0.028 C 
ATOM     26  C   UNL     1      31.884  -8.344 -20.860  0.00  0.00    +0.009 C 
BRANCH  21  28
ATOM     27  O   UNL     1      33.922  -5.065 -26.382  0.00  0.00    -0.358 OA
ATOM     28  N   UNL     1      32.340  -5.559 -24.068  0.00  0.00    +0.392 N 
ATOM     29  C   UNL     1      33.794  -5.359 -23.977  0.00  0.00    -0.045 C 
ATOM     30  C   UNL     1      31.993  -6.136 -25.373  0.00  0.00    -0.045 C 
ATOM     31  C   UNL     1      32.508  -5.235 -26.492  0.00  0.00    +0.119 C 
ATOM     32  C   UNL     1      34.266  -4.475 -25.129  0.00  0.00    +0.119 C 
ATOM     33  H   UNL     1      31.880  -4.653 -23.978  0.00  0.00    -0.079 HD
ENDBRANCH  21  28
ENDBRANCH   3  25
TORSDOF 6
ENDMDL
MODEL 8
REMARK VINA RESULT:     -11.3      3.603     10.446
REMARK  Name = 46937120
REMARK  6 active torsions:
REMARK  status: ('A' for Active; 'I' for Inactive)
REMARK    1  A    between atoms: N_2  and  C_6
REMARK    2  A    between atoms: C_3  and  C_25
REMARK    3  A    between atoms: C_9  and  C_12
REMARK    4  A    between atoms: C_12  and  O_13
REMARK    5  A    between atoms: O_13  and  C_15
REMARK    6  A    between atoms: C_21  and  N_28
REMARK                            x       y       z     vdW  Elec       q    Type
REMARK                         _______ _______ _______ _____ _____    ______ ____
ROOT
ATOM      1  O   UNL     1      32.575 -19.691 -21.595  0.00  0.00    -0.270 OA
ATOM      2  N   UNL     1      34.419 -18.257 -21.295  0.00  0.00    -0.281 N 
ATOM      3  C   UNL     1      33.625 -19.366 -21.037  0.00  0.00    +0.245 C 
ATOM      4  H   UNL     1      35.228 -18.164 -20.741  0.00  0.00    +0.155 HD
ENDROOT
BRANCH   2   6
ATOM      5 CL   UNL     1      33.522 -14.038 -25.365  0.00  0.00    -0.082 Cl
ATOM      6  C   UNL     1      34.204 -17.243 -22.260  0.00  0.00    +0.050 C 
ATOM      7  C   UNL     1      34.083 -15.913 -21.858  0.00  0.00    +0.015 C 
ATOM      8  C   UNL     1      34.115 -17.574 -23.612  0.00  0.00    +0.016 C 
ATOM      9  C   UNL     1      33.872 -14.914 -22.809  0.00  0.00    +0.033 C 
ATOM     10  C   UNL     1      33.905 -16.576 -24.562  0.00  0.00    +0.012 C 
ATOM     11  C   UNL     1      33.784 -15.245 -24.162  0.00  0.00    +0.057 C 
BRANCH   9  12
ATOM     12  C   UNL     1      33.747 -13.501 -22.338  0.00  0.00    +0.233 C 
BRANCH  12  13
ATOM     13  O   UNL     1      32.457 -13.007 -22.672  0.00  0.00    -0.469 OA
BRANCH  13  15
ATOM     14  N   UNL     1      31.736  -9.446 -22.244  0.00  0.00    -0.239 NA
ATOM     15  C   UNL     1      32.071 -11.834 -22.077  0.00  0.00    +0.158 C 
ATOM     16  C   UNL     1      31.636 -11.810 -20.756  0.00  0.00    +0.040 C 
ATOM     17  C   UNL     1      32.101 -10.636 -22.771  0.00  0.00    +0.136 C 
ATOM     18  C   UNL     1      31.252 -10.605 -20.178  0.00  0.00    +0.024 C 
ATOM     19  C   UNL     1      31.320  -9.462 -20.957  0.00  0.00    +0.099 C 
ENDBRANCH  13  15
ENDBRANCH  12  13
ENDBRANCH   9  12
ENDBRANCH   2   6
BRANCH   3  25
ATOM     20  F   UNL     1      36.837 -22.012 -19.248  0.00  0.00    -0.233 F 
ATOM     21  C   UNL     1      33.940 -22.135 -18.354  0.00  0.00    -0.050 C 
ATOM     22  C   UNL     1      35.177 -21.555 -17.655  0.00  0.00    +0.019 C 
ATOM     23  C   UNL     1      33.216 -21.046 -19.165  0.00  0.00    +0.010 C 
ATOM     24  C   UNL     1      36.157 -20.975 -18.679  0.00  0.00    +0.181 C 
ATOM     25  C   UNL     1      34.166 -20.200 -19.960  0.00  0.00    +0.028 C 
ATOM     26  C   UNL     1      35.491 -20.173 -19.757  0.00  0.00    +0.009 C 
BRANCH  21  28
ATOM     27  O   UNL     1      31.451 -22.615 -15.009  0.00  0.00    -0.358 OA
ATOM     28  N   UNL     1      33.037 -22.729 -17.370  0.00  0.00    +0.392 N 
ATOM     29  C   UNL     1      33.647 -22.724 -16.033  0.00  0.00    -0.045 C 
ATOM     30  C   UNL     1      31.755 -22.013 -17.340  0.00  0.00    -0.045 C 
ATOM     31  C   UNL     1      30.834 -22.641 -16.297  0.00  0.00    +0.119 C 
ATOM     32  C   UNL     1      32.682 -23.337 -15.022  0.00  0.00    +0.119 C 
ATOM     33  H   UNL     1      32.864 -23.695 -17.646  0.00  0.00    -0.079 HD
ENDBRANCH  21  28
ENDBRANCH   3  25
TORSDOF 6
ENDMDL
MODEL 9
REMARK VINA RESULT:     -11.2      3.486     10.687
REMARK  Name = 46937120
REMARK  6 active torsions:
REMARK  status: ('A' for Active; 'I' for Inactive)
REMARK    1  A    between atoms: N_2  and  C_6
REMARK    2  A    between atoms: C_3  and  C_25
REMARK    3  A    between atoms: C_9  and  C_12
REMARK    4  A    between atoms: C_12  and  O_13
REMARK    5  A    between atoms: O_13  and  C_15
REMARK    6  A    between atoms: C_21  and  N_28
REMARK                            x       y       z     vdW  Elec       q    Type
REMARK                         _______ _______ _______ _____ _____    ______ ____
ROOT
ATOM      1  O   UNL     1      31.605 -21.613 -18.337  0.00  0.00    -0.270 OA
ATOM      2  N   UNL     1      33.884 -21.722 -17.756  0.00  0.00    -0.281 N 
ATOM      3  C   UNL     1      32.527 -21.976 -17.605  0.00  0.00    +0.245 C 
ATOM      4  H   UNL     1      34.476 -22.099 -17.064  0.00  0.00    +0.155 HD
ENDROOT
BRANCH   2   6
ATOM      5 CL   UNL     1      36.580 -18.648 -22.053  0.00  0.00    -0.082 Cl
ATOM      6  C   UNL     1      34.519 -20.987 -18.787  0.00  0.00    +0.050 C 
ATOM      7  C   UNL     1      33.756 -20.395 -19.793  0.00  0.00    +0.015 C 
ATOM      8  C   UNL     1      35.907 -20.853 -18.793  0.00  0.00    +0.016 C 
ATOM      9  C   UNL     1      34.382 -19.670 -20.808  0.00  0.00    +0.033 C 
ATOM     10  C   UNL     1      36.533 -20.128 -19.807  0.00  0.00    +0.012 C 
ATOM     11  C   UNL     1      35.771 -19.536 -20.814  0.00  0.00    +0.057 C 
BRANCH   9  12
ATOM     12  C   UNL     1      33.530 -19.053 -21.869  0.00  0.00    +0.233 C 
BRANCH  12  13
ATOM     13  O   UNL     1      34.357 -18.593 -22.928  0.00  0.00    -0.469 OA
BRANCH  13  15
ATOM     14  N   UNL     1      33.160 -15.997 -25.211  0.00  0.00    -0.239 NA
ATOM     15  C   UNL     1      34.082 -17.348 -23.431  0.00  0.00    +0.158 C 
ATOM     16  C   UNL     1      34.424 -16.198 -22.727  0.00  0.00    +0.040 C 
ATOM     17  C   UNL     1      33.457 -17.194 -24.657  0.00  0.00    +0.136 C 
ATOM     18  C   UNL     1      34.134 -14.948 -23.263  0.00  0.00    +0.024 C 
ATOM     19  C   UNL     1      33.507 -14.902 -24.497  0.00  0.00    +0.099 C 
ENDBRANCH  13  15
ENDBRANCH  12  13
ENDBRANCH   9  12
ENDBRANCH   2   6
BRANCH   3  25
ATOM     20  F   UNL     1      29.995 -23.026 -13.999  0.00  0.00    -0.233 F 
ATOM     21  C   UNL     1      32.944 -23.719 -14.176  0.00  0.00    -0.050 C 
ATOM     22  C   UNL     1      31.700 -24.611 -14.287  0.00  0.00    +0.019 C 
ATOM     23  C   UNL     1      33.392 -23.241 -15.569  0.00  0.00    +0.010 C 
ATOM     24  C   UNL     1      30.542 -23.850 -14.939  0.00  0.00    +0.181 C 
ATOM     25  C   UNL     1      32.240 -22.776 -16.412  0.00  0.00    +0.028 C 
ATOM     26  C   UNL     1      30.956 -23.034 -16.128  0.00  0.00    +0.009 C 
BRANCH  21  28
ATOM     27  O   UNL     1      36.698 -24.667 -12.559  0.00  0.00    -0.358 OA
ATOM     28  N   UNL     1      34.024 -24.441 -13.509  0.00  0.00    +0.392 N 
ATOM     29  C   UNL     1      35.151 -24.658 -14.427  0.00  0.00    -0.045 C 
ATOM     30  C   UNL     1      34.480 -23.713 -12.317  0.00  0.00    -0.045 C 
ATOM     31  C   UNL     1      35.617 -24.479 -11.645  0.00  0.00    +0.119 C 
ATOM     32  C   UNL     1      36.271 -25.402 -13.705  0.00  0.00    +0.119 C 
ATOM     33  H   UNL     1      33.662 -25.348 -13.218  0.00  0.00    -0.079 HD
ENDBRANCH  21  28
ENDBRANCH   3  25
TORSDOF 6
ENDMDL
