MODEL 1
REMARK VINA RESULT:     -13.0      0.000      0.000
REMARK  Name = 24941249
REMARK  6 active torsions:
REMARK  status: ('A' for Active; 'I' for Inactive)
REMARK    1  A    between atoms: N_1  and  C_13
REMARK    2  A    between atoms: N_2  and  C_26
REMARK    3  A    between atoms: C_14  and  C_19
REMARK    4  A    between atoms: C_19  and  C_20
REMARK    5  A    between atoms: C_20  and  C_23
REMARK    6  A    between atoms: C_26  and  C_28
REMARK                            x       y       z     vdW  Elec       q    Type
REMARK                         _______ _______ _______ _____ _____    ______ ____
ROOT
ATOM      1  N   UNL     1      32.658 -12.855 -23.191  0.00  0.00    -0.230 N 
ATOM      2  N   UNL     1      34.663 -16.980 -21.503  0.00  0.00    -0.316 N 
ATOM      3  N   UNL     1      32.439 -12.369 -24.425  0.00  0.00    -0.169 NA
ATOM      4  N   UNL     1      34.449 -16.471 -23.818  0.00  0.00    -0.229 NA
ATOM      5  C   UNL     1      33.262 -14.082 -23.172  0.00  0.00    +0.088 A 
ATOM      6  C   UNL     1      33.449 -14.420 -24.506  0.00  0.00    +0.052 A 
ATOM      7  C   UNL     1      32.922 -13.325 -25.223  0.00  0.00    +0.082 A 
ATOM      8  C   UNL     1      33.653 -14.908 -22.124  0.00  0.00    +0.053 C 
ATOM      9  C   UNL     1      34.243 -16.095 -22.532  0.00  0.00    +0.130 C 
ATOM     10  C   UNL     1      34.054 -15.639 -24.814  0.00  0.00    +0.103 C 
ATOM     11  C   UNL     1      32.859 -13.152 -26.684  0.00  0.00    +0.054 C 
ATOM     12  H   UNL     1      34.520 -16.716 -20.566  0.00  0.00    +0.148 HD
ENDROOT
BRANCH   1  13
ATOM     13  C   UNL     1      32.272 -12.107 -22.079  0.00  0.00    +0.082 C 
ATOM     14  C   UNL     1      31.556 -10.012 -21.111  0.00  0.00    -0.020 C 
ATOM     15  C   UNL     1      31.942 -10.760 -22.224  0.00  0.00    +0.015 C 
ATOM     16  C   UNL     1      32.213 -12.708 -20.821  0.00  0.00    +0.019 C 
ATOM     17  C   UNL     1      31.497 -10.612 -19.854  0.00  0.00    -0.004 C 
ATOM     18  C   UNL     1      31.825 -11.961 -19.708  0.00  0.00    +0.001 C 
BRANCH  14  19
ATOM     19  C   UNL     1      31.205  -8.571 -21.266  0.00  0.00    +0.036 C 
BRANCH  19  20
ATOM     20  C   UNL     1      31.353  -7.793 -19.953  0.00  0.00    +0.089 C 
BRANCH  20  23
ATOM     21  O   UNL     1      32.705  -5.971 -19.093  0.00  0.00    -0.275 OA
ATOM     22  N   UNL     1      32.918  -6.563 -21.305  0.00  0.00    -0.329 N 
ATOM     23  C   UNL     1      32.383  -6.683 -20.040  0.00  0.00    +0.220 C 
ATOM     24  H   UNL     1      33.598  -5.876 -21.488  0.00  0.00    +0.145 HD
ATOM     25  H   UNL     1      32.618  -7.164 -22.025  0.00  0.00    +0.145 HD
ENDBRANCH  20  23
ENDBRANCH  19  20
ENDBRANCH  14  19
ENDBRANCH   1  13
BRANCH   2  26
ATOM     26  C   UNL     1      35.283 -18.233 -21.775  0.00  0.00    +0.093 C 
ATOM     27  C   UNL     1      36.800 -18.081 -21.679  0.00  0.00    +0.026 C 
BRANCH  26  28
ATOM     28  C   UNL     1      34.736 -19.299 -20.850  0.00  0.00    -0.005 C 
ATOM     29  C   UNL     1      35.610 -20.094 -20.108  0.00  0.00    -0.003 C 
ATOM     30  C   UNL     1      33.359 -19.485 -20.738  0.00  0.00    -0.003 C 
ATOM     31  C   UNL     1      35.106 -21.076 -19.255  0.00  0.00    -0.000 C 
ATOM     32  C   UNL     1      32.855 -20.467 -19.885  0.00  0.00    -0.000 C 
ATOM     33  C   UNL     1      33.729 -21.262 -19.143  0.00  0.00    -0.000 C 
ENDBRANCH  26  28
ENDBRANCH   2  26
TORSDOF 6
ENDMDL
MODEL 2
REMARK VINA RESULT:     -12.5      8.121     13.659
REMARK  Name = 24941249
REMARK  6 active torsions:
REMARK  status: ('A' for Active; 'I' for Inactive)
REMARK    1  A    between atoms: N_1  and  C_13
REMARK    2  A    between atoms: N_2  and  C_26
REMARK    3  A    between atoms: C_14  and  C_19
REMARK    4  A    between atoms: C_19  and  C_20
REMARK    5  A    between atoms: C_20  and  C_23
REMARK    6  A    between atoms: C_26  and  C_28
REMARK                            x       y       z     vdW  Elec       q    Type
REMARK                         _______ _______ _______ _____ _____    ______ ____
ROOT
ATOM      1  N   UNL     1      33.293 -23.831 -13.553  0.00  0.00    -0.230 N 
ATOM      2  N   UNL     1      33.952 -21.897 -17.992  0.00  0.00    -0.316 N 
ATOM      3  N   UNL     1      32.212 -24.268 -12.884  0.00  0.00    -0.169 NA
ATOM      4  N   UNL     1      31.829 -22.562 -17.147  0.00  0.00    -0.229 NA
ATOM      5  C   UNL     1      33.022 -23.353 -14.805  0.00  0.00    +0.088 A 
ATOM      6  C   UNL     1      31.648 -23.494 -14.961  0.00  0.00    +0.052 A 
ATOM      7  C   UNL     1      31.213 -24.061 -13.745  0.00  0.00    +0.082 A 
ATOM      8  C   UNL     1      33.841 -22.822 -15.795  0.00  0.00    +0.053 C 
ATOM      9  C   UNL     1      33.165 -22.447 -16.946  0.00  0.00    +0.130 C 
ATOM     10  C   UNL     1      31.061 -23.086 -16.159  0.00  0.00    +0.103 C 
ATOM     11  C   UNL     1      29.838 -24.425 -13.362  0.00  0.00    +0.054 C 
ATOM     12  H   UNL     1      34.923 -21.808 -17.856  0.00  0.00    +0.148 HD
ENDROOT
BRANCH   1  13
ATOM     13  C   UNL     1      34.549 -23.895 -12.948  0.00  0.00    +0.082 C 
ATOM     14  C   UNL     1      36.765 -24.851 -12.822  0.00  0.00    -0.020 C 
ATOM     15  C   UNL     1      35.509 -24.787 -13.427  0.00  0.00    +0.015 C 
ATOM     16  C   UNL     1      34.845 -23.066 -11.866  0.00  0.00    +0.019 C 
ATOM     17  C   UNL     1      37.061 -24.023 -11.740  0.00  0.00    -0.004 C 
ATOM     18  C   UNL     1      36.102 -23.130 -11.262  0.00  0.00    +0.001 C 
BRANCH  14  19
ATOM     19  C   UNL     1      37.790 -25.806 -13.332  0.00  0.00    +0.036 C 
BRANCH  19  20
ATOM     20  C   UNL     1      38.570 -25.238 -14.524  0.00  0.00    +0.089 C 
BRANCH  20  23
ATOM     21  O   UNL     1      40.677 -24.071 -14.229  0.00  0.00    -0.275 OA
ATOM     22  N   UNL     1      40.642 -26.363 -14.046  0.00  0.00    -0.329 N 
ATOM     23  C   UNL     1      40.059 -25.131 -14.255  0.00  0.00    +0.220 C 
ATOM     24  H   UNL     1      41.607 -26.425 -13.861  0.00  0.00    +0.145 HD
ATOM     25  H   UNL     1      40.094 -27.179 -14.081  0.00  0.00    +0.145 HD
ENDBRANCH  20  23
ENDBRANCH  19  20
ENDBRANCH  14  19
ENDBRANCH   1  13
BRANCH   2  26
ATOM     26  C   UNL     1      33.392 -21.470 -19.231  0.00  0.00    +0.093 C 
ATOM     27  C   UNL     1      31.977 -20.944 -18.993  0.00  0.00    +0.026 C 
BRANCH  26  28
ATOM     28  C   UNL     1      34.297 -20.454 -19.892  0.00  0.00    -0.005 C 
ATOM     29  C   UNL     1      33.770 -19.537 -20.801  0.00  0.00    -0.003 C 
ATOM     30  C   UNL     1      35.659 -20.434 -19.591  0.00  0.00    -0.003 C 
ATOM     31  C   UNL     1      34.605 -18.600 -21.410  0.00  0.00    -0.000 C 
ATOM     32  C   UNL     1      36.494 -19.497 -20.201  0.00  0.00    -0.000 C 
ATOM     33  C   UNL     1      35.967 -18.580 -21.110  0.00  0.00    -0.000 C 
ENDBRANCH  26  28
ENDBRANCH   2  26
TORSDOF 6
ENDMDL
MODEL 3
REMARK VINA RESULT:     -11.3      6.081     10.791
REMARK  Name = 24941249
REMARK  6 active torsions:
REMARK  status: ('A' for Active; 'I' for Inactive)
REMARK    1  A    between atoms: N_1  and  C_13
REMARK    2  A    between atoms: N_2  and  C_26
REMARK    3  A    between atoms: C_14  and  C_19
REMARK    4  A    between atoms: C_19  and  C_20
REMARK    5  A    between atoms: C_20  and  C_23
REMARK    6  A    between atoms: C_26  and  C_28
REMARK                            x       y       z     vdW  Elec       q    Type
REMARK                         _______ _______ _______ _____ _____    ______ ____
ROOT
ATOM      1  N   UNL     1      32.898 -21.894 -17.734  0.00  0.00    -0.230 N 
ATOM      2  N   UNL     1      35.779 -24.387 -14.674  0.00  0.00    -0.316 N 
ATOM      3  N   UNL     1      31.569 -21.699 -17.804  0.00  0.00    -0.169 NA
ATOM      4  N   UNL     1      33.411 -24.279 -14.460  0.00  0.00    -0.229 NA
ATOM      5  C   UNL     1      33.294 -22.681 -16.688  0.00  0.00    +0.088 A 
ATOM      6  C   UNL     1      32.123 -23.025 -16.024  0.00  0.00    +0.052 A 
ATOM      7  C   UNL     1      31.102 -22.389 -16.761  0.00  0.00    +0.082 A 
ATOM      8  C   UNL     1      34.549 -23.113 -16.274  0.00  0.00    +0.053 C 
ATOM      9  C   UNL     1      34.524 -23.915 -15.143  0.00  0.00    +0.130 C 
ATOM     10  C   UNL     1      32.204 -23.838 -14.894  0.00  0.00    +0.103 C 
ATOM     11  C   UNL     1      29.652 -22.415 -16.500  0.00  0.00    +0.054 C 
ATOM     12  H   UNL     1      36.593 -24.130 -15.163  0.00  0.00    +0.148 HD
ENDROOT
BRANCH   1  13
ATOM     13  C   UNL     1      33.731 -21.306 -18.687  0.00  0.00    +0.082 C 
ATOM     14  C   UNL     1      34.020 -19.910 -20.637  0.00  0.00    -0.020 C 
ATOM     15  C   UNL     1      33.187 -20.498 -19.685  0.00  0.00    +0.015 C 
ATOM     16  C   UNL     1      35.107 -21.526 -18.640  0.00  0.00    +0.019 C 
ATOM     17  C   UNL     1      35.396 -20.130 -20.591  0.00  0.00    -0.004 C 
ATOM     18  C   UNL     1      35.941 -20.938 -19.592  0.00  0.00    +0.001 C 
BRANCH  14  19
ATOM     19  C   UNL     1      33.439 -19.047 -21.705  0.00  0.00    +0.036 C 
BRANCH  19  20
ATOM     20  C   UNL     1      34.513 -18.250 -22.456  0.00  0.00    +0.089 C 
BRANCH  20  23
ATOM     21  O   UNL     1      34.774 -16.628 -20.672  0.00  0.00    -0.275 OA
ATOM     22  N   UNL     1      34.883 -15.906 -22.853  0.00  0.00    -0.329 N 
ATOM     23  C   UNL     1      34.733 -16.867 -21.875  0.00  0.00    +0.220 C 
ATOM     24  H   UNL     1      35.032 -14.967 -22.600  0.00  0.00    +0.145 HD
ATOM     25  H   UNL     1      34.839 -16.161 -23.802  0.00  0.00    +0.145 HD
ENDBRANCH  20  23
ENDBRANCH  19  20
ENDBRANCH  14  19
ENDBRANCH   1  13
BRANCH   2  26
ATOM     26  C   UNL     1      35.904 -25.217 -13.523  0.00  0.00    +0.093 C 
ATOM     27  C   UNL     1      37.125 -26.123 -13.681  0.00  0.00    +0.026 C 
BRANCH  26  28
ATOM     28  C   UNL     1      35.955 -24.370 -12.270  0.00  0.00    -0.005 C 
ATOM     29  C   UNL     1      36.680 -23.178 -12.263  0.00  0.00    -0.003 C 
ATOM     30  C   UNL     1      35.278 -24.781 -11.122  0.00  0.00    -0.003 C 
ATOM     31  C   UNL     1      36.727 -22.397 -11.108  0.00  0.00    -0.000 C 
ATOM     32  C   UNL     1      35.325 -24.000  -9.967  0.00  0.00    -0.000 C 
ATOM     33  C   UNL     1      36.050 -22.808  -9.960  0.00  0.00    -0.000 C 
ENDBRANCH  26  28
ENDBRANCH   2  26
TORSDOF 6
ENDMDL
MODEL 4
REMARK VINA RESULT:     -11.2      7.880     12.974
REMARK  Name = 24941249
REMARK  6 active torsions:
REMARK  status: ('A' for Active; 'I' for Inactive)
REMARK    1  A    between atoms: N_1  and  C_13
REMARK    2  A    between atoms: N_2  and  C_26
REMARK    3  A    between atoms: C_14  and  C_19
REMARK    4  A    between atoms: C_19  and  C_20
REMARK    5  A    between atoms: C_20  and  C_23
REMARK    6  A    between atoms: C_26  and  C_28
REMARK                            x       y       z     vdW  Elec       q    Type
REMARK                         _______ _______ _______ _____ _____    ______ ____
ROOT
ATOM      1  N   UNL     1      33.600 -23.978 -14.878  0.00  0.00    -0.230 N 
ATOM      2  N   UNL     1      34.020 -21.565 -19.106  0.00  0.00    -0.316 N 
ATOM      3  N   UNL     1      32.565 -24.245 -14.062  0.00  0.00    -0.169 NA
ATOM      4  N   UNL     1      31.964 -21.826 -17.937  0.00  0.00    -0.229 NA
ATOM      5  C   UNL     1      33.266 -23.252 -15.987  0.00  0.00    +0.088 A 
ATOM      6  C   UNL     1      31.898 -23.029 -15.881  0.00  0.00    +0.052 A 
ATOM      7  C   UNL     1      31.531 -23.665 -14.677  0.00  0.00    +0.082 A 
ATOM      8  C   UNL     1      34.025 -22.781 -17.052  0.00  0.00    +0.053 C 
ATOM      9  C   UNL     1      33.296 -22.071 -17.994  0.00  0.00    +0.130 C 
ATOM     10  C   UNL     1      31.256 -22.302 -16.883  0.00  0.00    +0.103 C 
ATOM     11  C   UNL     1      30.191 -23.743 -14.072  0.00  0.00    +0.054 C 
ATOM     12  H   UNL     1      34.988 -21.736 -19.157  0.00  0.00    +0.148 HD
ENDROOT
BRANCH   1  13
ATOM     13  C   UNL     1      34.874 -24.442 -14.547  0.00  0.00    +0.082 C 
ATOM     14  C   UNL     1      36.923 -24.210 -13.288  0.00  0.00    -0.020 C 
ATOM     15  C   UNL     1      35.649 -23.747 -13.618  0.00  0.00    +0.015 C 
ATOM     16  C   UNL     1      35.372 -25.600 -15.144  0.00  0.00    +0.019 C 
ATOM     17  C   UNL     1      37.421 -25.368 -13.885  0.00  0.00    -0.004 C 
ATOM     18  C   UNL     1      36.645 -26.064 -14.813  0.00  0.00    +0.001 C 
BRANCH  14  19
ATOM     19  C   UNL     1      37.753 -23.468 -12.296  0.00  0.00    +0.036 C 
BRANCH  19  20
ATOM     20  C   UNL     1      36.922 -22.483 -11.466  0.00  0.00    +0.089 C 
BRANCH  20  23
ATOM     21  O   UNL     1      36.297 -23.760  -9.500  0.00  0.00    -0.275 OA
ATOM     22  N   UNL     1      34.648 -23.077 -10.951  0.00  0.00    -0.329 N 
ATOM     23  C   UNL     1      35.956 -23.176 -10.524  0.00  0.00    +0.220 C 
ATOM     24  H   UNL     1      33.927 -23.488 -10.423  0.00  0.00    +0.145 HD
ATOM     25  H   UNL     1      34.438 -22.596 -11.783  0.00  0.00    +0.145 HD
ENDBRANCH  20  23
ENDBRANCH  19  20
ENDBRANCH  14  19
ENDBRANCH   1  13
BRANCH   2  26
ATOM     26  C   UNL     1      33.401 -20.819 -20.150  0.00  0.00    +0.093 C 
ATOM     27  C   UNL     1      32.153 -20.124 -19.606  0.00  0.00    +0.026 C 
BRANCH  26  28
ATOM     28  C   UNL     1      34.393 -19.857 -20.765  0.00  0.00    -0.005 C 
ATOM     29  C   UNL     1      34.067 -19.173 -21.937  0.00  0.00    -0.003 C 
ATOM     30  C   UNL     1      35.633 -19.653 -20.161  0.00  0.00    -0.003 C 
ATOM     31  C   UNL     1      34.982 -18.286 -22.504  0.00  0.00    -0.000 C 
ATOM     32  C   UNL     1      36.548 -18.766 -20.728  0.00  0.00    -0.000 C 
ATOM     33  C   UNL     1      36.222 -18.082 -21.899  0.00  0.00    -0.000 C 
ENDBRANCH  26  28
ENDBRANCH   2  26
TORSDOF 6
ENDMDL
MODEL 5
REMARK VINA RESULT:     -11.1      7.942     13.264
REMARK  Name = 24941249
REMARK  6 active torsions:
REMARK  status: ('A' for Active; 'I' for Inactive)
REMARK    1  A    between atoms: N_1  and  C_13
REMARK    2  A    between atoms: N_2  and  C_26
REMARK    3  A    between atoms: C_14  and  C_19
REMARK    4  A    between atoms: C_19  and  C_20
REMARK    5  A    between atoms: C_20  and  C_23
REMARK    6  A    between atoms: C_26  and  C_28
REMARK                            x       y       z     vdW  Elec       q    Type
REMARK                         _______ _______ _______ _____ _____    ______ ____
ROOT
ATOM      1  N   UNL     1      33.594 -23.424 -14.593  0.00  0.00    -0.230 N 
ATOM      2  N   UNL     1      34.067 -21.255 -18.946  0.00  0.00    -0.316 N 
ATOM      3  N   UNL     1      32.539 -23.868 -13.889  0.00  0.00    -0.169 NA
ATOM      4  N   UNL     1      31.974 -21.906 -18.019  0.00  0.00    -0.229 NA
ATOM      5  C   UNL     1      33.269 -22.867 -15.799  0.00  0.00    +0.088 A 
ATOM      6  C   UNL     1      31.885 -22.958 -15.883  0.00  0.00    +0.052 A 
ATOM      7  C   UNL     1      31.500 -23.582 -14.678  0.00  0.00    +0.082 A 
ATOM      8  C   UNL     1      34.049 -22.303 -16.802  0.00  0.00    +0.053 C 
ATOM      9  C   UNL     1      33.322 -21.842 -17.889  0.00  0.00    +0.130 C 
ATOM     10  C   UNL     1      31.246 -22.464 -17.020  0.00  0.00    +0.103 C 
ATOM     11  C   UNL     1      30.138 -23.927 -14.238  0.00  0.00    +0.054 C 
ATOM     12  H   UNL     1      35.046 -21.202 -18.862  0.00  0.00    +0.148 HD
ENDROOT
BRANCH   1  13
ATOM     13  C   UNL     1      34.879 -23.560 -14.067  0.00  0.00    +0.082 C 
ATOM     14  C   UNL     1      36.745 -24.961 -13.436  0.00  0.00    -0.020 C 
ATOM     15  C   UNL     1      35.460 -24.825 -13.962  0.00  0.00    +0.015 C 
ATOM     16  C   UNL     1      35.583 -22.433 -13.646  0.00  0.00    +0.019 C 
ATOM     17  C   UNL     1      37.449 -23.833 -13.015  0.00  0.00    -0.004 C 
ATOM     18  C   UNL     1      36.869 -22.568 -13.120  0.00  0.00    +0.001 C 
BRANCH  14  19
ATOM     19  C   UNL     1      37.365 -26.312 -13.322  0.00  0.00    +0.036 C 
BRANCH  19  20
ATOM     20  C   UNL     1      38.330 -26.606 -14.477  0.00  0.00    +0.089 C 
BRANCH  20  23
ATOM     21  O   UNL     1      40.502 -26.332 -13.431  0.00  0.00    -0.275 OA
ATOM     22  N   UNL     1      39.922 -24.938 -15.167  0.00  0.00    -0.329 N 
ATOM     23  C   UNL     1      39.694 -25.970 -14.281  0.00  0.00    +0.220 C 
ATOM     24  H   UNL     1      40.773 -24.446 -15.139  0.00  0.00    +0.145 HD
ATOM     25  H   UNL     1      39.233 -24.695 -15.826  0.00  0.00    +0.145 HD
ENDBRANCH  20  23
ENDBRANCH  19  20
ENDBRANCH  14  19
ENDBRANCH   1  13
BRANCH   2  26
ATOM     26  C   UNL     1      33.452 -20.740 -20.124  0.00  0.00    +0.093 C 
ATOM     27  C   UNL     1      32.091 -20.146 -19.768  0.00  0.00    +0.026 C 
BRANCH  26  28
ATOM     28  C   UNL     1      34.371 -19.748 -20.803  0.00  0.00    -0.005 C 
ATOM     29  C   UNL     1      35.642 -19.504 -20.281  0.00  0.00    -0.003 C 
ATOM     30  C   UNL     1      33.948 -19.077 -21.950  0.00  0.00    -0.003 C 
ATOM     31  C   UNL     1      36.489 -18.589 -20.906  0.00  0.00    -0.000 C 
ATOM     32  C   UNL     1      34.795 -18.161 -22.574  0.00  0.00    -0.000 C 
ATOM     33  C   UNL     1      36.066 -17.918 -22.053  0.00  0.00    -0.000 C 
ENDBRANCH  26  28
ENDBRANCH   2  26
TORSDOF 6
ENDMDL
MODEL 6
REMARK VINA RESULT:     -10.8      7.046     11.124
REMARK  Name = 24941249
REMARK  6 active torsions:
REMARK  status: ('A' for Active; 'I' for Inactive)
REMARK    1  A    between atoms: N_1  and  C_13
REMARK    2  A    between atoms: N_2  and  C_26
REMARK    3  A    between atoms: C_14  and  C_19
REMARK    4  A    between atoms: C_19  and  C_20
REMARK    5  A    between atoms: C_20  and  C_23
REMARK    6  A    between atoms: C_26  and  C_28
REMARK                            x       y       z     vdW  Elec       q    Type
REMARK                         _______ _______ _______ _____ _____    ______ ____
ROOT
ATOM      1  N   UNL     1      32.415 -22.183 -17.232  0.00  0.00    -0.230 N 
ATOM      2  N   UNL     1      36.554 -23.869 -15.255  0.00  0.00    -0.316 N 
ATOM      3  N   UNL     1      31.117 -22.302 -16.905  0.00  0.00    -0.169 NA
ATOM      4  N   UNL     1      34.393 -24.309 -14.361  0.00  0.00    -0.229 NA
ATOM      5  C   UNL     1      33.269 -22.832 -16.383  0.00  0.00    +0.088 A 
ATOM      6  C   UNL     1      32.454 -23.423 -15.425  0.00  0.00    +0.052 A 
ATOM      7  C   UNL     1      31.145 -23.058 -15.805  0.00  0.00    +0.082 A 
ATOM      8  C   UNL     1      34.654 -22.952 -16.371  0.00  0.00    +0.053 C 
ATOM      9  C   UNL     1      35.144 -23.712 -15.319  0.00  0.00    +0.130 C 
ATOM     10  C   UNL     1      33.045 -24.169 -14.406  0.00  0.00    +0.103 C 
ATOM     11  C   UNL     1      29.881 -23.415 -15.137  0.00  0.00    +0.054 C 
ATOM     12  H   UNL     1      37.109 -23.441 -15.947  0.00  0.00    +0.148 HD
ENDROOT
BRANCH   1  13
ATOM     13  C   UNL     1      32.776 -21.439 -18.356  0.00  0.00    +0.082 C 
ATOM     14  C   UNL     1      34.483 -20.555 -19.820  0.00  0.00    -0.020 C 
ATOM     15  C   UNL     1      34.122 -21.298 -18.696  0.00  0.00    +0.015 C 
ATOM     16  C   UNL     1      31.792 -20.839 -19.141  0.00  0.00    +0.019 C 
ATOM     17  C   UNL     1      33.499 -19.955 -20.605  0.00  0.00    -0.004 C 
ATOM     18  C   UNL     1      32.153 -20.097 -20.266  0.00  0.00    +0.001 C 
BRANCH  14  19
ATOM     19  C   UNL     1      35.921 -20.402 -20.183  0.00  0.00    +0.036 C 
BRANCH  19  20
ATOM     20  C   UNL     1      36.415 -18.961 -20.004  0.00  0.00    +0.089 C 
BRANCH  20  23
ATOM     21  O   UNL     1      35.335 -17.478 -21.592  0.00  0.00    -0.275 OA
ATOM     22  N   UNL     1      37.459 -18.234 -22.046  0.00  0.00    -0.329 N 
ATOM     23  C   UNL     1      36.317 -18.143 -21.279  0.00  0.00    +0.220 C 
ATOM     24  H   UNL     1      37.517 -17.747 -22.899  0.00  0.00    +0.145 HD
ATOM     25  H   UNL     1      38.214 -18.786 -21.741  0.00  0.00    +0.145 HD
ENDBRANCH  20  23
ENDBRANCH  19  20
ENDBRANCH  14  19
ENDBRANCH   1  13
BRANCH   2  26
ATOM     26  C   UNL     1      37.197 -24.621 -14.230  0.00  0.00    +0.093 C 
ATOM     27  C   UNL     1      38.709 -24.581 -14.444  0.00  0.00    +0.026 C 
BRANCH  26  28
ATOM     28  C   UNL     1      36.779 -24.111 -12.868  0.00  0.00    -0.005 C 
ATOM     29  C   UNL     1      37.003 -22.778 -12.523  0.00  0.00    -0.003 C 
ATOM     30  C   UNL     1      36.169 -24.974 -11.957  0.00  0.00    -0.003 C 
ATOM     31  C   UNL     1      36.618 -22.308 -11.267  0.00  0.00    -0.000 C 
ATOM     32  C   UNL     1      35.784 -24.504 -10.702  0.00  0.00    -0.000 C 
ATOM     33  C   UNL     1      36.008 -23.171 -10.357  0.00  0.00    -0.000 C 
ENDBRANCH  26  28
ENDBRANCH   2  26
TORSDOF 6
ENDMDL
MODEL 7
REMARK VINA RESULT:     -10.7      7.474     12.058
REMARK  Name = 24941249
REMARK  6 active torsions:
REMARK  status: ('A' for Active; 'I' for Inactive)
REMARK    1  A    between atoms: N_1  and  C_13
REMARK    2  A    between atoms: N_2  and  C_26
REMARK    3  A    between atoms: C_14  and  C_19
REMARK    4  A    between atoms: C_19  and  C_20
REMARK    5  A    between atoms: C_20  and  C_23
REMARK    6  A    between atoms: C_26  and  C_28
REMARK                            x       y       z     vdW  Elec       q    Type
REMARK                         _______ _______ _______ _____ _____    ______ ____
ROOT
ATOM      1  N   UNL     1      32.777 -23.536 -14.420  0.00  0.00    -0.230 N 
ATOM      2  N   UNL     1      34.526 -21.404 -18.455  0.00  0.00    -0.316 N 
ATOM      3  N   UNL     1      33.342 -23.949 -13.272  0.00  0.00    -0.169 NA
ATOM      4  N   UNL     1      35.877 -21.997 -16.588  0.00  0.00    -0.229 NA
ATOM      5  C   UNL     1      33.656 -22.977 -15.307  0.00  0.00    +0.088 A 
ATOM      6  C   UNL     1      34.895 -23.033 -14.679  0.00  0.00    +0.052 A 
ATOM      7  C   UNL     1      34.631 -23.641 -13.434  0.00  0.00    +0.082 A 
ATOM      8  C   UNL     1      33.479 -22.439 -16.576  0.00  0.00    +0.053 C 
ATOM      9  C   UNL     1      34.646 -21.966 -17.156  0.00  0.00    +0.130 C 
ATOM     10  C   UNL     1      36.011 -22.529 -15.348  0.00  0.00    +0.103 C 
ATOM     11  C   UNL     1      35.591 -23.947 -12.360  0.00  0.00    +0.054 C 
ATOM     12  H   UNL     1      33.637 -21.378 -18.878  0.00  0.00    +0.148 HD
ENDROOT
BRANCH   1  13
ATOM     13  C   UNL     1      31.405 -23.699 -14.610  0.00  0.00    +0.082 C 
ATOM     14  C   UNL     1      29.327 -22.964 -15.602  0.00  0.00    -0.020 C 
ATOM     15  C   UNL     1      30.700 -22.801 -15.412  0.00  0.00    +0.015 C 
ATOM     16  C   UNL     1      30.738 -24.761 -14.000  0.00  0.00    +0.019 C 
ATOM     17  C   UNL     1      28.661 -24.026 -14.991  0.00  0.00    -0.004 C 
ATOM     18  C   UNL     1      29.366 -24.925 -14.191  0.00  0.00    +0.001 C 
BRANCH  14  19
ATOM     19  C   UNL     1      28.573 -22.004 -16.457  0.00  0.00    +0.036 C 
BRANCH  19  20
ATOM     20  C   UNL     1      27.212 -22.559 -16.893  0.00  0.00    +0.089 C 
BRANCH  20  23
ATOM     21  O   UNL     1      25.587 -21.760 -15.279  0.00  0.00    -0.275 OA
ATOM     22  N   UNL     1      25.569 -20.878 -17.403  0.00  0.00    -0.329 N 
ATOM     23  C   UNL     1      26.049 -21.711 -16.415  0.00  0.00    +0.220 C 
ATOM     24  H   UNL     1      24.813 -20.277 -17.214  0.00  0.00    +0.145 HD
ATOM     25  H   UNL     1      25.982 -20.885 -18.296  0.00  0.00    +0.145 HD
ENDBRANCH  20  23
ENDBRANCH  19  20
ENDBRANCH  14  19
ENDBRANCH   1  13
BRANCH   2  26
ATOM     26  C   UNL     1      35.640 -20.878 -19.170  0.00  0.00    +0.093 C 
ATOM     27  C   UNL     1      36.439 -22.028 -19.782  0.00  0.00    +0.026 C 
BRANCH  26  28
ATOM     28  C   UNL     1      35.174 -19.870 -20.198  0.00  0.00    -0.005 C 
ATOM     29  C   UNL     1      33.874 -19.936 -20.700  0.00  0.00    -0.003 C 
ATOM     30  C   UNL     1      36.043 -18.875 -20.643  0.00  0.00    -0.003 C 
ATOM     31  C   UNL     1      33.444 -19.008 -21.647  0.00  0.00    -0.000 C 
ATOM     32  C   UNL     1      35.613 -17.946 -21.590  0.00  0.00    -0.000 C 
ATOM     33  C   UNL     1      34.313 -18.012 -22.092  0.00  0.00    -0.000 C 
ENDBRANCH  26  28
ENDBRANCH   2  26
TORSDOF 6
ENDMDL
MODEL 8
REMARK VINA RESULT:     -10.5      4.492     10.554
REMARK  Name = 24941249
REMARK  6 active torsions:
REMARK  status: ('A' for Active; 'I' for Inactive)
REMARK    1  A    between atoms: N_1  and  C_13
REMARK    2  A    between atoms: N_2  and  C_26
REMARK    3  A    between atoms: C_14  and  C_19
REMARK    4  A    between atoms: C_19  and  C_20
REMARK    5  A    between atoms: C_20  and  C_23
REMARK    6  A    between atoms: C_26  and  C_28
REMARK                            x       y       z     vdW  Elec       q    Type
REMARK                         _______ _______ _______ _____ _____    ______ ____
ROOT
ATOM      1  N   UNL     1      32.078 -11.049 -21.659  0.00  0.00    -0.230 N 
ATOM      2  N   UNL     1      33.170  -7.261 -24.547  0.00  0.00    -0.316 N 
ATOM      3  N   UNL     1      31.454 -11.160 -20.473  0.00  0.00    -0.169 NA
ATOM      4  N   UNL     1      32.028  -7.047 -22.471  0.00  0.00    -0.229 NA
ATOM      5  C   UNL     1      32.172  -9.766 -22.124  0.00  0.00    +0.088 A 
ATOM      6  C   UNL     1      31.556  -8.979 -21.158  0.00  0.00    +0.052 A 
ATOM      7  C   UNL     1      31.138  -9.898 -20.172  0.00  0.00    +0.082 A 
ATOM      8  C   UNL     1      32.730  -9.236 -23.282  0.00  0.00    +0.053 C 
ATOM      9  C   UNL     1      32.617  -7.858 -23.383  0.00  0.00    +0.130 C 
ATOM     10  C   UNL     1      31.494  -7.600 -21.353  0.00  0.00    +0.103 C 
ATOM     11  C   UNL     1      30.427  -9.608 -18.915  0.00  0.00    +0.054 C 
ATOM     12  H   UNL     1      33.601  -7.840 -25.216  0.00  0.00    +0.148 HD
ENDROOT
BRANCH   1  13
ATOM     13  C   UNL     1      32.557 -12.194 -22.295  0.00  0.00    +0.082 C 
ATOM     14  C   UNL     1      33.645 -14.349 -22.183  0.00  0.00    -0.020 C 
ATOM     15  C   UNL     1      33.165 -13.204 -21.547  0.00  0.00    +0.015 C 
ATOM     16  C   UNL     1      32.428 -12.331 -23.676  0.00  0.00    +0.019 C 
ATOM     17  C   UNL     1      33.516 -14.486 -23.565  0.00  0.00    -0.004 C 
ATOM     18  C   UNL     1      32.907 -13.478 -24.312  0.00  0.00    +0.001 C 
BRANCH  14  19
ATOM     19  C   UNL     1      34.296 -15.428 -21.385  0.00  0.00    +0.036 C 
BRANCH  19  20
ATOM     20  C   UNL     1      34.858 -16.546 -22.270  0.00  0.00    +0.089 C 
BRANCH  20  23
ATOM     21  O   UNL     1      34.905 -18.264 -20.558  0.00  0.00    -0.275 OA
ATOM     22  N   UNL     1      36.763 -17.963 -21.880  0.00  0.00    -0.329 N 
ATOM     23  C   UNL     1      35.479 -17.675 -21.469  0.00  0.00    +0.220 C 
ATOM     24  H   UNL     1      37.272 -18.678 -21.435  0.00  0.00    +0.145 HD
ATOM     25  H   UNL     1      37.170 -17.453 -22.617  0.00  0.00    +0.145 HD
ENDBRANCH  20  23
ENDBRANCH  19  20
ENDBRANCH  14  19
ENDBRANCH   1  13
BRANCH   2  26
ATOM     26  C   UNL     1      33.125  -5.857 -24.785  0.00  0.00    +0.093 C 
ATOM     27  C   UNL     1      33.879  -5.130 -23.672  0.00  0.00    +0.026 C 
BRANCH  26  28
ATOM     28  C   UNL     1      33.660  -5.542 -26.165  0.00  0.00    -0.005 C 
ATOM     29  C   UNL     1      34.986  -5.139 -26.324  0.00  0.00    -0.003 C 
ATOM     30  C   UNL     1      32.828  -5.656 -27.278  0.00  0.00    -0.003 C 
ATOM     31  C   UNL     1      35.479  -4.849 -27.596  0.00  0.00    -0.000 C 
ATOM     32  C   UNL     1      33.321  -5.366 -28.550  0.00  0.00    -0.000 C 
ATOM     33  C   UNL     1      34.647  -4.963 -28.709  0.00  0.00    -0.000 C 
ENDBRANCH  26  28
ENDBRANCH   2  26
TORSDOF 6
ENDMDL
MODEL 9
REMARK VINA RESULT:     -10.3      5.973     11.525
REMARK  Name = 24941249
REMARK  6 active torsions:
REMARK  status: ('A' for Active; 'I' for Inactive)
REMARK    1  A    between atoms: N_1  and  C_13
REMARK    2  A    between atoms: N_2  and  C_26
REMARK    3  A    between atoms: C_14  and  C_19
REMARK    4  A    between atoms: C_19  and  C_20
REMARK    5  A    between atoms: C_20  and  C_23
REMARK    6  A    between atoms: C_26  and  C_28
REMARK                            x       y       z     vdW  Elec       q    Type
REMARK                         _______ _______ _______ _____ _____    ______ ____
ROOT
ATOM      1  N   UNL     1      34.217 -21.928 -17.339  0.00  0.00    -0.230 N 
ATOM      2  N   UNL     1      35.524 -19.343 -21.274  0.00  0.00    -0.316 N 
ATOM      3  N   UNL     1      33.035 -22.356 -16.862  0.00  0.00    -0.169 NA
ATOM      4  N   UNL     1      33.271 -19.913 -20.761  0.00  0.00    -0.229 NA
ATOM      5  C   UNL     1      34.127 -21.217 -18.503  0.00  0.00    +0.088 A 
ATOM      6  C   UNL     1      32.771 -21.181 -18.807  0.00  0.00    +0.052 A 
ATOM      7  C   UNL     1      32.158 -21.899 -17.759  0.00  0.00    +0.082 A 
ATOM      8  C   UNL     1      35.093 -20.614 -19.301  0.00  0.00    +0.053 C 
ATOM      9  C   UNL     1      34.582 -19.977 -20.421  0.00  0.00    +0.130 C 
ATOM     10  C   UNL     1      32.357 -20.514 -19.959  0.00  0.00    +0.103 C 
ATOM     11  C   UNL     1      30.723 -22.175 -17.576  0.00  0.00    +0.054 C 
ATOM     12  H   UNL     1      36.478 -19.382 -21.036  0.00  0.00    +0.148 HD
ENDROOT
BRANCH   1  13
ATOM     13  C   UNL     1      35.389 -22.229 -16.643  0.00  0.00    +0.082 C 
ATOM     14  C   UNL     1      36.557 -23.524 -14.971  0.00  0.00    -0.020 C 
ATOM     15  C   UNL     1      35.385 -23.224 -15.666  0.00  0.00    +0.015 C 
ATOM     16  C   UNL     1      36.565 -21.534 -16.926  0.00  0.00    +0.019 C 
ATOM     17  C   UNL     1      37.732 -22.830 -15.254  0.00  0.00    -0.004 C 
ATOM     18  C   UNL     1      37.737 -21.835 -16.232  0.00  0.00    +0.001 C 
BRANCH  14  19
ATOM     19  C   UNL     1      36.552 -24.587 -13.925  0.00  0.00    +0.036 C 
BRANCH  19  20
ATOM     20  C   UNL     1      36.803 -24.022 -12.522  0.00  0.00    +0.089 C 
BRANCH  20  23
ATOM     21  O   UNL     1      35.470 -24.889 -10.690  0.00  0.00    -0.275 OA
ATOM     22  N   UNL     1      34.609 -23.195 -11.987  0.00  0.00    -0.329 N 
ATOM     23  C   UNL     1      35.582 -24.104 -11.627  0.00  0.00    +0.220 C 
ATOM     24  H   UNL     1      33.766 -23.151 -11.480  0.00  0.00    +0.145 HD
ATOM     25  H   UNL     1      34.757 -22.592 -12.749  0.00  0.00    +0.145 HD
ENDBRANCH  20  23
ENDBRANCH  19  20
ENDBRANCH  14  19
ENDBRANCH   1  13
BRANCH   2  26
ATOM     26  C   UNL     1      35.142 -18.653 -22.461  0.00  0.00    +0.093 C 
ATOM     27  C   UNL     1      34.043 -19.439 -23.173  0.00  0.00    +0.026 C 
BRANCH  26  28
ATOM     28  C   UNL     1      34.734 -17.233 -22.131  0.00  0.00    -0.005 C 
ATOM     29  C   UNL     1      34.481 -16.324 -23.158  0.00  0.00    -0.003 C 
ATOM     30  C   UNL     1      34.611 -16.834 -20.801  0.00  0.00    -0.003 C 
ATOM     31  C   UNL     1      34.105 -15.015 -22.855  0.00  0.00    -0.000 C 
ATOM     32  C   UNL     1      34.236 -15.525 -20.497  0.00  0.00    -0.000 C 
ATOM     33  C   UNL     1      33.982 -14.616 -21.524  0.00  0.00    -0.000 C 
ENDBRANCH  26  28
ENDBRANCH   2  26
TORSDOF 6
ENDMDL
