MODEL 1
REMARK VINA RESULT:     -12.1      0.000      0.000
REMARK  Name = 16122554
REMARK  11 active torsions:
REMARK  status: ('A' for Active; 'I' for Inactive)
REMARK    1  A    between atoms: C_1  and  C_19
REMARK    2  A    between atoms: C_3  and  C_7
REMARK    3  A    between atoms: C_10  and  C_13
REMARK    4  A    between atoms: C_19  and  C_20
REMARK    5  A    between atoms: C_20  and  P_21
REMARK    6  A    between atoms: C_20  and  P_27
REMARK    7  A    between atoms: C_20  and  O_33
REMARK    8  A    between atoms: P_21  and  O_23
REMARK    9  A    between atoms: P_21  and  O_25
REMARK   10  A    between atoms: P_27  and  O_29
REMARK   11  A    between atoms: P_27  and  O_31
REMARK                            x       y       z     vdW  Elec       q    Type
REMARK                         _______ _______ _______ _____ _____    ______ ____
ROOT
ATOM      1  C   UNL     1      34.211 -24.264 -14.846  0.00  0.00    -0.019 C 
ATOM      2  C   UNL     1      34.483 -23.474 -15.952  0.00  0.00    -0.004 C 
ATOM      3  C   UNL     1      33.455 -22.729 -16.530  0.00  0.00    -0.000 C 
ATOM      4  C   UNL     1      32.937 -24.328 -14.304  0.00  0.00    -0.004 C 
ATOM      5  C   UNL     1      32.168 -22.783 -15.995  0.00  0.00    -0.000 C 
ATOM      6  C   UNL     1      31.908 -23.583 -14.882  0.00  0.00    -0.000 C 
ENDROOT
BRANCH   3   7
ATOM      7  C   UNL     1      33.723 -21.899 -17.685  0.00  0.00    -0.000 C 
ATOM      8  C   UNL     1      35.039 -21.604 -18.043  0.00  0.00    -0.000 C 
ATOM      9  C   UNL     1      32.665 -21.395 -18.441  0.00  0.00    -0.000 C 
ATOM     10  C   UNL     1      34.238 -20.299 -19.912  0.00  0.00    +0.000 C 
ATOM     11  C   UNL     1      35.297 -20.805 -19.156  0.00  0.00    -0.000 C 
ATOM     12  C   UNL     1      32.923 -20.595 -19.555  0.00  0.00    -0.000 C 
BRANCH  10  13
ATOM     13  C   UNL     1      34.506 -19.470 -21.066  0.00  0.00    +0.000 C 
ATOM     14  C   UNL     1      35.677 -18.716 -21.127  0.00  0.00    +0.000 C 
ATOM     15  C   UNL     1      33.591 -19.424 -22.119  0.00  0.00    +0.000 C 
ATOM     16  C   UNL     1      35.934 -17.916 -22.240  0.00  0.00    +0.000 C 
ATOM     17  C   UNL     1      33.848 -18.624 -23.232  0.00  0.00    +0.000 C 
ATOM     18  C   UNL     1      35.020 -17.870 -23.293  0.00  0.00    +0.000 C 
ENDBRANCH  10  13
ENDBRANCH   3   7
BRANCH   1  19
ATOM     19  C   UNL     1      35.322 -25.069 -14.219  0.00  0.00    +0.077 C 
BRANCH  19  20
ATOM     20  C   UNL     1      36.389 -24.282 -13.417  0.00  0.00    +0.279 C 
BRANCH  20  21
ATOM     21  P   UNL     1      38.047 -24.313 -14.181  0.00  0.00    +0.372 P 
ATOM     22  O   UNL     1      39.199 -24.211 -13.225  0.00  0.00    -0.255 OA
BRANCH  21  23
ATOM     23  O   UNL     1      37.966 -23.142 -15.292  0.00  0.00    -0.322 OA
ATOM     24  H   UNL     1      37.812 -22.290 -14.852  0.00  0.00    +0.220 HD
ENDBRANCH  21  23
BRANCH  21  25
ATOM     25  O   UNL     1      38.036 -25.662 -15.072  0.00  0.00    -0.322 OA
ATOM     26  H   UNL     1      38.810 -26.202 -14.849  0.00  0.00    +0.220 HD
ENDBRANCH  21  25
ENDBRANCH  20  21
BRANCH  20  27
ATOM     27  P   UNL     1      36.158 -24.710 -11.633  0.00  0.00    +0.372 P 
ATOM     28  O   UNL     1      34.760 -24.524 -11.120  0.00  0.00    -0.255 OA
BRANCH  27  29
ATOM     29  O   UNL     1      36.728 -26.220 -11.547  0.00  0.00    -0.322 OA
ATOM     30  H   UNL     1      37.319 -26.299 -10.782  0.00  0.00    +0.220 HD
ENDBRANCH  27  29
BRANCH  27  31
ATOM     31  O   UNL     1      37.287 -23.840 -10.871  0.00  0.00    -0.322 OA
ATOM     32  H   UNL     1      38.141 -24.296 -10.930  0.00  0.00    +0.220 HD
ENDBRANCH  27  31
ENDBRANCH  20  27
BRANCH  20  33
ATOM     33  O   UNL     1      36.049 -22.894 -13.408  0.00  0.00    -0.366 OA
ATOM     34  H   UNL     1      36.543 -22.444 -12.705  0.00  0.00    +0.212 HD
ENDBRANCH  20  33
ENDBRANCH  19  20
ENDBRANCH   1  19
TORSDOF 11
ENDMDL
MODEL 2
REMARK VINA RESULT:     -11.9      1.302      2.641
REMARK  Name = 16122554
REMARK  11 active torsions:
REMARK  status: ('A' for Active; 'I' for Inactive)
REMARK    1  A    between atoms: C_1  and  C_19
REMARK    2  A    between atoms: C_3  and  C_7
REMARK    3  A    between atoms: C_10  and  C_13
REMARK    4  A    between atoms: C_19  and  C_20
REMARK    5  A    between atoms: C_20  and  P_21
REMARK    6  A    between atoms: C_20  and  P_27
REMARK    7  A    between atoms: C_20  and  O_33
REMARK    8  A    between atoms: P_21  and  O_23
REMARK    9  A    between atoms: P_21  and  O_25
REMARK   10  A    between atoms: P_27  and  O_29
REMARK   11  A    between atoms: P_27  and  O_31
REMARK                            x       y       z     vdW  Elec       q    Type
REMARK                         _______ _______ _______ _____ _____    ______ ____
ROOT
ATOM      1  C   UNL     1      35.655 -22.737 -15.606  0.00  0.00    -0.019 C 
ATOM      2  C   UNL     1      35.593 -21.921 -16.725  0.00  0.00    -0.004 C 
ATOM      3  C   UNL     1      34.452 -21.944 -17.527  0.00  0.00    -0.000 C 
ATOM      4  C   UNL     1      34.604 -23.576 -15.270  0.00  0.00    -0.004 C 
ATOM      5  C   UNL     1      33.387 -22.784 -17.200  0.00  0.00    -0.000 C 
ATOM      6  C   UNL     1      33.462 -23.600 -16.072  0.00  0.00    -0.000 C 
ENDROOT
BRANCH   3   7
ATOM      7  C   UNL     1      34.373 -21.098 -18.698  0.00  0.00    -0.000 C 
ATOM      8  C   UNL     1      35.539 -20.604 -19.283  0.00  0.00    -0.000 C 
ATOM      9  C   UNL     1      33.130 -20.778 -19.243  0.00  0.00    -0.000 C 
ATOM     10  C   UNL     1      34.219 -19.467 -20.956  0.00  0.00    +0.000 C 
ATOM     11  C   UNL     1      35.462 -19.788 -20.411  0.00  0.00    -0.000 C 
ATOM     12  C   UNL     1      33.053 -19.962 -20.373  0.00  0.00    -0.000 C 
BRANCH  10  13
ATOM     13  C   UNL     1      34.139 -18.622 -22.127  0.00  0.00    +0.000 C 
ATOM     14  C   UNL     1      34.660 -17.329 -22.090  0.00  0.00    +0.000 C 
ATOM     15  C   UNL     1      33.540 -19.099 -23.293  0.00  0.00    +0.000 C 
ATOM     16  C   UNL     1      34.583 -16.513 -23.219  0.00  0.00    +0.000 C 
ATOM     17  C   UNL     1      33.462 -18.284 -24.422  0.00  0.00    +0.000 C 
ATOM     18  C   UNL     1      33.984 -16.990 -24.385  0.00  0.00    +0.000 C 
ENDBRANCH  10  13
ENDBRANCH   3   7
BRANCH   1  19
ATOM     19  C   UNL     1      36.888 -22.712 -14.737  0.00  0.00    +0.077 C 
BRANCH  19  20
ATOM     20  C   UNL     1      37.020 -23.837 -13.679  0.00  0.00    +0.279 C 
BRANCH  20  21
ATOM     21  P   UNL     1      36.815 -23.252 -11.962  0.00  0.00    +0.372 P 
ATOM     22  O   UNL     1      37.240 -24.221 -10.897  0.00  0.00    -0.255 OA
BRANCH  21  23
ATOM     23  O   UNL     1      35.265 -22.800 -11.906  0.00  0.00    -0.322 OA
ATOM     24  H   UNL     1      34.860 -22.929 -12.778  0.00  0.00    +0.220 HD
ENDBRANCH  21  23
BRANCH  21  25
ATOM     25  O   UNL     1      37.607 -21.844 -11.937  0.00  0.00    -0.322 OA
ATOM     26  H   UNL     1      36.987 -21.122 -12.125  0.00  0.00    +0.220 HD
ENDBRANCH  21  25
ENDBRANCH  20  21
BRANCH  20  27
ATOM     27  P   UNL     1      38.475 -24.873 -14.162  0.00  0.00    +0.372 P 
ATOM     28  O   UNL     1      39.680 -24.094 -14.601  0.00  0.00    -0.255 OA
BRANCH  27  29
ATOM     29  O   UNL     1      38.696 -25.812 -12.866  0.00  0.00    -0.322 OA
ATOM     30  H   UNL     1      37.969 -26.451 -12.802  0.00  0.00    +0.220 HD
ENDBRANCH  27  29
BRANCH  27  31
ATOM     31  O   UNL     1      37.881 -25.892 -15.266  0.00  0.00    -0.322 OA
ATOM     32  H   UNL     1      38.020 -25.525 -16.153  0.00  0.00    +0.220 HD
ENDBRANCH  27  31
ENDBRANCH  20  27
BRANCH  20  33
ATOM     33  O   UNL     1      35.954 -24.773 -13.845  0.00  0.00    -0.366 OA
ATOM     34  H   UNL     1      35.346 -24.453 -14.530  0.00  0.00    +0.212 HD
ENDBRANCH  20  33
ENDBRANCH  19  20
ENDBRANCH   1  19
TORSDOF 11
ENDMDL
MODEL 3
REMARK VINA RESULT:     -11.8      1.105      2.668
REMARK  Name = 16122554
REMARK  11 active torsions:
REMARK  status: ('A' for Active; 'I' for Inactive)
REMARK    1  A    between atoms: C_1  and  C_19
REMARK    2  A    between atoms: C_3  and  C_7
REMARK    3  A    between atoms: C_10  and  C_13
REMARK    4  A    between atoms: C_19  and  C_20
REMARK    5  A    between atoms: C_20  and  P_21
REMARK    6  A    between atoms: C_20  and  P_27
REMARK    7  A    between atoms: C_20  and  O_33
REMARK    8  A    between atoms: P_21  and  O_23
REMARK    9  A    between atoms: P_21  and  O_25
REMARK   10  A    between atoms: P_27  and  O_29
REMARK   11  A    between atoms: P_27  and  O_31
REMARK                            x       y       z     vdW  Elec       q    Type
REMARK                         _______ _______ _______ _____ _____    ______ ____
ROOT
ATOM      1  C   UNL     1      34.982 -23.010 -15.419  0.00  0.00    -0.019 C 
ATOM      2  C   UNL     1      35.032 -22.172 -16.522  0.00  0.00    -0.004 C 
ATOM      3  C   UNL     1      33.955 -22.142 -17.408  0.00  0.00    -0.000 C 
ATOM      4  C   UNL     1      33.882 -23.819 -15.180  0.00  0.00    -0.004 C 
ATOM      5  C   UNL     1      32.841 -22.951 -17.180  0.00  0.00    -0.000 C 
ATOM      6  C   UNL     1      32.804 -23.790 -16.066  0.00  0.00    -0.000 C 
ENDROOT
BRANCH   3   7
ATOM      7  C   UNL     1      33.992 -21.273 -18.565  0.00  0.00    -0.000 C 
ATOM      8  C   UNL     1      32.804 -20.826 -19.141  0.00  0.00    -0.000 C 
ATOM      9  C   UNL     1      35.218 -20.881 -19.102  0.00  0.00    -0.000 C 
ATOM     10  C   UNL     1      34.066 -19.597 -20.794  0.00  0.00    +0.000 C 
ATOM     11  C   UNL     1      32.840 -19.988 -20.256  0.00  0.00    -0.000 C 
ATOM     12  C   UNL     1      35.255 -20.043 -20.217  0.00  0.00    -0.000 C 
BRANCH  10  13
ATOM     13  C   UNL     1      34.104 -18.728 -21.950  0.00  0.00    +0.000 C 
ATOM     14  C   UNL     1      34.684 -17.464 -21.853  0.00  0.00    +0.000 C 
ATOM     15  C   UNL     1      33.559 -19.155 -23.161  0.00  0.00    +0.000 C 
ATOM     16  C   UNL     1      34.720 -16.626 -22.968  0.00  0.00    +0.000 C 
ATOM     17  C   UNL     1      33.595 -18.317 -24.276  0.00  0.00    +0.000 C 
ATOM     18  C   UNL     1      34.175 -17.053 -24.179  0.00  0.00    +0.000 C 
ENDBRANCH  10  13
ENDBRANCH   3   7
BRANCH   1  19
ATOM     19  C   UNL     1      36.145 -23.041 -14.458  0.00  0.00    +0.077 C 
BRANCH  19  20
ATOM     20  C   UNL     1      36.365 -24.357 -13.670  0.00  0.00    +0.279 C 
BRANCH  20  21
ATOM     21  P   UNL     1      35.934 -24.231 -11.901  0.00  0.00    +0.372 P 
ATOM     22  O   UNL     1      36.340 -22.952 -11.229  0.00  0.00    -0.255 OA
BRANCH  21  23
ATOM     23  O   UNL     1      36.568 -25.576 -11.268  0.00  0.00    -0.322 OA
ATOM     24  H   UNL     1      35.894 -26.031 -10.737  0.00  0.00    +0.220 HD
ENDBRANCH  21  23
BRANCH  21  25
ATOM     25  O   UNL     1      34.345 -24.526 -11.870  0.00  0.00    -0.322 OA
ATOM     26  H   UNL     1      34.036 -24.530 -10.950  0.00  0.00    +0.220 HD
ENDBRANCH  21  25
ENDBRANCH  20  21
BRANCH  20  27
ATOM     27  P   UNL     1      37.997 -25.046 -14.203  0.00  0.00    +0.372 P 
ATOM     28  O   UNL     1      38.824 -25.625 -13.093  0.00  0.00    -0.255 OA
BRANCH  27  29
ATOM     29  O   UNL     1      37.587 -26.086 -15.370  0.00  0.00    -0.322 OA
ATOM     30  H   UNL     1      37.636 -25.641 -16.230  0.00  0.00    +0.220 HD
ENDBRANCH  27  29
BRANCH  27  31
ATOM     31  O   UNL     1      38.691 -23.831 -15.010  0.00  0.00    -0.322 OA
ATOM     32  H   UNL     1      38.119 -23.049 -14.971  0.00  0.00    +0.220 HD
ENDBRANCH  27  31
ENDBRANCH  20  27
BRANCH  20  33
ATOM     33  O   UNL     1      35.474 -25.361 -14.163  0.00  0.00    -0.366 OA
ATOM     34  H   UNL     1      35.656 -25.521 -15.103  0.00  0.00    +0.212 HD
ENDBRANCH  20  33
ENDBRANCH  19  20
ENDBRANCH   1  19
TORSDOF 11
ENDMDL
MODEL 4
REMARK VINA RESULT:     -11.5      3.742      5.080
REMARK  Name = 16122554
REMARK  11 active torsions:
REMARK  status: ('A' for Active; 'I' for Inactive)
REMARK    1  A    between atoms: C_1  and  C_19
REMARK    2  A    between atoms: C_3  and  C_7
REMARK    3  A    between atoms: C_10  and  C_13
REMARK    4  A    between atoms: C_19  and  C_20
REMARK    5  A    between atoms: C_20  and  P_21
REMARK    6  A    between atoms: C_20  and  P_27
REMARK    7  A    between atoms: C_20  and  O_33
REMARK    8  A    between atoms: P_21  and  O_23
REMARK    9  A    between atoms: P_21  and  O_25
REMARK   10  A    between atoms: P_27  and  O_29
REMARK   11  A    between atoms: P_27  and  O_31
REMARK                            x       y       z     vdW  Elec       q    Type
REMARK                         _______ _______ _______ _____ _____    ______ ____
ROOT
ATOM      1  C   UNL     1      32.742 -23.360 -16.125  0.00  0.00    -0.019 C 
ATOM      2  C   UNL     1      32.749 -22.536 -17.240  0.00  0.00    -0.004 C 
ATOM      3  C   UNL     1      33.944 -21.941 -17.644  0.00  0.00    -0.000 C 
ATOM      4  C   UNL     1      33.901 -23.603 -15.404  0.00  0.00    -0.004 C 
ATOM      5  C   UNL     1      35.118 -22.176 -16.927  0.00  0.00    -0.000 C 
ATOM      6  C   UNL     1      35.097 -23.007 -15.807  0.00  0.00    -0.000 C 
ENDROOT
BRANCH   3   7
ATOM      7  C   UNL     1      33.967 -21.079 -18.806  0.00  0.00    -0.000 C 
ATOM      8  C   UNL     1      35.186 -20.669 -19.347  0.00  0.00    -0.000 C 
ATOM      9  C   UNL     1      32.771 -20.658 -19.385  0.00  0.00    -0.000 C 
ATOM     10  C   UNL     1      34.010 -19.416 -21.046  0.00  0.00    +0.000 C 
ATOM     11  C   UNL     1      35.208 -19.838 -20.467  0.00  0.00    -0.000 C 
ATOM     12  C   UNL     1      32.792 -19.827 -20.505  0.00  0.00    -0.000 C 
BRANCH  10  13
ATOM     13  C   UNL     1      34.033 -18.555 -22.207  0.00  0.00    +0.000 C 
ATOM     14  C   UNL     1      34.631 -17.297 -22.131  0.00  0.00    +0.000 C 
ATOM     15  C   UNL     1      33.456 -18.981 -23.403  0.00  0.00    +0.000 C 
ATOM     16  C   UNL     1      34.652 -16.466 -23.251  0.00  0.00    +0.000 C 
ATOM     17  C   UNL     1      33.477 -18.150 -24.524  0.00  0.00    +0.000 C 
ATOM     18  C   UNL     1      34.075 -16.892 -24.447  0.00  0.00    +0.000 C 
ENDBRANCH  10  13
ENDBRANCH   3   7
BRANCH   1  19
ATOM     19  C   UNL     1      31.450 -24.006 -15.688  0.00  0.00    +0.077 C 
BRANCH  19  20
ATOM     20  C   UNL     1      30.587 -23.223 -14.667  0.00  0.00    +0.279 C 
BRANCH  20  21
ATOM     21  P   UNL     1      30.443 -24.050 -13.046  0.00  0.00    +0.372 P 
ATOM     22  O   UNL     1      30.192 -23.140 -11.879  0.00  0.00    -0.255 OA
BRANCH  21  23
ATOM     23  O   UNL     1      31.794 -24.931 -12.957  0.00  0.00    -0.322 OA
ATOM     24  H   UNL     1      31.567 -25.849 -12.739  0.00  0.00    +0.220 HD
ENDBRANCH  21  23
BRANCH  21  25
ATOM     25  O   UNL     1      29.295 -25.163 -13.283  0.00  0.00    -0.322 OA
ATOM     26  H   UNL     1      28.600 -25.058 -12.615  0.00  0.00    +0.220 HD
ENDBRANCH  21  25
ENDBRANCH  20  21
BRANCH  20  27
ATOM     27  P   UNL     1      29.085 -22.626 -15.566  0.00  0.00    +0.372 P 
ATOM     28  O   UNL     1      29.351 -22.082 -16.939  0.00  0.00    -0.255 OA
BRANCH  27  29
ATOM     29  O   UNL     1      28.099 -23.906 -15.512  0.00  0.00    -0.322 OA
ATOM     30  H   UNL     1      27.225 -23.654 -15.846  0.00  0.00    +0.220 HD
ENDBRANCH  27  29
BRANCH  27  31
ATOM     31  O   UNL     1      28.401 -21.583 -14.539  0.00  0.00    -0.322 OA
ATOM     32  H   UNL     1      27.587 -21.230 -14.930  0.00  0.00    +0.220 HD
ENDBRANCH  27  31
ENDBRANCH  20  27
BRANCH  20  33
ATOM     33  O   UNL     1      31.227 -21.983 -14.357  0.00  0.00    -0.366 OA
ATOM     34  H   UNL     1      30.897 -21.653 -13.506  0.00  0.00    +0.212 HD
ENDBRANCH  20  33
ENDBRANCH  19  20
ENDBRANCH   1  19
TORSDOF 11
ENDMDL
MODEL 5
REMARK VINA RESULT:     -11.0      1.603      2.262
REMARK  Name = 16122554
REMARK  11 active torsions:
REMARK  status: ('A' for Active; 'I' for Inactive)
REMARK    1  A    between atoms: C_1  and  C_19
REMARK    2  A    between atoms: C_3  and  C_7
REMARK    3  A    between atoms: C_10  and  C_13
REMARK    4  A    between atoms: C_19  and  C_20
REMARK    5  A    between atoms: C_20  and  P_21
REMARK    6  A    between atoms: C_20  and  P_27
REMARK    7  A    between atoms: C_20  and  O_33
REMARK    8  A    between atoms: P_21  and  O_23
REMARK    9  A    between atoms: P_21  and  O_25
REMARK   10  A    between atoms: P_27  and  O_29
REMARK   11  A    between atoms: P_27  and  O_31
REMARK                            x       y       z     vdW  Elec       q    Type
REMARK                         _______ _______ _______ _____ _____    ______ ____
ROOT
ATOM      1  C   UNL     1      35.866 -23.709 -13.935  0.00  0.00    -0.019 C 
ATOM      2  C   UNL     1      35.954 -22.971 -15.106  0.00  0.00    -0.004 C 
ATOM      3  C   UNL     1      34.797 -22.712 -15.840  0.00  0.00    -0.000 C 
ATOM      4  C   UNL     1      34.649 -24.193 -13.481  0.00  0.00    -0.004 C 
ATOM      5  C   UNL     1      33.565 -23.194 -15.395  0.00  0.00    -0.000 C 
ATOM      6  C   UNL     1      33.491 -23.935 -14.215  0.00  0.00    -0.000 C 
ENDROOT
BRANCH   3   7
ATOM      7  C   UNL     1      34.873 -21.944 -17.064  0.00  0.00    -0.000 C 
ATOM      8  C   UNL     1      33.762 -21.858 -17.904  0.00  0.00    -0.000 C 
ATOM      9  C   UNL     1      36.056 -21.289 -17.404  0.00  0.00    -0.000 C 
ATOM     10  C   UNL     1      35.020 -20.463 -19.424  0.00  0.00    +0.000 C 
ATOM     11  C   UNL     1      33.836 -21.117 -19.084  0.00  0.00    -0.000 C 
ATOM     12  C   UNL     1      36.130 -20.548 -18.583  0.00  0.00    -0.000 C 
BRANCH  10  13
ATOM     13  C   UNL     1      35.096 -19.695 -20.647  0.00  0.00    +0.000 C 
ATOM     14  C   UNL     1      36.258 -18.989 -20.956  0.00  0.00    +0.000 C 
ATOM     15  C   UNL     1      34.007 -19.661 -21.518  0.00  0.00    +0.000 C 
ATOM     16  C   UNL     1      36.331 -18.248 -22.136  0.00  0.00    +0.000 C 
ATOM     17  C   UNL     1      34.079 -18.920 -22.697  0.00  0.00    +0.000 C 
ATOM     18  C   UNL     1      35.242 -18.213 -23.006  0.00  0.00    +0.000 C 
ENDBRANCH  10  13
ENDBRANCH   3   7
BRANCH   1  19
ATOM     19  C   UNL     1      37.117 -23.988 -13.139  0.00  0.00    +0.077 C 
BRANCH  19  20
ATOM     20  C   UNL     1      38.083 -25.057 -13.707  0.00  0.00    +0.279 C 
BRANCH  20  21
ATOM     21  P   UNL     1      39.415 -24.361 -14.743  0.00  0.00    +0.372 P 
ATOM     22  O   UNL     1      40.641 -23.915 -14.001  0.00  0.00    -0.255 OA
BRANCH  21  23
ATOM     23  O   UNL     1      38.663 -23.208 -15.590  0.00  0.00    -0.322 OA
ATOM     24  H   UNL     1      38.618 -22.396 -15.060  0.00  0.00    +0.220 HD
ENDBRANCH  21  23
BRANCH  21  25
ATOM     25  O   UNL     1      39.684 -25.509 -15.848  0.00  0.00    -0.322 OA
ATOM     26  H   UNL     1      40.638 -25.663 -15.928  0.00  0.00    +0.220 HD
ENDBRANCH  21  25
ENDBRANCH  20  21
BRANCH  20  27
ATOM     27  P   UNL     1      37.046 -26.463 -14.314  0.00  0.00    +0.372 P 
ATOM     28  O   UNL     1      36.156 -26.129 -15.475  0.00  0.00    -0.255 OA
BRANCH  27  29
ATOM     29  O   UNL     1      38.137 -27.623 -14.593  0.00  0.00    -0.322 OA
ATOM     30  H   UNL     1      38.571 -27.865 -13.761  0.00  0.00    +0.220 HD
ENDBRANCH  27  29
BRANCH  27  31
ATOM     31  O   UNL     1      36.277 -26.983 -12.992  0.00  0.00    -0.322 OA
ATOM     32  H   UNL     1      36.238 -27.952 -13.000  0.00  0.00    +0.220 HD
ENDBRANCH  27  31
ENDBRANCH  20  27
BRANCH  20  33
ATOM     33  O   UNL     1      38.785 -25.683 -12.632  0.00  0.00    -0.366 OA
ATOM     34  H   UNL     1      38.183 -25.808 -11.881  0.00  0.00    +0.212 HD
ENDBRANCH  20  33
ENDBRANCH  19  20
ENDBRANCH   1  19
TORSDOF 11
ENDMDL
MODEL 6
REMARK VINA RESULT:     -10.9      1.039      2.221
REMARK  Name = 16122554
REMARK  11 active torsions:
REMARK  status: ('A' for Active; 'I' for Inactive)
REMARK    1  A    between atoms: C_1  and  C_19
REMARK    2  A    between atoms: C_3  and  C_7
REMARK    3  A    between atoms: C_10  and  C_13
REMARK    4  A    between atoms: C_19  and  C_20
REMARK    5  A    between atoms: C_20  and  P_21
REMARK    6  A    between atoms: C_20  and  P_27
REMARK    7  A    between atoms: C_20  and  O_33
REMARK    8  A    between atoms: P_21  and  O_23
REMARK    9  A    between atoms: P_21  and  O_25
REMARK   10  A    between atoms: P_27  and  O_29
REMARK   11  A    between atoms: P_27  and  O_31
REMARK                            x       y       z     vdW  Elec       q    Type
REMARK                         _______ _______ _______ _____ _____    ______ ____
ROOT
ATOM      1  C   UNL     1      34.169 -24.175 -15.469  0.00  0.00    -0.019 C 
ATOM      2  C   UNL     1      34.381 -23.324 -16.543  0.00  0.00    -0.004 C 
ATOM      3  C   UNL     1      33.325 -22.547 -17.019  0.00  0.00    -0.000 C 
ATOM      4  C   UNL     1      32.926 -24.268 -14.860  0.00  0.00    -0.004 C 
ATOM      5  C   UNL     1      32.070 -22.630 -16.416  0.00  0.00    -0.000 C 
ATOM      6  C   UNL     1      31.870 -23.491 -15.337  0.00  0.00    -0.000 C 
ENDROOT
BRANCH   3   7
ATOM      7  C   UNL     1      33.531 -21.654 -18.140  0.00  0.00    -0.000 C 
ATOM      8  C   UNL     1      32.437 -21.070 -18.777  0.00  0.00    -0.000 C 
ATOM      9  C   UNL     1      34.825 -21.377 -18.581  0.00  0.00    -0.000 C 
ATOM     10  C   UNL     1      33.930 -19.933 -20.299  0.00  0.00    +0.000 C 
ATOM     11  C   UNL     1      32.636 -20.210 -19.857  0.00  0.00    -0.000 C 
ATOM     12  C   UNL     1      35.024 -20.516 -19.660  0.00  0.00    -0.000 C 
BRANCH  10  13
ATOM     13  C   UNL     1      34.136 -19.041 -21.418  0.00  0.00    +0.000 C 
ATOM     14  C   UNL     1      33.587 -19.346 -22.663  0.00  0.00    +0.000 C 
ATOM     15  C   UNL     1      34.885 -17.876 -21.253  0.00  0.00    +0.000 C 
ATOM     16  C   UNL     1      33.787 -18.486 -23.743  0.00  0.00    +0.000 C 
ATOM     17  C   UNL     1      35.086 -17.016 -22.333  0.00  0.00    +0.000 C 
ATOM     18  C   UNL     1      34.536 -17.321 -23.578  0.00  0.00    +0.000 C 
ENDBRANCH  10  13
ENDBRANCH   3   7
BRANCH   1  19
ATOM     19  C   UNL     1      35.310 -25.015 -14.951  0.00  0.00    +0.077 C 
BRANCH  19  20
ATOM     20  C   UNL     1      36.036 -24.501 -13.682  0.00  0.00    +0.279 C 
BRANCH  20  21
ATOM     21  P   UNL     1      36.615 -22.776 -13.820  0.00  0.00    +0.372 P 
ATOM     22  O   UNL     1      37.467 -22.476 -15.018  0.00  0.00    -0.255 OA
BRANCH  21  23
ATOM     23  O   UNL     1      37.316 -22.504 -12.389  0.00  0.00    -0.322 OA
ATOM     24  H   UNL     1      37.697 -23.331 -12.054  0.00  0.00    +0.220 HD
ENDBRANCH  21  23
BRANCH  21  25
ATOM     25  O   UNL     1      35.256 -21.905 -13.732  0.00  0.00    -0.322 OA
ATOM     26  H   UNL     1      35.000 -21.616 -14.622  0.00  0.00    +0.220 HD
ENDBRANCH  21  25
ENDBRANCH  20  21
BRANCH  20  27
ATOM     27  P   UNL     1      37.179 -25.845 -13.125  0.00  0.00    +0.372 P 
ATOM     28  O   UNL     1      37.359 -26.962 -14.110  0.00  0.00    -0.255 OA
BRANCH  27  29
ATOM     29  O   UNL     1      38.526 -25.038 -12.743  0.00  0.00    -0.322 OA
ATOM     30  H   UNL     1      39.154 -25.642 -12.318  0.00  0.00    +0.220 HD
ENDBRANCH  27  29
BRANCH  27  31
ATOM     31  O   UNL     1      36.589 -26.290 -11.688  0.00  0.00    -0.322 OA
ATOM     32  H   UNL     1      37.298 -26.266 -11.026  0.00  0.00    +0.220 HD
ENDBRANCH  27  31
ENDBRANCH  20  27
BRANCH  20  33
ATOM     33  O   UNL     1      35.114 -24.461 -12.591  0.00  0.00    -0.366 OA
ATOM     34  H   UNL     1      34.547 -25.247 -12.617  0.00  0.00    +0.212 HD
ENDBRANCH  20  33
ENDBRANCH  19  20
ENDBRANCH   1  19
TORSDOF 11
ENDMDL
MODEL 7
REMARK VINA RESULT:     -10.6      2.986      4.514
REMARK  Name = 16122554
REMARK  11 active torsions:
REMARK  status: ('A' for Active; 'I' for Inactive)
REMARK    1  A    between atoms: C_1  and  C_19
REMARK    2  A    between atoms: C_3  and  C_7
REMARK    3  A    between atoms: C_10  and  C_13
REMARK    4  A    between atoms: C_19  and  C_20
REMARK    5  A    between atoms: C_20  and  P_21
REMARK    6  A    between atoms: C_20  and  P_27
REMARK    7  A    between atoms: C_20  and  O_33
REMARK    8  A    between atoms: P_21  and  O_23
REMARK    9  A    between atoms: P_21  and  O_25
REMARK   10  A    between atoms: P_27  and  O_29
REMARK   11  A    between atoms: P_27  and  O_31
REMARK                            x       y       z     vdW  Elec       q    Type
REMARK                         _______ _______ _______ _____ _____    ______ ____
ROOT
ATOM      1  C   UNL     1      34.321 -22.912 -16.456  0.00  0.00    -0.019 C 
ATOM      2  C   UNL     1      34.091 -22.104 -17.559  0.00  0.00    -0.004 C 
ATOM      3  C   UNL     1      35.129 -21.319 -18.061  0.00  0.00    -0.000 C 
ATOM      4  C   UNL     1      35.563 -22.954 -15.843  0.00  0.00    -0.004 C 
ATOM      5  C   UNL     1      36.385 -21.352 -17.454  0.00  0.00    -0.000 C 
ATOM      6  C   UNL     1      36.602 -22.169 -16.344  0.00  0.00    -0.000 C 
ENDROOT
BRANCH   3   7
ATOM      7  C   UNL     1      34.905 -20.471 -19.212  0.00  0.00    -0.000 C 
ATOM      8  C   UNL     1      33.631 -20.377 -19.772  0.00  0.00    -0.000 C 
ATOM      9  C   UNL     1      35.962 -19.746 -19.760  0.00  0.00    -0.000 C 
ATOM     10  C   UNL     1      34.473 -18.835 -21.430  0.00  0.00    +0.000 C 
ATOM     11  C   UNL     1      33.415 -19.559 -20.881  0.00  0.00    -0.000 C 
ATOM     12  C   UNL     1      35.747 -18.928 -20.869  0.00  0.00    -0.000 C 
BRANCH  10  13
ATOM     13  C   UNL     1      34.249 -17.987 -22.580  0.00  0.00    +0.000 C 
ATOM     14  C   UNL     1      34.658 -16.655 -22.555  0.00  0.00    +0.000 C 
ATOM     15  C   UNL     1      33.623 -18.502 -23.715  0.00  0.00    +0.000 C 
ATOM     16  C   UNL     1      34.441 -15.836 -23.663  0.00  0.00    +0.000 C 
ATOM     17  C   UNL     1      33.405 -17.685 -24.824  0.00  0.00    +0.000 C 
ATOM     18  C   UNL     1      33.815 -16.352 -24.798  0.00  0.00    +0.000 C 
ENDBRANCH  10  13
ENDBRANCH   3   7
BRANCH   1  19
ATOM     19  C   UNL     1      33.199 -23.763 -15.913  0.00  0.00    +0.077 C 
BRANCH  19  20
ATOM     20  C   UNL     1      32.364 -23.161 -14.755  0.00  0.00    +0.279 C 
BRANCH  20  21
ATOM     21  P   UNL     1      32.635 -23.991 -13.152  0.00  0.00    +0.372 P 
ATOM     22  O   UNL     1      31.546 -24.928 -12.719  0.00  0.00    -0.255 OA
BRANCH  21  23
ATOM     23  O   UNL     1      32.929 -22.762 -12.143  0.00  0.00    -0.322 OA
ATOM     24  H   UNL     1      32.199 -22.683 -11.510  0.00  0.00    +0.220 HD
ENDBRANCH  21  23
BRANCH  21  25
ATOM     25  O   UNL     1      34.086 -24.683 -13.317  0.00  0.00    -0.322 OA
ATOM     26  H   UNL     1      34.164 -25.062 -14.206  0.00  0.00    +0.220 HD
ENDBRANCH  21  25
ENDBRANCH  20  21
BRANCH  20  27
ATOM     27  P   UNL     1      30.654 -22.883 -15.402  0.00  0.00    +0.372 P 
ATOM     28  O   UNL     1      29.801 -21.986 -14.553  0.00  0.00    -0.255 OA
BRANCH  27  29
ATOM     29  O   UNL     1      30.918 -22.357 -16.908  0.00  0.00    -0.322 OA
ATOM     30  H   UNL     1      30.700 -23.061 -17.538  0.00  0.00    +0.220 HD
ENDBRANCH  27  29
BRANCH  27  31
ATOM     31  O   UNL     1      30.070 -24.373 -15.623  0.00  0.00    -0.322 OA
ATOM     32  H   UNL     1      29.258 -24.327 -16.152  0.00  0.00    +0.220 HD
ENDBRANCH  27  31
ENDBRANCH  20  27
BRANCH  20  33
ATOM     33  O   UNL     1      32.784 -21.817 -14.514  0.00  0.00    -0.366 OA
ATOM     34  H   UNL     1      32.210 -21.206 -15.003  0.00  0.00    +0.212 HD
ENDBRANCH  20  33
ENDBRANCH  19  20
ENDBRANCH   1  19
TORSDOF 11
ENDMDL
MODEL 8
REMARK VINA RESULT:      -9.7     12.801     15.781
REMARK  Name = 16122554
REMARK  11 active torsions:
REMARK  status: ('A' for Active; 'I' for Inactive)
REMARK    1  A    between atoms: C_1  and  C_19
REMARK    2  A    between atoms: C_3  and  C_7
REMARK    3  A    between atoms: C_10  and  C_13
REMARK    4  A    between atoms: C_19  and  C_20
REMARK    5  A    between atoms: C_20  and  P_21
REMARK    6  A    between atoms: C_20  and  P_27
REMARK    7  A    between atoms: C_20  and  O_33
REMARK    8  A    between atoms: P_21  and  O_23
REMARK    9  A    between atoms: P_21  and  O_25
REMARK   10  A    between atoms: P_27  and  O_29
REMARK   11  A    between atoms: P_27  and  O_31
REMARK                            x       y       z     vdW  Elec       q    Type
REMARK                         _______ _______ _______ _____ _____    ______ ____
ROOT
ATOM      1  C   UNL     1      31.453  -8.802 -22.281  0.00  0.00    -0.019 C 
ATOM      2  C   UNL     1      32.025 -10.050 -22.475  0.00  0.00    -0.004 C 
ATOM      3  C   UNL     1      31.973 -10.993 -21.448  0.00  0.00    -0.000 C 
ATOM      4  C   UNL     1      30.832  -8.474 -21.086  0.00  0.00    -0.004 C 
ATOM      5  C   UNL     1      31.351 -10.677 -20.240  0.00  0.00    -0.000 C 
ATOM      6  C   UNL     1      30.780  -9.417 -20.059  0.00  0.00    -0.000 C 
ENDROOT
BRANCH   3   7
ATOM      7  C   UNL     1      32.565 -12.301 -21.636  0.00  0.00    -0.000 C 
ATOM      8  C   UNL     1      32.890 -12.743 -22.918  0.00  0.00    -0.000 C 
ATOM      9  C   UNL     1      32.812 -13.118 -20.533  0.00  0.00    -0.000 C 
ATOM     10  C   UNL     1      33.706 -14.821 -21.995  0.00  0.00    +0.000 C 
ATOM     11  C   UNL     1      33.460 -14.002 -23.098  0.00  0.00    -0.000 C 
ATOM     12  C   UNL     1      33.382 -14.378 -20.713  0.00  0.00    -0.000 C 
BRANCH  10  13
ATOM     13  C   UNL     1      34.298 -16.127 -22.182  0.00  0.00    +0.000 C 
ATOM     14  C   UNL     1      34.233 -16.751 -23.427  0.00  0.00    +0.000 C 
ATOM     15  C   UNL     1      34.933 -16.764 -21.116  0.00  0.00    +0.000 C 
ATOM     16  C   UNL     1      34.803 -18.011 -23.607  0.00  0.00    +0.000 C 
ATOM     17  C   UNL     1      35.503 -18.025 -21.295  0.00  0.00    +0.000 C 
ATOM     18  C   UNL     1      35.438 -18.648 -22.541  0.00  0.00    +0.000 C 
ENDBRANCH  10  13
ENDBRANCH   3   7
BRANCH   1  19
ATOM     19  C   UNL     1      31.507  -7.781 -23.391  0.00  0.00    +0.077 C 
BRANCH  19  20
ATOM     20  C   UNL     1      32.243  -6.453 -23.084  0.00  0.00    +0.279 C 
BRANCH  20  21
ATOM     21  P   UNL     1      31.118  -5.068 -22.694  0.00  0.00    +0.372 P 
ATOM     22  O   UNL     1      29.786  -5.460 -22.127  0.00  0.00    -0.255 OA
BRANCH  21  23
ATOM     23  O   UNL     1      31.062  -4.236 -24.079  0.00  0.00    -0.322 OA
ATOM     24  H   UNL     1      31.867  -3.701 -24.167  0.00  0.00    +0.220 HD
ENDBRANCH  21  23
BRANCH  21  25
ATOM     25  O   UNL     1      32.000  -4.115 -21.732  0.00  0.00    -0.322 OA
ATOM     26  H   UNL     1      31.754  -4.275 -20.807  0.00  0.00    +0.220 HD
ENDBRANCH  21  25
ENDBRANCH  20  21
BRANCH  20  27
ATOM     27  P   UNL     1      33.579  -6.263 -24.348  0.00  0.00    +0.372 P 
ATOM     28  O   UNL     1      34.596  -7.367 -24.355  0.00  0.00    -0.255 OA
BRANCH  27  29
ATOM     29  O   UNL     1      32.752  -6.081 -25.724  0.00  0.00    -0.322 OA
ATOM     30  H   UNL     1      32.913  -6.844 -26.301  0.00  0.00    +0.220 HD
ENDBRANCH  27  29
BRANCH  27  31
ATOM     31  O   UNL     1      34.175  -4.787 -24.071  0.00  0.00    -0.322 OA
ATOM     32  H   UNL     1      35.072  -4.727 -24.436  0.00  0.00    +0.220 HD
ENDBRANCH  27  31
ENDBRANCH  20  27
BRANCH  20  33
ATOM     33  O   UNL     1      33.017  -6.603 -21.892  0.00  0.00    -0.366 OA
ATOM     34  H   UNL     1      33.961  -6.546 -22.111  0.00  0.00    +0.212 HD
ENDBRANCH  20  33
ENDBRANCH  19  20
ENDBRANCH   1  19
TORSDOF 11
ENDMDL
MODEL 9
REMARK VINA RESULT:      -9.6      7.853     11.119
REMARK  Name = 16122554
REMARK  11 active torsions:
REMARK  status: ('A' for Active; 'I' for Inactive)
REMARK    1  A    between atoms: C_1  and  C_19
REMARK    2  A    between atoms: C_3  and  C_7
REMARK    3  A    between atoms: C_10  and  C_13
REMARK    4  A    between atoms: C_19  and  C_20
REMARK    5  A    between atoms: C_20  and  P_21
REMARK    6  A    between atoms: C_20  and  P_27
REMARK    7  A    between atoms: C_20  and  O_33
REMARK    8  A    between atoms: P_21  and  O_23
REMARK    9  A    between atoms: P_21  and  O_25
REMARK   10  A    between atoms: P_27  and  O_29
REMARK   11  A    between atoms: P_27  and  O_31
REMARK                            x       y       z     vdW  Elec       q    Type
REMARK                         _______ _______ _______ _____ _____    ______ ____
ROOT
ATOM      1  C   UNL     1      34.245 -16.230 -23.368  0.00  0.00    -0.019 C 
ATOM      2  C   UNL     1      34.498 -16.996 -22.241  0.00  0.00    -0.004 C 
ATOM      3  C   UNL     1      34.288 -18.374 -22.289  0.00  0.00    -0.000 C 
ATOM      4  C   UNL     1      33.786 -16.808 -24.542  0.00  0.00    -0.004 C 
ATOM      5  C   UNL     1      33.826 -18.969 -23.463  0.00  0.00    -0.000 C 
ATOM      6  C   UNL     1      33.575 -18.186 -24.590  0.00  0.00    -0.000 C 
ENDROOT
BRANCH   3   7
ATOM      7  C   UNL     1      34.547 -19.188 -21.120  0.00  0.00    -0.000 C 
ATOM      8  C   UNL     1      35.844 -19.294 -20.618  0.00  0.00    -0.000 C 
ATOM      9  C   UNL     1      33.500 -19.864 -20.495  0.00  0.00    -0.000 C 
ATOM     10  C   UNL     1      35.046 -20.756 -18.867  0.00  0.00    +0.000 C 
ATOM     11  C   UNL     1      36.094 -20.078 -19.492  0.00  0.00    -0.000 C 
ATOM     12  C   UNL     1      33.749 -20.648 -19.369  0.00  0.00    -0.000 C 
BRANCH  10  13
ATOM     13  C   UNL     1      35.305 -21.568 -17.700  0.00  0.00    +0.000 C 
ATOM     14  C   UNL     1      34.300 -22.381 -17.178  0.00  0.00    +0.000 C 
ATOM     15  C   UNL     1      36.562 -21.539 -17.094  0.00  0.00    +0.000 C 
ATOM     16  C   UNL     1      34.550 -23.165 -16.051  0.00  0.00    +0.000 C 
ATOM     17  C   UNL     1      36.812 -22.321 -15.967  0.00  0.00    +0.000 C 
ATOM     18  C   UNL     1      35.806 -23.135 -15.446  0.00  0.00    +0.000 C 
ENDBRANCH  10  13
ENDBRANCH   3   7
BRANCH   1  19
ATOM     19  C   UNL     1      34.474 -14.739 -23.318  0.00  0.00    +0.077 C 
BRANCH  19  20
ATOM     20  C   UNL     1      33.292 -13.867 -22.824  0.00  0.00    +0.279 C 
BRANCH  20  21
ATOM     21  P   UNL     1      32.929 -12.446 -23.910  0.00  0.00    +0.372 P 
ATOM     22  O   UNL     1      32.775 -12.771 -25.367  0.00  0.00    -0.255 OA
BRANCH  21  23
ATOM     23  O   UNL     1      34.108 -11.398 -23.558  0.00  0.00    -0.322 OA
ATOM     24  H   UNL     1      34.529 -11.098 -24.379  0.00  0.00    +0.220 HD
ENDBRANCH  21  23
BRANCH  21  25
ATOM     25  O   UNL     1      31.625 -11.769 -23.236  0.00  0.00    -0.322 OA
ATOM     26  H   UNL     1      31.582 -12.015 -22.299  0.00  0.00    +0.220 HD
ENDBRANCH  21  25
ENDBRANCH  20  21
BRANCH  20  27
ATOM     27  P   UNL     1      33.508 -13.637 -21.001  0.00  0.00    +0.372 P 
ATOM     28  O   UNL     1      34.106 -14.815 -20.288  0.00  0.00    -0.255 OA
BRANCH  27  29
ATOM     29  O   UNL     1      34.363 -12.269 -20.908  0.00  0.00    -0.322 OA
ATOM     30  H   UNL     1      34.373 -11.835 -21.775  0.00  0.00    +0.220 HD
ENDBRANCH  27  29
BRANCH  27  31
ATOM     31  O   UNL     1      32.042 -13.198 -20.485  0.00  0.00    -0.322 OA
ATOM     32  H   UNL     1      31.712 -13.854 -19.850  0.00  0.00    +0.220 HD
ENDBRANCH  27  31
ENDBRANCH  20  27
BRANCH  20  33
ATOM     33  O   UNL     1      32.088 -14.634 -22.859  0.00  0.00    -0.366 OA
ATOM     34  H   UNL     1      31.569 -14.387 -23.641  0.00  0.00    +0.212 HD
ENDBRANCH  20  33
ENDBRANCH  19  20
ENDBRANCH   1  19
TORSDOF 11
ENDMDL
