MODEL 1
REMARK VINA RESULT:     -12.7      0.000      0.000
REMARK  Name = 90753074
REMARK  11 active torsions:
REMARK  status: ('A' for Active; 'I' for Inactive)
REMARK    1  A    between atoms: C_3  and  C_9
REMARK    2  A    between atoms: C_6  and  C_25
REMARK    3  A    between atoms: N_8  and  C_11
REMARK    4  A    between atoms: C_11  and  C_12
REMARK    5  A    between atoms: C_17  and  C_20
REMARK    6  A    between atoms: N_19  and  C_20
REMARK    7  A    between atoms: N_19  and  O_23
REMARK    8  A    between atoms: C_25  and  C_27
REMARK    9  A    between atoms: C_25  and  O_37
REMARK   10  A    between atoms: C_30  and  O_33
REMARK   11  A    between atoms: O_33  and  C_36
REMARK                            x       y       z     vdW  Elec       q    Type
REMARK                         _______ _______ _______ _____ _____    ______ ____
ROOT
ATOM      1  O   UNL     1      35.251 -17.134 -20.393  0.00  0.00    -0.272 OA
ATOM      2  N   UNL     1      34.507 -16.655 -22.515  0.00  0.00    -0.271 N 
ATOM      3  C   UNL     1      34.520 -15.199 -22.602  0.00  0.00    +0.154 C 
ATOM      4  C   UNL     1      33.779 -15.369 -23.940  0.00  0.00    +0.051 C 
ATOM      5  C   UNL     1      34.064 -16.871 -23.877  0.00  0.00    +0.096 C 
ATOM      6  C   UNL     1      34.899 -17.500 -21.514  0.00  0.00    +0.257 C 
ENDROOT
BRANCH   3   9
ATOM      7  O   UNL     1      34.167 -14.551 -20.284  0.00  0.00    -0.273 OA
ATOM      8  N   UNL     1      32.700 -13.745 -21.882  0.00  0.00    -0.299 N 
ATOM      9  C   UNL     1      33.797 -14.481 -21.459  0.00  0.00    +0.241 C 
ATOM     10  H   UNL     1      32.475 -13.745 -22.840  0.00  0.00    +0.150 HD
BRANCH   8  11
ATOM     11  C   UNL     1      31.869 -12.976 -20.982  0.00  0.00    +0.116 C 
BRANCH  11  12
ATOM     12  C   UNL     1      31.720 -11.552 -21.433  0.00  0.00    -0.003 C 
ATOM     13  C   UNL     1      31.138 -10.609 -20.586  0.00  0.00    -0.003 C 
ATOM     14  C   UNL     1      32.164 -11.171 -22.700  0.00  0.00    -0.003 C 
ATOM     15  C   UNL     1      31.000  -9.286 -21.005  0.00  0.00    +0.003 C 
ATOM     16  C   UNL     1      32.026  -9.849 -23.118  0.00  0.00    +0.003 C 
ATOM     17  C   UNL     1      31.443  -8.905 -22.271  0.00  0.00    +0.036 C 
BRANCH  17  19
ATOM     18  N   UNL     1      31.541  -7.193 -24.047  0.00  0.00    -0.381 N 
ATOM     19  C   UNL     1      31.301  -7.526 -22.708  0.00  0.00    +0.160 C 
ATOM     20  H   UNL     1      31.445  -6.261 -24.347  0.00  0.00    +0.157 HD
ATOM     21  H   UNL     1      31.805  -7.892 -24.688  0.00  0.00    +0.157 HD
BRANCH  19  22
ATOM     22  N   UNL     1      30.938  -6.616 -21.816  0.00  0.00    -0.114 NA
BRANCH  22  23
ATOM     23  O   UNL     1      32.017  -5.825 -21.397  0.00  0.00    -0.232 OA
ATOM     24  C   UNL     1      32.089  -5.891 -19.980  0.00  0.00    +0.211 C 
ENDBRANCH  22  23
ENDBRANCH  19  22
ENDBRANCH  17  19
ENDBRANCH  11  12
ENDBRANCH   8  11
ENDBRANCH   3   9
BRANCH   6  25
ATOM     25  C   UNL     1      34.871 -18.959 -21.888  0.00  0.00    +0.210 C 
BRANCH  25  27
ATOM     26 CL   UNL     1      31.498 -21.234 -18.635  0.00  0.00    -0.082 Cl
ATOM     27  C   UNL     1      34.632 -19.821 -20.681  0.00  0.00    +0.017 C 
ATOM     28  C   UNL     1      35.713 -20.349 -19.975  0.00  0.00    +0.036 C 
ATOM     29  C   UNL     1      33.329 -20.096 -20.267  0.00  0.00    +0.010 C 
ATOM     30  C   UNL     1      35.491 -21.149 -18.855  0.00  0.00    +0.145 C 
ATOM     31  C   UNL     1      33.106 -20.896 -19.146  0.00  0.00    +0.060 C 
ATOM     32  C   UNL     1      34.188 -21.424 -18.440  0.00  0.00    +0.048 C 
BRANCH  30  33
ATOM     33  O   UNL     1      36.546 -21.664 -18.166  0.00  0.00    -0.424 OA
BRANCH  33  36
ATOM     34  F   UNL     1      37.676 -22.004 -16.258  0.00  0.00    -0.155 F 
ATOM     35  F   UNL     1      37.300 -19.956 -16.885  0.00  0.00    -0.155 F 
ATOM     36  C   UNL     1      36.753 -21.195 -16.839  0.00  0.00    +0.509 C 
ENDBRANCH  33  36
ENDBRANCH  30  33
ENDBRANCH  25  27
BRANCH  25  37
ATOM     37  O   UNL     1      33.838 -19.129 -22.840  0.00  0.00    -0.372 OA
ATOM     38  H   UNL     1      33.407 -18.276 -23.006  0.00  0.00    +0.211 HD
ENDBRANCH  25  37
ENDBRANCH   6  25
TORSDOF 11
ENDMDL
MODEL 2
REMARK VINA RESULT:     -12.1      2.155      2.606
REMARK  Name = 90753074
REMARK  11 active torsions:
REMARK  status: ('A' for Active; 'I' for Inactive)
REMARK    1  A    between atoms: C_3  and  C_9
REMARK    2  A    between atoms: C_6  and  C_25
REMARK    3  A    between atoms: N_8  and  C_11
REMARK    4  A    between atoms: C_11  and  C_12
REMARK    5  A    between atoms: C_17  and  C_20
REMARK    6  A    between atoms: N_19  and  C_20
REMARK    7  A    between atoms: N_19  and  O_23
REMARK    8  A    between atoms: C_25  and  C_27
REMARK    9  A    between atoms: C_25  and  O_37
REMARK   10  A    between atoms: C_30  and  O_33
REMARK   11  A    between atoms: O_33  and  C_36
REMARK                            x       y       z     vdW  Elec       q    Type
REMARK                         _______ _______ _______ _____ _____    ______ ____
ROOT
ATOM      1  O   UNL     1      35.121 -17.242 -20.308  0.00  0.00    -0.272 OA
ATOM      2  N   UNL     1      34.449 -16.757 -22.453  0.00  0.00    -0.271 N 
ATOM      3  C   UNL     1      34.536 -15.306 -22.559  0.00  0.00    +0.154 C 
ATOM      4  C   UNL     1      33.818 -15.459 -23.911  0.00  0.00    +0.051 C 
ATOM      5  C   UNL     1      34.028 -16.972 -23.822  0.00  0.00    +0.096 C 
ATOM      6  C   UNL     1      34.777 -17.607 -21.432  0.00  0.00    +0.257 C 
ENDROOT
BRANCH   3   9
ATOM      7  O   UNL     1      34.194 -14.566 -20.266  0.00  0.00    -0.273 OA
ATOM      8  N   UNL     1      32.732 -13.807 -21.891  0.00  0.00    -0.299 N 
ATOM      9  C   UNL     1      33.822 -14.537 -21.443  0.00  0.00    +0.241 C 
ATOM     10  H   UNL     1      32.505 -13.841 -22.849  0.00  0.00    +0.150 HD
BRANCH   8  11
ATOM     11  C   UNL     1      31.910 -12.996 -21.020  0.00  0.00    +0.116 C 
BRANCH  11  12
ATOM     12  C   UNL     1      31.792 -11.583 -21.514  0.00  0.00    -0.003 C 
ATOM     13  C   UNL     1      32.363 -11.220 -22.733  0.00  0.00    -0.003 C 
ATOM     14  C   UNL     1      31.113 -10.632 -20.751  0.00  0.00    -0.003 C 
ATOM     15  C   UNL     1      32.253  -9.907 -23.192  0.00  0.00    +0.003 C 
ATOM     16  C   UNL     1      31.004  -9.320 -21.209  0.00  0.00    +0.003 C 
ATOM     17  C   UNL     1      31.574  -8.957 -22.430  0.00  0.00    +0.036 C 
BRANCH  17  19
ATOM     18  N   UNL     1      32.322  -7.127 -23.909  0.00  0.00    -0.381 N 
ATOM     19  C   UNL     1      31.459  -7.589 -22.908  0.00  0.00    +0.160 C 
ATOM     20  H   UNL     1      32.247  -6.202 -24.236  0.00  0.00    +0.157 HD
ATOM     21  H   UNL     1      33.004  -7.728 -24.286  0.00  0.00    +0.157 HD
BRANCH  19  22
ATOM     22  N   UNL     1      30.524  -6.813 -22.378  0.00  0.00    -0.114 NA
BRANCH  22  23
ATOM     23  O   UNL     1      31.027  -5.559 -22.003  0.00  0.00    -0.232 OA
ATOM     24  C   UNL     1      29.925  -4.697 -21.761  0.00  0.00    +0.211 C 
ENDBRANCH  22  23
ENDBRANCH  19  22
ENDBRANCH  17  19
ENDBRANCH  11  12
ENDBRANCH   8  11
ENDBRANCH   3   9
BRANCH   6  25
ATOM     25  C   UNL     1      34.687 -19.067 -21.787  0.00  0.00    +0.210 C 
BRANCH  25  27
ATOM     26 CL   UNL     1      36.850 -21.490 -17.714  0.00  0.00    -0.082 Cl
ATOM     27  C   UNL     1      34.518 -19.913 -20.557  0.00  0.00    +0.017 C 
ATOM     28  C   UNL     1      33.248 -20.343 -20.174  0.00  0.00    +0.036 C 
ATOM     29  C   UNL     1      35.632 -20.267 -19.795  0.00  0.00    +0.010 C 
ATOM     30  C   UNL     1      33.091 -21.128 -19.032  0.00  0.00    +0.145 C 
ATOM     31  C   UNL     1      35.476 -21.052 -18.653  0.00  0.00    +0.060 C 
ATOM     32  C   UNL     1      34.205 -21.482 -18.271  0.00  0.00    +0.048 C 
BRANCH  30  33
ATOM     33  O   UNL     1      31.851 -21.547 -18.659  0.00  0.00    -0.424 OA
BRANCH  33  36
ATOM     34  F   UNL     1      30.375 -21.934 -17.014  0.00  0.00    -0.155 F 
ATOM     35  F   UNL     1      32.016 -23.336 -17.280  0.00  0.00    -0.155 F 
ATOM     36  C   UNL     1      31.694 -22.020 -17.326  0.00  0.00    +0.509 C 
ENDBRANCH  33  36
ENDBRANCH  30  33
ENDBRANCH  25  27
BRANCH  25  37
ATOM     37  O   UNL     1      33.583 -19.220 -22.658  0.00  0.00    -0.372 OA
ATOM     38  H   UNL     1      32.788 -18.854 -22.241  0.00  0.00    +0.211 HD
ENDBRANCH  25  37
ENDBRANCH   6  25
TORSDOF 11
ENDMDL
MODEL 3
REMARK VINA RESULT:     -11.8      4.965      8.101
REMARK  Name = 90753074
REMARK  11 active torsions:
REMARK  status: ('A' for Active; 'I' for Inactive)
REMARK    1  A    between atoms: C_3  and  C_9
REMARK    2  A    between atoms: C_6  and  C_25
REMARK    3  A    between atoms: N_8  and  C_11
REMARK    4  A    between atoms: C_11  and  C_12
REMARK    5  A    between atoms: C_17  and  C_20
REMARK    6  A    between atoms: N_19  and  C_20
REMARK    7  A    between atoms: N_19  and  O_23
REMARK    8  A    between atoms: C_25  and  C_27
REMARK    9  A    between atoms: C_25  and  O_37
REMARK   10  A    between atoms: C_30  and  O_33
REMARK   11  A    between atoms: O_33  and  C_36
REMARK                            x       y       z     vdW  Elec       q    Type
REMARK                         _______ _______ _______ _____ _____    ______ ____
ROOT
ATOM      1  O   UNL     1      36.321 -22.469 -15.980  0.00  0.00    -0.272 OA
ATOM      2  N   UNL     1      34.316 -22.485 -17.105  0.00  0.00    -0.271 N 
ATOM      3  C   UNL     1      34.658 -22.195 -18.493  0.00  0.00    +0.154 C 
ATOM      4  C   UNL     1      33.144 -22.069 -18.738  0.00  0.00    +0.051 C 
ATOM      5  C   UNL     1      32.896 -22.647 -17.343  0.00  0.00    +0.096 C 
ATOM      6  C   UNL     1      35.105 -22.657 -16.001  0.00  0.00    +0.257 C 
ENDROOT
BRANCH   3   9
ATOM      7  O   UNL     1      36.367 -20.581 -17.866  0.00  0.00    -0.273 OA
ATOM      8  N   UNL     1      35.287 -20.300 -19.893  0.00  0.00    -0.299 N 
ATOM      9  C   UNL     1      35.530 -20.952 -18.693  0.00  0.00    +0.241 C 
ATOM     10  H   UNL     1      34.599 -20.665 -20.495  0.00  0.00    +0.150 HD
BRANCH   8  11
ATOM     11  C   UNL     1      35.996 -19.108 -20.303  0.00  0.00    +0.116 C 
BRANCH  11  12
ATOM     12  C   UNL     1      35.312 -18.413 -21.445  0.00  0.00    -0.003 C 
ATOM     13  C   UNL     1      35.222 -17.021 -21.460  0.00  0.00    -0.003 C 
ATOM     14  C   UNL     1      34.766 -19.159 -22.489  0.00  0.00    -0.003 C 
ATOM     15  C   UNL     1      34.586 -16.375 -22.521  0.00  0.00    +0.003 C 
ATOM     16  C   UNL     1      34.131 -18.513 -23.549  0.00  0.00    +0.003 C 
ATOM     17  C   UNL     1      34.041 -17.120 -23.565  0.00  0.00    +0.036 C 
BRANCH  17  19
ATOM     18  N   UNL     1      32.136 -16.909 -25.121  0.00  0.00    -0.381 N 
ATOM     19  C   UNL     1      33.380 -16.448 -24.672  0.00  0.00    +0.160 C 
ATOM     20  H   UNL     1      31.684 -16.456 -25.869  0.00  0.00    +0.157 HD
ATOM     21  H   UNL     1      31.713 -17.686 -24.688  0.00  0.00    +0.157 HD
BRANCH  19  22
ATOM     22  N   UNL     1      33.979 -15.403 -25.223  0.00  0.00    -0.114 NA
BRANCH  22  23
ATOM     23  O   UNL     1      33.076 -14.573 -25.904  0.00  0.00    -0.232 OA
ATOM     24  C   UNL     1      32.769 -13.472 -25.063  0.00  0.00    +0.211 C 
ENDBRANCH  22  23
ENDBRANCH  19  22
ENDBRANCH  17  19
ENDBRANCH  11  12
ENDBRANCH   8  11
ENDBRANCH   3   9
BRANCH   6  25
ATOM     25  C   UNL     1      34.361 -23.108 -14.772  0.00  0.00    +0.210 C 
BRANCH  25  27
ATOM     26 CL   UNL     1      35.732 -23.800  -9.794  0.00  0.00    -0.082 Cl
ATOM     27  C   UNL     1      35.297 -23.724 -13.770  0.00  0.00    +0.017 C 
ATOM     28  C   UNL     1      36.358 -24.519 -14.203  0.00  0.00    +0.036 C 
ATOM     29  C   UNL     1      35.103 -23.502 -12.407  0.00  0.00    +0.010 C 
ATOM     30  C   UNL     1      37.226 -25.090 -13.273  0.00  0.00    +0.145 C 
ATOM     31  C   UNL     1      35.971 -24.074 -11.476  0.00  0.00    +0.060 C 
ATOM     32  C   UNL     1      37.033 -24.869 -11.910  0.00  0.00    +0.048 C 
BRANCH  30  33
ATOM     33  O   UNL     1      38.262 -25.866 -13.696  0.00  0.00    -0.424 OA
BRANCH  33  36
ATOM     34  F   UNL     1      40.423 -26.193 -14.201  0.00  0.00    -0.155 F 
ATOM     35  F   UNL     1      39.437 -24.418 -14.982  0.00  0.00    -0.155 F 
ATOM     36  C   UNL     1      39.518 -25.228 -13.897  0.00  0.00    +0.509 C 
ENDBRANCH  33  36
ENDBRANCH  30  33
ENDBRANCH  25  27
BRANCH  25  37
ATOM     37  O   UNL     1      33.721 -21.970 -14.228  0.00  0.00    -0.372 OA
ATOM     38  H   UNL     1      34.316 -21.206 -14.282  0.00  0.00    +0.211 HD
ENDBRANCH  25  37
ENDBRANCH   6  25
TORSDOF 11
ENDMDL
MODEL 4
REMARK VINA RESULT:     -11.8      5.471      9.561
REMARK  Name = 90753074
REMARK  11 active torsions:
REMARK  status: ('A' for Active; 'I' for Inactive)
REMARK    1  A    between atoms: C_3  and  C_9
REMARK    2  A    between atoms: C_6  and  C_25
REMARK    3  A    between atoms: N_8  and  C_11
REMARK    4  A    between atoms: C_11  and  C_12
REMARK    5  A    between atoms: C_17  and  C_20
REMARK    6  A    between atoms: N_19  and  C_20
REMARK    7  A    between atoms: N_19  and  O_23
REMARK    8  A    between atoms: C_25  and  C_27
REMARK    9  A    between atoms: C_25  and  O_37
REMARK   10  A    between atoms: C_30  and  O_33
REMARK   11  A    between atoms: O_33  and  C_36
REMARK                            x       y       z     vdW  Elec       q    Type
REMARK                         _______ _______ _______ _____ _____    ______ ____
ROOT
ATOM      1  O   UNL     1      35.353 -22.636 -16.958  0.00  0.00    -0.272 OA
ATOM      2  N   UNL     1      33.904 -22.650 -15.172  0.00  0.00    -0.271 N 
ATOM      3  C   UNL     1      32.702 -23.313 -15.665  0.00  0.00    +0.154 C 
ATOM      4  C   UNL     1      32.039 -22.879 -14.346  0.00  0.00    +0.051 C 
ATOM      5  C   UNL     1      33.416 -22.463 -13.822  0.00  0.00    +0.096 C 
ATOM      6  C   UNL     1      35.110 -22.411 -15.773  0.00  0.00    +0.257 C 
ENDROOT
BRANCH   3   9
ATOM      7  O   UNL     1      31.096 -22.100 -17.033  0.00  0.00    -0.273 OA
ATOM      8  N   UNL     1      32.945 -23.023 -18.074  0.00  0.00    -0.299 N 
ATOM      9  C   UNL     1      32.147 -22.745 -16.974  0.00  0.00    +0.241 C 
ATOM     10  H   UNL     1      33.768 -23.546 -17.937  0.00  0.00    +0.150 HD
BRANCH   8  11
ATOM     11  C   UNL     1      32.628 -22.581 -19.414  0.00  0.00    +0.116 C 
BRANCH  11  12
ATOM     12  C   UNL     1      33.459 -21.402 -19.829  0.00  0.00    -0.003 C 
ATOM     13  C   UNL     1      32.843 -20.264 -20.350  0.00  0.00    -0.003 C 
ATOM     14  C   UNL     1      34.847 -21.444 -19.695  0.00  0.00    -0.003 C 
ATOM     15  C   UNL     1      33.614 -19.168 -20.736  0.00  0.00    +0.003 C 
ATOM     16  C   UNL     1      35.618 -20.349 -20.080  0.00  0.00    +0.003 C 
ATOM     17  C   UNL     1      35.002 -19.209 -20.601  0.00  0.00    +0.036 C 
BRANCH  17  19
ATOM     18  N   UNL     1      37.120 -18.265 -21.447  0.00  0.00    -0.381 N 
ATOM     19  C   UNL     1      35.807 -18.067 -21.002  0.00  0.00    +0.160 C 
ATOM     20  H   UNL     1      37.668 -17.495 -21.720  0.00  0.00    +0.157 HD
ATOM     21  H   UNL     1      37.494 -19.175 -21.488  0.00  0.00    +0.157 HD
BRANCH  19  22
ATOM     22  N   UNL     1      35.265 -16.860 -20.938  0.00  0.00    -0.114 NA
BRANCH  22  23
ATOM     23  O   UNL     1      34.941 -16.356 -22.206  0.00  0.00    -0.232 OA
ATOM     24  C   UNL     1      34.218 -15.148 -22.029  0.00  0.00    +0.211 C 
ENDBRANCH  22  23
ENDBRANCH  19  22
ENDBRANCH  17  19
ENDBRANCH  11  12
ENDBRANCH   8  11
ENDBRANCH   3   9
BRANCH   6  25
ATOM     25  C   UNL     1      36.155 -21.834 -14.855  0.00  0.00    +0.210 C 
BRANCH  25  27
ATOM     26 CL   UNL     1      39.909 -25.443 -14.695  0.00  0.00    -0.082 Cl
ATOM     27  C   UNL     1      36.863 -22.919 -14.094  0.00  0.00    +0.017 C 
ATOM     28  C   UNL     1      36.453 -23.248 -12.802  0.00  0.00    +0.036 C 
ATOM     29  C   UNL     1      37.932 -23.597 -14.679  0.00  0.00    +0.010 C 
ATOM     30  C   UNL     1      37.110 -24.256 -12.096  0.00  0.00    +0.145 C 
ATOM     31  C   UNL     1      38.590 -24.606 -13.973  0.00  0.00    +0.060 C 
ATOM     32  C   UNL     1      38.179 -24.934 -12.681  0.00  0.00    +0.048 C 
BRANCH  30  33
ATOM     33  O   UNL     1      36.709 -24.576 -10.836  0.00  0.00    -0.424 OA
BRANCH  33  36
ATOM     34  F   UNL     1      34.974 -24.651  -9.415  0.00  0.00    -0.155 F 
ATOM     35  F   UNL     1      36.112 -22.804  -9.559  0.00  0.00    -0.155 F 
ATOM     36  C   UNL     1      35.623 -23.838 -10.287  0.00  0.00    +0.509 C 
ENDBRANCH  33  36
ENDBRANCH  30  33
ENDBRANCH  25  27
BRANCH  25  37
ATOM     37  O   UNL     1      37.065 -21.108 -15.658  0.00  0.00    -0.372 OA
ATOM     38  H   UNL     1      37.938 -21.531 -15.624  0.00  0.00    +0.211 HD
ENDBRANCH  25  37
ENDBRANCH   6  25
TORSDOF 11
ENDMDL
MODEL 5
REMARK VINA RESULT:     -11.7      5.342      9.520
REMARK  Name = 90753074
REMARK  11 active torsions:
REMARK  status: ('A' for Active; 'I' for Inactive)
REMARK    1  A    between atoms: C_3  and  C_9
REMARK    2  A    between atoms: C_6  and  C_25
REMARK    3  A    between atoms: N_8  and  C_11
REMARK    4  A    between atoms: C_11  and  C_12
REMARK    5  A    between atoms: C_17  and  C_20
REMARK    6  A    between atoms: N_19  and  C_20
REMARK    7  A    between atoms: N_19  and  O_23
REMARK    8  A    between atoms: C_25  and  C_27
REMARK    9  A    between atoms: C_25  and  O_37
REMARK   10  A    between atoms: C_30  and  O_33
REMARK   11  A    between atoms: O_33  and  C_36
REMARK                            x       y       z     vdW  Elec       q    Type
REMARK                         _______ _______ _______ _____ _____    ______ ____
ROOT
ATOM      1  O   UNL     1      35.352 -22.770 -16.703  0.00  0.00    -0.272 OA
ATOM      2  N   UNL     1      33.756 -22.580 -15.058  0.00  0.00    -0.271 N 
ATOM      3  C   UNL     1      32.565 -23.213 -15.612  0.00  0.00    +0.154 C 
ATOM      4  C   UNL     1      31.817 -22.652 -14.389  0.00  0.00    +0.051 C 
ATOM      5  C   UNL     1      33.165 -22.271 -13.772  0.00  0.00    +0.096 C 
ATOM      6  C   UNL     1      35.021 -22.448 -15.562  0.00  0.00    +0.257 C 
ENDROOT
BRANCH   3   9
ATOM      7  O   UNL     1      31.195 -21.965 -17.188  0.00  0.00    -0.273 OA
ATOM      8  N   UNL     1      32.984 -23.177 -18.014  0.00  0.00    -0.299 N 
ATOM      9  C   UNL     1      32.159 -22.713 -17.001  0.00  0.00    +0.241 C 
ATOM     10  H   UNL     1      33.731 -23.773 -17.775  0.00  0.00    +0.150 HD
BRANCH   8  11
ATOM     11  C   UNL     1      32.801 -22.831 -19.406  0.00  0.00    +0.116 C 
BRANCH  11  12
ATOM     12  C   UNL     1      33.578 -21.605 -19.787  0.00  0.00    -0.003 C 
ATOM     13  C   UNL     1      32.918 -20.499 -20.323  0.00  0.00    -0.003 C 
ATOM     14  C   UNL     1      34.961 -21.571 -19.606  0.00  0.00    -0.003 C 
ATOM     15  C   UNL     1      33.641 -19.360 -20.677  0.00  0.00    +0.003 C 
ATOM     16  C   UNL     1      35.683 -20.432 -19.960  0.00  0.00    +0.003 C 
ATOM     17  C   UNL     1      35.023 -19.326 -20.496  0.00  0.00    +0.036 C 
BRANCH  17  19
ATOM     18  N   UNL     1      37.096 -18.265 -21.318  0.00  0.00    -0.381 N 
ATOM     19  C   UNL     1      35.777 -18.138 -20.863  0.00  0.00    +0.160 C 
ATOM     20  H   UNL     1      37.609 -17.464 -21.568  0.00  0.00    +0.157 HD
ATOM     21  H   UNL     1      37.509 -19.156 -21.387  0.00  0.00    +0.157 HD
BRANCH  19  22
ATOM     22  N   UNL     1      35.183 -16.958 -20.762  0.00  0.00    -0.114 NA
BRANCH  22  23
ATOM     23  O   UNL     1      34.940 -16.377 -22.015  0.00  0.00    -0.232 OA
ATOM     24  C   UNL     1      34.186 -15.192 -21.813  0.00  0.00    +0.211 C 
ENDBRANCH  22  23
ENDBRANCH  19  22
ENDBRANCH  17  19
ENDBRANCH  11  12
ENDBRANCH   8  11
ENDBRANCH   3   9
BRANCH   6  25
ATOM     25  C   UNL     1      36.015 -21.862 -14.594  0.00  0.00    +0.210 C 
BRANCH  25  27
ATOM     26 CL   UNL     1      35.799 -23.813  -9.769  0.00  0.00    -0.082 Cl
ATOM     27  C   UNL     1      36.475 -22.893 -13.603  0.00  0.00    +0.017 C 
ATOM     28  C   UNL     1      37.396 -23.869 -13.987  0.00  0.00    +0.036 C 
ATOM     29  C   UNL     1      35.981 -22.877 -12.299  0.00  0.00    +0.010 C 
ATOM     30  C   UNL     1      37.824 -24.825 -13.067  0.00  0.00    +0.145 C 
ATOM     31  C   UNL     1      36.409 -23.834 -11.378  0.00  0.00    +0.060 C 
ATOM     32  C   UNL     1      37.329 -24.809 -11.763  0.00  0.00    +0.048 C 
BRANCH  30  33
ATOM     33  O   UNL     1      38.722 -25.776 -13.442  0.00  0.00    -0.424 OA
BRANCH  33  36
ATOM     34  F   UNL     1      40.892 -26.244 -13.770  0.00  0.00    -0.155 F 
ATOM     35  F   UNL     1      39.769 -25.348 -15.403  0.00  0.00    -0.155 F 
ATOM     36  C   UNL     1      39.926 -25.333 -14.057  0.00  0.00    +0.509 C 
ENDBRANCH  33  36
ENDBRANCH  30  33
ENDBRANCH  25  27
BRANCH  25  37
ATOM     37  O   UNL     1      37.103 -21.374 -15.354  0.00  0.00    -0.372 OA
ATOM     38  H   UNL     1      37.765 -20.985 -14.760  0.00  0.00    +0.211 HD
ENDBRANCH  25  37
ENDBRANCH   6  25
TORSDOF 11
ENDMDL
MODEL 6
REMARK VINA RESULT:     -11.6      7.533     11.540
REMARK  Name = 90753074
REMARK  11 active torsions:
REMARK  status: ('A' for Active; 'I' for Inactive)
REMARK    1  A    between atoms: C_3  and  C_9
REMARK    2  A    between atoms: C_6  and  C_25
REMARK    3  A    between atoms: N_8  and  C_11
REMARK    4  A    between atoms: C_11  and  C_12
REMARK    5  A    between atoms: C_17  and  C_20
REMARK    6  A    between atoms: N_19  and  C_20
REMARK    7  A    between atoms: N_19  and  O_23
REMARK    8  A    between atoms: C_25  and  C_27
REMARK    9  A    between atoms: C_25  and  O_37
REMARK   10  A    between atoms: C_30  and  O_33
REMARK   11  A    between atoms: O_33  and  C_36
REMARK                            x       y       z     vdW  Elec       q    Type
REMARK                         _______ _______ _______ _____ _____    ______ ____
ROOT
ATOM      1  O   UNL     1      34.563 -22.488 -16.047  0.00  0.00    -0.272 OA
ATOM      2  N   UNL     1      36.494 -23.333 -15.127  0.00  0.00    -0.271 N 
ATOM      3  C   UNL     1      36.053 -24.389 -14.223  0.00  0.00    +0.154 C 
ATOM      4  C   UNL     1      37.508 -24.440 -13.727  0.00  0.00    +0.051 C 
ATOM      5  C   UNL     1      37.909 -23.532 -14.892  0.00  0.00    +0.096 C 
ATOM      6  C   UNL     1      35.791 -22.528 -15.981  0.00  0.00    +0.257 C 
ENDROOT
BRANCH   3   9
ATOM      7  O   UNL     1      35.211 -23.395 -12.169  0.00  0.00    -0.273 OA
ATOM      8  N   UNL     1      33.683 -24.300 -13.652  0.00  0.00    -0.299 N 
ATOM      9  C   UNL     1      34.964 -23.972 -13.231  0.00  0.00    +0.241 C 
ATOM     10  H   UNL     1      33.577 -24.761 -14.515  0.00  0.00    +0.150 HD
BRANCH   8  11
ATOM     11  C   UNL     1      32.496 -23.997 -12.884  0.00  0.00    +0.116 C 
BRANCH  11  12
ATOM     12  C   UNL     1      31.318 -23.698 -13.766  0.00  0.00    -0.003 C 
ATOM     13  C   UNL     1      31.386 -22.659 -14.693  0.00  0.00    -0.003 C 
ATOM     14  C   UNL     1      30.154 -24.460 -13.657  0.00  0.00    -0.003 C 
ATOM     15  C   UNL     1      30.292 -22.381 -15.512  0.00  0.00    +0.003 C 
ATOM     16  C   UNL     1      29.060 -24.183 -14.475  0.00  0.00    +0.003 C 
ATOM     17  C   UNL     1      29.128 -23.142 -15.403  0.00  0.00    +0.036 C 
BRANCH  17  19
ATOM     18  N   UNL     1      27.420 -23.878 -17.027  0.00  0.00    -0.381 N 
ATOM     19  C   UNL     1      27.988 -22.855 -16.257  0.00  0.00    +0.160 C 
ATOM     20  H   UNL     1      26.648 -23.688 -17.606  0.00  0.00    +0.157 HD
ATOM     21  H   UNL     1      27.795 -24.788 -16.989  0.00  0.00    +0.157 HD
BRANCH  19  22
ATOM     22  N   UNL     1      27.510 -21.619 -16.276  0.00  0.00    -0.114 NA
BRANCH  22  23
ATOM     23  O   UNL     1      26.109 -21.591 -16.217  0.00  0.00    -0.232 OA
ATOM     24  C   UNL     1      25.634 -20.874 -17.346  0.00  0.00    +0.211 C 
ENDBRANCH  22  23
ENDBRANCH  19  22
ENDBRANCH  17  19
ENDBRANCH  11  12
ENDBRANCH   8  11
ENDBRANCH   3   9
BRANCH   6  25
ATOM     25  C   UNL     1      36.651 -21.665 -16.867  0.00  0.00    +0.210 C 
BRANCH  25  27
ATOM     26 CL   UNL     1      32.245 -21.688 -19.646  0.00  0.00    -0.082 Cl
ATOM     27  C   UNL     1      35.866 -21.140 -18.035  0.00  0.00    +0.017 C 
ATOM     28  C   UNL     1      36.430 -20.187 -18.884  0.00  0.00    +0.036 C 
ATOM     29  C   UNL     1      34.572 -21.603 -18.270  0.00  0.00    +0.010 C 
ATOM     30  C   UNL     1      35.701 -19.700 -19.968  0.00  0.00    +0.145 C 
ATOM     31  C   UNL     1      33.842 -21.116 -19.355  0.00  0.00    +0.060 C 
ATOM     32  C   UNL     1      34.407 -20.163 -20.204  0.00  0.00    +0.048 C 
BRANCH  30  33
ATOM     33  O   UNL     1      36.252 -18.770 -20.796  0.00  0.00    -0.424 OA
BRANCH  33  36
ATOM     34  F   UNL     1      35.218 -16.787 -20.974  0.00  0.00    -0.155 F 
ATOM     35  F   UNL     1      35.937 -17.744 -22.790  0.00  0.00    -0.155 F 
ATOM     36  C   UNL     1      35.363 -17.990 -21.587  0.00  0.00    +0.509 C 
ENDBRANCH  33  36
ENDBRANCH  30  33
ENDBRANCH  25  27
BRANCH  25  37
ATOM     37  O   UNL     1      37.141 -20.603 -16.071  0.00  0.00    -0.372 OA
ATOM     38  H   UNL     1      37.945 -20.887 -15.610  0.00  0.00    +0.211 HD
ENDBRANCH  25  37
ENDBRANCH   6  25
TORSDOF 11
ENDMDL
MODEL 7
REMARK VINA RESULT:     -11.4      3.820      5.543
REMARK  Name = 90753074
REMARK  11 active torsions:
REMARK  status: ('A' for Active; 'I' for Inactive)
REMARK    1  A    between atoms: C_3  and  C_9
REMARK    2  A    between atoms: C_6  and  C_25
REMARK    3  A    between atoms: N_8  and  C_11
REMARK    4  A    between atoms: C_11  and  C_12
REMARK    5  A    between atoms: C_17  and  C_20
REMARK    6  A    between atoms: N_19  and  C_20
REMARK    7  A    between atoms: N_19  and  O_23
REMARK    8  A    between atoms: C_25  and  C_27
REMARK    9  A    between atoms: C_25  and  O_37
REMARK   10  A    between atoms: C_30  and  O_33
REMARK   11  A    between atoms: O_33  and  C_36
REMARK                            x       y       z     vdW  Elec       q    Type
REMARK                         _______ _______ _______ _____ _____    ______ ____
ROOT
ATOM      1  O   UNL     1      32.412 -20.739 -19.756  0.00  0.00    -0.272 OA
ATOM      2  N   UNL     1      34.698 -20.486 -19.725  0.00  0.00    -0.271 N 
ATOM      3  C   UNL     1      34.936 -19.139 -20.229  0.00  0.00    +0.154 C 
ATOM      4  C   UNL     1      36.427 -19.520 -20.260  0.00  0.00    +0.051 C 
ATOM      5  C   UNL     1      36.092 -20.792 -19.479  0.00  0.00    +0.096 C 
ATOM      6  C   UNL     1      33.533 -21.159 -19.472  0.00  0.00    +0.257 C 
ENDROOT
BRANCH   3   9
ATOM      7  O   UNL     1      33.321 -19.498 -22.013  0.00  0.00    -0.273 OA
ATOM      8  N   UNL     1      34.751 -17.687 -22.180  0.00  0.00    -0.299 N 
ATOM      9  C   UNL     1      34.244 -18.817 -21.556  0.00  0.00    +0.241 C 
ATOM     10  H   UNL     1      35.490 -17.203 -21.745  0.00  0.00    +0.150 HD
BRANCH   8  11
ATOM     11  C   UNL     1      34.249 -17.185 -23.439  0.00  0.00    +0.116 C 
BRANCH  11  12
ATOM     12  C   UNL     1      33.924 -15.721 -23.371  0.00  0.00    -0.003 C 
ATOM     13  C   UNL     1      34.129 -15.016 -22.186  0.00  0.00    -0.003 C 
ATOM     14  C   UNL     1      33.414 -15.066 -24.493  0.00  0.00    -0.003 C 
ATOM     15  C   UNL     1      33.826 -13.655 -22.122  0.00  0.00    +0.003 C 
ATOM     16  C   UNL     1      33.112 -13.707 -24.429  0.00  0.00    +0.003 C 
ATOM     17  C   UNL     1      33.318 -13.001 -23.243  0.00  0.00    +0.036 C 
BRANCH  17  19
ATOM     18  N   UNL     1      33.863 -10.652 -23.775  0.00  0.00    -0.381 N 
ATOM     19  C   UNL     1      33.003 -11.583 -23.178  0.00  0.00    +0.160 C 
ATOM     20  H   UNL     1      33.654  -9.692 -23.735  0.00  0.00    +0.157 HD
ATOM     21  H   UNL     1      34.677 -10.960 -24.237  0.00  0.00    +0.157 HD
BRANCH  19  22
ATOM     22  N   UNL     1      31.896 -11.210 -22.553  0.00  0.00    -0.114 NA
BRANCH  22  23
ATOM     23  O   UNL     1      31.629  -9.844 -22.718  0.00  0.00    -0.232 OA
ATOM     24  C   UNL     1      30.784  -9.428 -21.656  0.00  0.00    +0.211 C 
ENDBRANCH  22  23
ENDBRANCH  19  22
ENDBRANCH  17  19
ENDBRANCH  11  12
ENDBRANCH   8  11
ENDBRANCH   3   9
BRANCH   6  25
ATOM     25  C   UNL     1      33.722 -22.492 -18.797  0.00  0.00    +0.210 C 
BRANCH  25  27
ATOM     26 CL   UNL     1      33.676 -23.232 -13.641  0.00  0.00    -0.082 Cl
ATOM     27  C   UNL     1      32.940 -22.564 -17.516  0.00  0.00    +0.017 C 
ATOM     28  C   UNL     1      31.560 -22.362 -17.528  0.00  0.00    +0.036 C 
ATOM     29  C   UNL     1      33.594 -22.833 -16.314  0.00  0.00    +0.010 C 
ATOM     30  C   UNL     1      30.834 -22.430 -16.339  0.00  0.00    +0.145 C 
ATOM     31  C   UNL     1      32.868 -22.901 -15.124  0.00  0.00    +0.060 C 
ATOM     32  C   UNL     1      31.488 -22.699 -15.137  0.00  0.00    +0.048 C 
BRANCH  30  33
ATOM     33  O   UNL     1      29.488 -22.233 -16.352  0.00  0.00    -0.424 OA
BRANCH  33  36
ATOM     34  F   UNL     1      27.753 -21.602 -15.076  0.00  0.00    -0.155 F 
ATOM     35  F   UNL     1      28.216 -23.723 -15.215  0.00  0.00    -0.155 F 
ATOM     36  C   UNL     1      28.777 -22.491 -15.146  0.00  0.00    +0.509 C 
ENDBRANCH  33  36
ENDBRANCH  30  33
ENDBRANCH  25  27
BRANCH  25  37
ATOM     37  O   UNL     1      33.293 -23.487 -19.706  0.00  0.00    -0.372 OA
ATOM     38  H   UNL     1      32.512 -23.937 -19.348  0.00  0.00    +0.211 HD
ENDBRANCH  25  37
ENDBRANCH   6  25
TORSDOF 11
ENDMDL
MODEL 8
REMARK VINA RESULT:     -11.2      2.819      4.860
REMARK  Name = 90753074
REMARK  11 active torsions:
REMARK  status: ('A' for Active; 'I' for Inactive)
REMARK    1  A    between atoms: C_3  and  C_9
REMARK    2  A    between atoms: C_6  and  C_25
REMARK    3  A    between atoms: N_8  and  C_11
REMARK    4  A    between atoms: C_11  and  C_12
REMARK    5  A    between atoms: C_17  and  C_20
REMARK    6  A    between atoms: N_19  and  C_20
REMARK    7  A    between atoms: N_19  and  O_23
REMARK    8  A    between atoms: C_25  and  C_27
REMARK    9  A    between atoms: C_25  and  O_37
REMARK   10  A    between atoms: C_30  and  O_33
REMARK   11  A    between atoms: O_33  and  C_36
REMARK                            x       y       z     vdW  Elec       q    Type
REMARK                         _______ _______ _______ _____ _____    ______ ____
ROOT
ATOM      1  O   UNL     1      32.446 -20.849 -19.710  0.00  0.00    -0.272 OA
ATOM      2  N   UNL     1      34.723 -20.528 -19.678  0.00  0.00    -0.271 N 
ATOM      3  C   UNL     1      34.919 -19.162 -20.150  0.00  0.00    +0.154 C 
ATOM      4  C   UNL     1      36.421 -19.496 -20.193  0.00  0.00    +0.051 C 
ATOM      5  C   UNL     1      36.126 -20.796 -19.442  0.00  0.00    +0.096 C 
ATOM      6  C   UNL     1      33.580 -21.241 -19.438  0.00  0.00    +0.257 C 
ENDROOT
BRANCH   3   9
ATOM      7  O   UNL     1      33.216 -19.439 -21.865  0.00  0.00    -0.273 OA
ATOM      8  N   UNL     1      34.801 -17.778 -22.154  0.00  0.00    -0.299 N 
ATOM      9  C   UNL     1      34.214 -18.830 -21.467  0.00  0.00    +0.241 C 
ATOM     10  H   UNL     1      35.597 -17.348 -21.764  0.00  0.00    +0.150 HD
BRANCH   8  11
ATOM     11  C   UNL     1      34.304 -17.281 -23.418  0.00  0.00    +0.116 C 
BRANCH  11  12
ATOM     12  C   UNL     1      33.949 -15.824 -23.348  0.00  0.00    -0.003 C 
ATOM     13  C   UNL     1      33.375 -15.193 -24.452  0.00  0.00    -0.003 C 
ATOM     14  C   UNL     1      34.196 -15.101 -22.181  0.00  0.00    -0.003 C 
ATOM     15  C   UNL     1      33.046 -13.839 -24.387  0.00  0.00    +0.003 C 
ATOM     16  C   UNL     1      33.866 -13.748 -22.117  0.00  0.00    +0.003 C 
ATOM     17  C   UNL     1      33.291 -13.116 -23.220  0.00  0.00    +0.036 C 
BRANCH  17  19
ATOM     18  N   UNL     1      33.813 -10.751 -23.703  0.00  0.00    -0.381 N 
ATOM     19  C   UNL     1      32.947 -11.705 -23.152  0.00  0.00    +0.160 C 
ATOM     20  H   UNL     1      33.584  -9.795 -23.659  0.00  0.00    +0.157 HD
ATOM     21  H   UNL     1      34.650 -11.038 -24.134  0.00  0.00    +0.157 HD
BRANCH  19  22
ATOM     22  N   UNL     1      31.809 -11.361 -22.569  0.00  0.00    -0.114 NA
BRANCH  22  23
ATOM     23  O   UNL     1      31.653  -9.970 -22.490  0.00  0.00    -0.232 OA
ATOM     24  C   UNL     1      31.035  -9.665 -21.249  0.00  0.00    +0.211 C 
ENDBRANCH  22  23
ENDBRANCH  19  22
ENDBRANCH  17  19
ENDBRANCH  11  12
ENDBRANCH   8  11
ENDBRANCH   3   9
BRANCH   6  25
ATOM     25  C   UNL     1      33.812 -22.584 -18.797  0.00  0.00    +0.210 C 
BRANCH  25  27
ATOM     26 CL   UNL     1      29.629 -22.539 -15.692  0.00  0.00    -0.082 Cl
ATOM     27  C   UNL     1      33.243 -22.623 -17.406  0.00  0.00    +0.017 C 
ATOM     28  C   UNL     1      34.095 -22.714 -16.305  0.00  0.00    +0.036 C 
ATOM     29  C   UNL     1      31.862 -22.570 -17.216  0.00  0.00    +0.010 C 
ATOM     30  C   UNL     1      33.566 -22.750 -15.015  0.00  0.00    +0.145 C 
ATOM     31  C   UNL     1      31.333 -22.605 -15.926  0.00  0.00    +0.060 C 
ATOM     32  C   UNL     1      32.185 -22.697 -14.825  0.00  0.00    +0.048 C 
BRANCH  30  33
ATOM     33  O   UNL     1      34.398 -22.839 -13.942  0.00  0.00    -0.424 OA
BRANCH  33  36
ATOM     34  F   UNL     1      36.562 -23.429 -13.970  0.00  0.00    -0.155 F 
ATOM     35  F   UNL     1      35.200 -24.559 -12.706  0.00  0.00    -0.155 F 
ATOM     36  C   UNL     1      35.304 -23.935 -13.905  0.00  0.00    +0.509 C 
ENDBRANCH  33  36
ENDBRANCH  30  33
ENDBRANCH  25  27
BRANCH  25  37
ATOM     37  O   UNL     1      33.196 -23.555 -19.620  0.00  0.00    -0.372 OA
ATOM     38  H   UNL     1      32.234 -23.428 -19.607  0.00  0.00    +0.211 HD
ENDBRANCH  25  37
ENDBRANCH   6  25
TORSDOF 11
ENDMDL
MODEL 9
REMARK VINA RESULT:     -11.1      6.032     12.716
REMARK  Name = 90753074
REMARK  11 active torsions:
REMARK  status: ('A' for Active; 'I' for Inactive)
REMARK    1  A    between atoms: C_3  and  C_9
REMARK    2  A    between atoms: C_6  and  C_25
REMARK    3  A    between atoms: N_8  and  C_11
REMARK    4  A    between atoms: C_11  and  C_12
REMARK    5  A    between atoms: C_17  and  C_20
REMARK    6  A    between atoms: N_19  and  C_20
REMARK    7  A    between atoms: N_19  and  O_23
REMARK    8  A    between atoms: C_25  and  C_27
REMARK    9  A    between atoms: C_25  and  O_37
REMARK   10  A    between atoms: C_30  and  O_33
REMARK   11  A    between atoms: O_33  and  C_36
REMARK                            x       y       z     vdW  Elec       q    Type
REMARK                         _______ _______ _______ _____ _____    ______ ____
ROOT
ATOM      1  O   UNL     1      32.666  -8.431 -23.905  0.00  0.00    -0.272 OA
ATOM      2  N   UNL     1      31.295  -9.620 -22.493  0.00  0.00    -0.271 N 
ATOM      3  C   UNL     1      32.131 -10.693 -21.967  0.00  0.00    +0.154 C 
ATOM      4  C   UNL     1      30.838 -11.276 -21.369  0.00  0.00    +0.051 C 
ATOM      5  C   UNL     1      30.116  -9.976 -21.729  0.00  0.00    +0.096 C 
ATOM      6  C   UNL     1      31.589  -8.578 -23.329  0.00  0.00    +0.257 C 
ENDROOT
BRANCH   3   9
ATOM      7  O   UNL     1      33.777 -11.043 -23.725  0.00  0.00    -0.273 OA
ATOM      8  N   UNL     1      32.424 -12.821 -23.122  0.00  0.00    -0.299 N 
ATOM      9  C   UNL     1      32.870 -11.511 -23.030  0.00  0.00    +0.241 C 
ATOM     10  H   UNL     1      31.693 -13.111 -22.529  0.00  0.00    +0.150 HD
BRANCH   8  11
ATOM     11  C   UNL     1      32.978 -13.782 -24.049  0.00  0.00    +0.116 C 
BRANCH  11  12
ATOM     12  C   UNL     1      33.661 -14.916 -23.340  0.00  0.00    -0.003 C 
ATOM     13  C   UNL     1      34.000 -16.073 -24.041  0.00  0.00    -0.003 C 
ATOM     14  C   UNL     1      33.955 -14.813 -21.981  0.00  0.00    -0.003 C 
ATOM     15  C   UNL     1      34.634 -17.127 -23.383  0.00  0.00    +0.003 C 
ATOM     16  C   UNL     1      34.590 -15.866 -21.323  0.00  0.00    +0.003 C 
ATOM     17  C   UNL     1      34.929 -17.024 -22.024  0.00  0.00    +0.036 C 
BRANCH  17  19
ATOM     18  N   UNL     1      36.983 -18.257 -21.426  0.00  0.00    -0.381 N 
ATOM     19  C   UNL     1      35.592 -18.121 -21.338  0.00  0.00    +0.160 C 
ATOM     20  H   UNL     1      37.436 -18.997 -20.962  0.00  0.00    +0.157 HD
ATOM     21  H   UNL     1      37.508 -17.611 -21.951  0.00  0.00    +0.157 HD
BRANCH  19  22
ATOM     22  N   UNL     1      34.850 -18.965 -20.636  0.00  0.00    -0.114 NA
BRANCH  22  23
ATOM     23  O   UNL     1      35.629 -19.887 -19.921  0.00  0.00    -0.232 OA
ATOM     24  C   UNL     1      34.782 -20.945 -19.498  0.00  0.00    +0.211 C 
ENDBRANCH  22  23
ENDBRANCH  19  22
ENDBRANCH  17  19
ENDBRANCH  11  12
ENDBRANCH   8  11
ENDBRANCH   3   9
BRANCH   6  25
ATOM     25  C   UNL     1      30.468  -7.587 -23.501  0.00  0.00    +0.210 C 
BRANCH  25  27
ATOM     26 CL   UNL     1      32.372  -5.510 -19.120  0.00  0.00    -0.082 Cl
ATOM     27  C   UNL     1      30.683  -6.373 -22.642  0.00  0.00    +0.017 C 
ATOM     28  C   UNL     1      30.218  -5.128 -23.064  0.00  0.00    +0.036 C 
ATOM     29  C   UNL     1      31.350  -6.491 -21.423  0.00  0.00    +0.010 C 
ATOM     30  C   UNL     1      30.417  -4.001 -22.267  0.00  0.00    +0.145 C 
ATOM     31  C   UNL     1      31.549  -5.364 -20.625  0.00  0.00    +0.060 C 
ATOM     32  C   UNL     1      31.084  -4.119 -21.048  0.00  0.00    +0.048 C 
BRANCH  30  33
ATOM     33  O   UNL     1      29.963  -2.786 -22.679  0.00  0.00    -0.424 OA
BRANCH  33  36
ATOM     34  F   UNL     1      31.959  -2.727 -23.701  0.00  0.00    -0.155 F 
ATOM     35  F   UNL     1      30.225  -1.977 -24.778  0.00  0.00    -0.155 F 
ATOM     36  C   UNL     1      30.800  -2.036 -23.552  0.00  0.00    +0.509 C 
ENDBRANCH  33  36
ENDBRANCH  30  33
ENDBRANCH  25  27
BRANCH  25  37
ATOM     37  O   UNL     1      30.426  -7.234 -24.870  0.00  0.00    -0.372 OA
ATOM     38  H   UNL     1      31.174  -6.651 -25.077  0.00  0.00    +0.211 HD
ENDBRANCH  25  37
ENDBRANCH   6  25
TORSDOF 11
ENDMDL
