MODEL 1
REMARK VINA RESULT:     -10.9      0.000      0.000
REMARK  Name = 5625
REMARK  5 active torsions:
REMARK  status: ('A' for Active; 'I' for Inactive)
REMARK    1  A    between atoms: C_8  and  C_10
REMARK    2  A    between atoms: C_16  and  N_19
REMARK    3  A    between atoms: N_19  and  S_21
REMARK    4  A    between atoms: C_27  and  N_31
REMARK    5  A    between atoms: N_31  and  C_33
REMARK                            x       y       z     vdW  Elec       q    Type
REMARK                         _______ _______ _______ _____ _____    ______ ____
ROOT
ATOM      1  O   UNL     1      30.246 -22.810 -16.317  0.00  0.00    -0.269 OA
ATOM      2  N   UNL     1      34.098 -23.881 -13.340  0.00  0.00    -0.289 N 
ATOM      3  N   UNL     1      32.255 -23.564 -15.452  0.00  0.00    -0.272 N 
ATOM      4  C   UNL     1      32.761 -23.329 -13.061  0.00  0.00    +0.114 C 
ATOM      5  C   UNL     1      34.596 -23.707 -14.711  0.00  0.00    +0.114 C 
ATOM      6  C   UNL     1      31.753 -23.810 -14.103  0.00  0.00    +0.115 C 
ATOM      7  C   UNL     1      33.554 -24.188 -15.719  0.00  0.00    +0.115 C 
ATOM      8  C   UNL     1      31.476 -22.848 -16.377  0.00  0.00    +0.263 C 
ATOM      9  N   UNL     1      34.938 -23.016 -11.271  0.00  0.00    -0.228 NA
ATOM     10  C   UNL     1      35.008 -23.948 -12.278  0.00  0.00    +0.145 C 
ATOM     11  C   UNL     1      35.982 -24.964 -12.251  0.00  0.00    +0.077 C 
ATOM     12  C   UNL     1      36.883 -25.022 -11.193  0.00  0.00    +0.019 C 
ATOM     13  C   UNL     1      35.830 -23.106 -10.259  0.00  0.00    +0.100 C 
ATOM     14  C   UNL     1      36.811 -24.079 -10.173  0.00  0.00    +0.022 C 
ENDROOT
BRANCH   8  16
ATOM     15  N   UNL     1      33.530 -22.223 -17.634  0.00  0.00    -0.309 N 
ATOM     16  C   UNL     1      32.183 -22.131 -17.432  0.00  0.00    +0.103 C 
ATOM     17  C   UNL     1      31.663 -21.275 -18.371  0.00  0.00    +0.020 C 
ATOM     18  C   UNL     1      32.742 -20.823 -19.182  0.00  0.00    +0.016 C 
ATOM     19  C   UNL     1      33.901 -21.433 -18.699  0.00  0.00    +0.049 C 
ATOM     20  C   UNL     1      32.843 -19.951 -20.284  0.00  0.00    +0.017 C 
ATOM     21  C   UNL     1      35.162 -21.213 -19.265  0.00  0.00    +0.016 C 
ATOM     22  C   UNL     1      34.097 -19.722 -20.861  0.00  0.00    +0.065 C 
ATOM     23  C   UNL     1      35.238 -20.345 -20.358  0.00  0.00    +0.017 C 
ATOM     24  H   UNL     1      34.146 -22.773 -17.097  0.00  0.00    +0.152 HD
BRANCH  22  25
ATOM     25  N   UNL     1      34.207 -18.841 -21.980  0.00  0.00    -0.219 N 
ATOM     26  H   UNL     1      33.702 -19.010 -22.808  0.00  0.00    +0.173 HD
BRANCH  25  27
ATOM     27  S   UNL     1      35.245 -17.473 -21.839  0.00  0.00    +0.056 S 
ATOM     28  O   UNL     1      34.946 -16.799 -20.590  0.00  0.00    -0.154 OA
ATOM     29  O   UNL     1      36.610 -17.821 -22.182  0.00  0.00    -0.154 OA
ATOM     30  C   UNL     1      34.597 -16.453 -23.144  0.00  0.00    +0.200 C 
ENDBRANCH  25  27
ENDBRANCH  22  25
ENDBRANCH   8  16
BRANCH  11  31
ATOM     31  N   UNL     1      36.053 -25.918 -13.283  0.00  0.00    -0.332 N 
ATOM     32  H   UNL     1      35.245 -26.438 -13.499  0.00  0.00    +0.147 HD
BRANCH  31  33
ATOM     33  C   UNL     1      37.246 -26.167 -14.034  0.00  0.00    +0.069 C 
ATOM     34  C   UNL     1      36.889 -26.855 -15.345  0.00  0.00    +0.021 C 
ATOM     35  C   UNL     1      37.970 -24.849 -14.278  0.00  0.00    +0.021 C 
ENDBRANCH  31  33
ENDBRANCH  11  31
TORSDOF 5
ENDMDL
MODEL 2
REMARK VINA RESULT:      -9.3      1.798      2.206
REMARK  Name = 5625
REMARK  5 active torsions:
REMARK  status: ('A' for Active; 'I' for Inactive)
REMARK    1  A    between atoms: C_8  and  C_10
REMARK    2  A    between atoms: C_16  and  N_19
REMARK    3  A    between atoms: N_19  and  S_21
REMARK    4  A    between atoms: C_27  and  N_31
REMARK    5  A    between atoms: N_31  and  C_33
REMARK                            x       y       z     vdW  Elec       q    Type
REMARK                         _______ _______ _______ _____ _____    ______ ____
ROOT
ATOM      1  O   UNL     1      31.318 -22.017 -17.835  0.00  0.00    -0.269 OA
ATOM      2  N   UNL     1      35.138 -23.014 -14.792  0.00  0.00    -0.289 N 
ATOM      3  N   UNL     1      33.349 -22.680 -16.947  0.00  0.00    -0.272 N 
ATOM      4  C   UNL     1      33.754 -22.586 -14.527  0.00  0.00    +0.114 C 
ATOM      5  C   UNL     1      35.668 -22.701 -16.126  0.00  0.00    +0.114 C 
ATOM      6  C   UNL     1      32.822 -23.063 -15.639  0.00  0.00    +0.115 C 
ATOM      7  C   UNL     1      34.701 -23.182 -17.207  0.00  0.00    +0.115 C 
ATOM      8  C   UNL     1      32.548 -21.957 -17.848  0.00  0.00    +0.263 C 
ATOM      9  N   UNL     1      35.838 -22.244 -12.634  0.00  0.00    -0.228 NA
ATOM     10  C   UNL     1      36.014 -23.091 -13.703  0.00  0.00    +0.145 C 
ATOM     11  C   UNL     1      37.064 -24.030 -13.710  0.00  0.00    +0.077 C 
ATOM     12  C   UNL     1      37.930 -24.098 -12.624  0.00  0.00    +0.019 C 
ATOM     13  C   UNL     1      36.699 -22.341 -11.597  0.00  0.00    +0.100 C 
ATOM     14  C   UNL     1      37.751 -23.242 -11.543  0.00  0.00    +0.022 C 
ENDROOT
BRANCH   8  16
ATOM     15  N   UNL     1      34.566 -20.824 -18.763  0.00  0.00    -0.309 N 
ATOM     16  C   UNL     1      33.232 -21.113 -18.821  0.00  0.00    +0.103 C 
ATOM     17  C   UNL     1      32.701 -20.480 -19.916  0.00  0.00    +0.020 C 
ATOM     18  C   UNL     1      33.757 -19.772 -20.556  0.00  0.00    +0.016 C 
ATOM     19  C   UNL     1      34.916 -20.005 -19.813  0.00  0.00    +0.049 C 
ATOM     20  C   UNL     1      33.838 -18.955 -21.701  0.00  0.00    +0.017 C 
ATOM     21  C   UNL     1      36.157 -19.458 -20.158  0.00  0.00    +0.016 C 
ATOM     22  C   UNL     1      35.073 -18.401 -22.058  0.00  0.00    +0.065 C 
ATOM     23  C   UNL     1      36.213 -18.651 -21.297  0.00  0.00    +0.017 C 
ATOM     24  H   UNL     1      35.185 -21.152 -18.072  0.00  0.00    +0.152 HD
BRANCH  22  25
ATOM     25  N   UNL     1      35.164 -17.571 -23.218  0.00  0.00    -0.219 N 
ATOM     26  H   UNL     1      35.689 -17.854 -24.002  0.00  0.00    +0.173 HD
BRANCH  25  27
ATOM     27  S   UNL     1      34.327 -16.066 -23.209  0.00  0.00    +0.056 S 
ATOM     28  O   UNL     1      35.206 -15.051 -23.760  0.00  0.00    -0.154 OA
ATOM     29  O   UNL     1      32.975 -16.221 -23.709  0.00  0.00    -0.154 OA
ATOM     30  C   UNL     1      34.232 -15.771 -21.458  0.00  0.00    +0.200 C 
ENDBRANCH  25  27
ENDBRANCH  22  25
ENDBRANCH   8  16
BRANCH  11  31
ATOM     31  N   UNL     1      37.244 -24.895 -14.804  0.00  0.00    -0.332 N 
ATOM     32  H   UNL     1      37.515 -24.509 -15.669  0.00  0.00    +0.147 HD
BRANCH  31  33
ATOM     33  C   UNL     1      37.050 -26.311 -14.719  0.00  0.00    +0.069 C 
ATOM     34  C   UNL     1      36.695 -26.691 -13.287  0.00  0.00    +0.021 C 
ATOM     35  C   UNL     1      35.953 -26.727 -15.691  0.00  0.00    +0.021 C 
ENDBRANCH  31  33
ENDBRANCH  11  31
TORSDOF 5
ENDMDL
