MODEL 1
REMARK VINA RESULT:     -12.0      0.000      0.000
REMARK  Name = 6920596
REMARK  3 active torsions:
REMARK  status: ('A' for Active; 'I' for Inactive)
REMARK    1  A    between atoms: N_2  and  C_7
REMARK    2  A    between atoms: C_4  and  C_15
REMARK    3  A    between atoms: N_14  and  C_18
REMARK                            x       y       z     vdW  Elec       q    Type
REMARK                         _______ _______ _______ _____ _____    ______ ____
ROOT
ATOM      1  O   UNL     1      36.521 -18.128 -20.135  0.00  0.00    -0.275 OA
ATOM      2  N   UNL     1      34.780 -19.427 -21.033  0.00  0.00    -0.281 N 
ATOM      3  C   UNL     1      34.304 -19.800 -22.345  0.00  0.00    +0.103 C 
ATOM      4  C   UNL     1      34.917 -18.758 -23.263  0.00  0.00    +0.106 C 
ATOM      5  C   UNL     1      36.165 -18.274 -22.526  0.00  0.00    +0.096 C 
ATOM      6  C   UNL     1      35.870 -18.565 -21.073  0.00  0.00    +0.226 C 
ENDROOT
BRANCH   2   7
ATOM      7  C   UNL     1      34.232 -20.021 -19.837  0.00  0.00    +0.075 C 
ATOM      8  C   UNL     1      32.773 -20.432 -20.057  0.00  0.00    +0.020 C 
ATOM      9  C   UNL     1      35.085 -21.211 -19.391  0.00  0.00    +0.020 C 
ATOM     10  C   UNL     1      32.190 -21.113 -18.821  0.00  0.00    +0.002 C 
ATOM     11  C   UNL     1      34.498 -21.893 -18.157  0.00  0.00    +0.002 C 
ATOM     12  C   UNL     1      33.044 -22.297 -18.376  0.00  0.00    +0.000 C 
ENDBRANCH   2   7
BRANCH   4  15
ATOM     13  O   UNL     1      32.884 -17.815 -24.055  0.00  0.00    -0.275 OA
ATOM     14  N   UNL     1      34.511 -16.414 -23.091  0.00  0.00    -0.284 N 
ATOM     15  C   UNL     1      33.972 -17.620 -23.522  0.00  0.00    +0.228 C 
ATOM     16  H   UNL     1      35.408 -16.458 -22.686  0.00  0.00    +0.155 HD
BRANCH  14  18
ATOM     17 CL   UNL     1      32.569 -12.727 -26.046  0.00  0.00    -0.082 Cl
ATOM     18  C   UNL     1      33.919 -15.131 -23.166  0.00  0.00    +0.047 C 
ATOM     19  C   UNL     1      33.686 -14.402 -22.010  0.00  0.00    -0.008 C 
ATOM     20  C   UNL     1      33.582 -14.629 -24.413  0.00  0.00    +0.026 C 
ATOM     21  C   UNL     1      33.101 -13.140 -22.104  0.00  0.00    -0.002 C 
ATOM     22  C   UNL     1      34.044 -14.932 -20.660  0.00  0.00    +0.032 C 
ATOM     23  C   UNL     1      32.997 -13.366 -24.507  0.00  0.00    +0.059 C 
ATOM     24  C   UNL     1      32.755 -12.622 -23.352  0.00  0.00    +0.011 C 
ENDBRANCH  14  18
ENDBRANCH   4  15
TORSDOF 3
ENDMDL
MODEL 2
REMARK VINA RESULT:     -11.2      3.012      7.587
REMARK  Name = 6920596
REMARK  3 active torsions:
REMARK  status: ('A' for Active; 'I' for Inactive)
REMARK    1  A    between atoms: N_2  and  C_7
REMARK    2  A    between atoms: C_4  and  C_15
REMARK    3  A    between atoms: N_14  and  C_18
REMARK                            x       y       z     vdW  Elec       q    Type
REMARK                         _______ _______ _______ _____ _____    ______ ____
ROOT
ATOM      1  O   UNL     1      32.539 -18.166 -24.339  0.00  0.00    -0.275 OA
ATOM      2  N   UNL     1      34.028 -16.626 -23.371  0.00  0.00    -0.281 N 
ATOM      3  C   UNL     1      35.371 -16.640 -22.840  0.00  0.00    +0.103 C 
ATOM      4  C   UNL     1      35.634 -18.108 -22.558  0.00  0.00    +0.106 C 
ATOM      5  C   UNL     1      34.706 -18.861 -23.510  0.00  0.00    +0.096 C 
ATOM      6  C   UNL     1      33.596 -17.877 -23.797  0.00  0.00    +0.226 C 
ENDROOT
BRANCH   2   7
ATOM      7  C   UNL     1      33.301 -15.391 -23.544  0.00  0.00    +0.075 C 
ATOM      8  C   UNL     1      33.789 -14.331 -22.552  0.00  0.00    +0.020 C 
ATOM      9  C   UNL     1      33.418 -14.899 -24.988  0.00  0.00    +0.020 C 
ATOM     10  C   UNL     1      33.071 -12.999 -22.754  0.00  0.00    +0.002 C 
ATOM     11  C   UNL     1      32.702 -13.564 -25.188  0.00  0.00    +0.002 C 
ATOM     12  C   UNL     1      33.187 -12.512 -24.196  0.00  0.00    +0.000 C 
ENDBRANCH   2   7
BRANCH   4  15
ATOM     13  O   UNL     1      35.340 -17.600 -20.255  0.00  0.00    -0.275 OA
ATOM     14  N   UNL     1      35.088 -19.822 -20.991  0.00  0.00    -0.284 N 
ATOM     15  C   UNL     1      35.338 -18.462 -21.129  0.00  0.00    +0.228 C 
ATOM     16  H   UNL     1      35.135 -20.358 -21.815  0.00  0.00    +0.155 HD
BRANCH  14  18
ATOM     17 CL   UNL     1      36.786 -22.031 -16.709  0.00  0.00    -0.082 Cl
ATOM     18  C   UNL     1      34.773 -20.523 -19.804  0.00  0.00    +0.047 C 
ATOM     19  C   UNL     1      33.456 -20.835 -19.506  0.00  0.00    -0.008 C 
ATOM     20  C   UNL     1      35.807 -20.884 -18.954  0.00  0.00    +0.026 C 
ATOM     21  C   UNL     1      33.165 -21.526 -18.330  0.00  0.00    -0.002 C 
ATOM     22  C   UNL     1      32.332 -20.451 -20.413  0.00  0.00    +0.032 C 
ATOM     23  C   UNL     1      35.516 -21.576 -17.778  0.00  0.00    +0.059 C 
ATOM     24  C   UNL     1      34.195 -21.896 -17.465  0.00  0.00    +0.011 C 
ENDBRANCH  14  18
ENDBRANCH   4  15
TORSDOF 3
ENDMDL
MODEL 3
REMARK VINA RESULT:     -10.6      1.799      2.538
REMARK  Name = 6920596
REMARK  3 active torsions:
REMARK  status: ('A' for Active; 'I' for Inactive)
REMARK    1  A    between atoms: N_2  and  C_7
REMARK    2  A    between atoms: C_4  and  C_15
REMARK    3  A    between atoms: N_14  and  C_18
REMARK                            x       y       z     vdW  Elec       q    Type
REMARK                         _______ _______ _______ _____ _____    ______ ____
ROOT
ATOM      1  O   UNL     1      36.650 -19.338 -19.612  0.00  0.00    -0.275 OA
ATOM      2  N   UNL     1      34.818 -19.421 -21.082  0.00  0.00    -0.281 N 
ATOM      3  C   UNL     1      34.434 -18.807 -22.332  0.00  0.00    +0.103 C 
ATOM      4  C   UNL     1      35.321 -17.578 -22.421  0.00  0.00    +0.106 C 
ATOM      5  C   UNL     1      36.545 -17.919 -21.571  0.00  0.00    +0.096 C 
ATOM      6  C   UNL     1      36.042 -18.965 -20.604  0.00  0.00    +0.226 C 
ENDROOT
BRANCH   2   7
ATOM      7  C   UNL     1      34.043 -20.489 -20.499  0.00  0.00    +0.075 C 
ATOM      8  C   UNL     1      34.873 -21.260 -19.468  0.00  0.00    +0.020 C 
ATOM      9  C   UNL     1      32.755 -19.941 -19.881  0.00  0.00    +0.020 C 
ATOM     10  C   UNL     1      34.054 -22.361 -18.799  0.00  0.00    +0.002 C 
ATOM     11  C   UNL     1      31.940 -21.043 -19.209  0.00  0.00    +0.002 C 
ATOM     12  C   UNL     1      32.769 -21.812 -18.185  0.00  0.00    +0.000 C 
ENDBRANCH   2   7
BRANCH   4  15
ATOM     13  O   UNL     1      34.550 -16.143 -20.692  0.00  0.00    -0.275 OA
ATOM     14  N   UNL     1      34.138 -15.573 -22.938  0.00  0.00    -0.284 N 
ATOM     15  C   UNL     1      34.629 -16.352 -21.898  0.00  0.00    +0.228 C 
ATOM     16  H   UNL     1      34.299 -15.910 -23.848  0.00  0.00    +0.155 HD
BRANCH  14  18
ATOM     17 CL   UNL     1      32.125 -11.992 -19.900  0.00  0.00    -0.082 Cl
ATOM     18  C   UNL     1      33.432 -14.351 -22.838  0.00  0.00    +0.047 C 
ATOM     19  C   UNL     1      33.026 -13.684 -23.983  0.00  0.00    -0.008 C 
ATOM     20  C   UNL     1      33.162 -13.843 -21.576  0.00  0.00    +0.026 C 
ATOM     21  C   UNL     1      32.333 -12.480 -23.864  0.00  0.00    -0.002 C 
ATOM     22  C   UNL     1      33.312 -14.220 -25.348  0.00  0.00    +0.032 C 
ATOM     23  C   UNL     1      32.468 -12.639 -21.457  0.00  0.00    +0.059 C 
ATOM     24  C   UNL     1      32.054 -11.957 -22.602  0.00  0.00    +0.011 C 
ENDBRANCH  14  18
ENDBRANCH   4  15
TORSDOF 3
ENDMDL
MODEL 4
REMARK VINA RESULT:     -10.3      5.314     10.181
REMARK  Name = 6920596
REMARK  3 active torsions:
REMARK  status: ('A' for Active; 'I' for Inactive)
REMARK    1  A    between atoms: N_2  and  C_7
REMARK    2  A    between atoms: C_4  and  C_15
REMARK    3  A    between atoms: N_14  and  C_18
REMARK                            x       y       z     vdW  Elec       q    Type
REMARK                         _______ _______ _______ _____ _____    ______ ____
ROOT
ATOM      1  O   UNL     1      31.937  -7.821 -19.130  0.00  0.00    -0.275 OA
ATOM      2  N   UNL     1      31.835  -8.418 -21.402  0.00  0.00    -0.281 N 
ATOM      3  C   UNL     1      31.112  -9.366 -22.217  0.00  0.00    +0.103 C 
ATOM      4  C   UNL     1      30.619 -10.400 -21.220  0.00  0.00    +0.106 C 
ATOM      5  C   UNL     1      30.548  -9.655 -19.888  0.00  0.00    +0.096 C 
ATOM      6  C   UNL     1      31.533  -8.520 -20.048  0.00  0.00    +0.226 C 
ENDROOT
BRANCH   2   7
ATOM      7  C   UNL     1      32.671  -7.401 -21.993  0.00  0.00    +0.075 C 
ATOM      8  C   UNL     1      33.331  -7.921 -23.274  0.00  0.00    +0.020 C 
ATOM      9  C   UNL     1      31.862  -6.130 -22.259  0.00  0.00    +0.020 C 
ATOM     10  C   UNL     1      34.178  -6.843 -23.946  0.00  0.00    +0.002 C 
ATOM     11  C   UNL     1      32.710  -5.055 -22.935  0.00  0.00    +0.002 C 
ATOM     12  C   UNL     1      33.369  -5.575 -24.208  0.00  0.00    +0.000 C 
ENDBRANCH   2   7
BRANCH   4  15
ATOM     13  O   UNL     1      31.963 -11.965 -20.042  0.00  0.00    -0.275 OA
ATOM     14  N   UNL     1      31.835 -12.086 -22.389  0.00  0.00    -0.284 N 
ATOM     15  C   UNL     1      31.550 -11.574 -21.129  0.00  0.00    +0.228 C 
ATOM     16  H   UNL     1      31.407 -11.632 -23.150  0.00  0.00    +0.155 HD
BRANCH  14  18
ATOM     17 CL   UNL     1      34.530 -16.078 -20.686  0.00  0.00    -0.082 Cl
ATOM     18  C   UNL     1      32.669 -13.185 -22.702  0.00  0.00    +0.047 C 
ATOM     19  C   UNL     1      33.013 -13.446 -24.020  0.00  0.00    -0.008 C 
ATOM     20  C   UNL     1      33.129 -13.984 -21.667  0.00  0.00    +0.026 C 
ATOM     21  C   UNL     1      33.835 -14.534 -24.309  0.00  0.00    -0.002 C 
ATOM     22  C   UNL     1      32.524 -12.593 -25.144  0.00  0.00    +0.032 C 
ATOM     23  C   UNL     1      33.952 -15.073 -21.957  0.00  0.00    +0.059 C 
ATOM     24  C   UNL     1      34.305 -15.348 -23.278  0.00  0.00    +0.011 C 
ENDBRANCH  14  18
ENDBRANCH   4  15
TORSDOF 3
ENDMDL
MODEL 5
REMARK VINA RESULT:     -10.3      2.715      4.335
REMARK  Name = 6920596
REMARK  3 active torsions:
REMARK  status: ('A' for Active; 'I' for Inactive)
REMARK    1  A    between atoms: N_2  and  C_7
REMARK    2  A    between atoms: C_4  and  C_15
REMARK    3  A    between atoms: N_14  and  C_18
REMARK                            x       y       z     vdW  Elec       q    Type
REMARK                         _______ _______ _______ _____ _____    ______ ____
ROOT
ATOM      1  O   UNL     1      36.467 -20.905 -16.831  0.00  0.00    -0.275 OA
ATOM      2  N   UNL     1      34.459 -21.858 -17.598  0.00  0.00    -0.281 N 
ATOM      3  C   UNL     1      33.893 -22.261 -18.864  0.00  0.00    +0.103 C 
ATOM      4  C   UNL     1      34.721 -21.506 -19.888  0.00  0.00    +0.106 C 
ATOM      5  C   UNL     1      36.056 -21.244 -19.194  0.00  0.00    +0.096 C 
ATOM      6  C   UNL     1      35.720 -21.285 -17.721  0.00  0.00    +0.226 C 
ENDROOT
BRANCH   2   7
ATOM      7  C   UNL     1      33.803 -22.163 -16.349  0.00  0.00    +0.075 C 
ATOM      8  C   UNL     1      32.390 -22.700 -16.597  0.00  0.00    +0.020 C 
ATOM      9  C   UNL     1      34.639 -23.150 -15.532  0.00  0.00    +0.020 C 
ATOM     10  C   UNL     1      31.697 -23.081 -15.291  0.00  0.00    +0.002 C 
ATOM     11  C   UNL     1      33.942 -23.533 -14.228  0.00  0.00    +0.002 C 
ATOM     12  C   UNL     1      32.533 -24.064 -14.477  0.00  0.00    +0.000 C 
ENDBRANCH   2   7
BRANCH   4  15
ATOM     13  O   UNL     1      32.947 -19.924 -19.881  0.00  0.00    -0.275 OA
ATOM     14  N   UNL     1      34.883 -19.486 -21.146  0.00  0.00    -0.284 N 
ATOM     15  C   UNL     1      34.065 -20.217 -20.293  0.00  0.00    +0.228 C 
ATOM     16  H   UNL     1      35.753 -19.890 -21.367  0.00  0.00    +0.155 HD
BRANCH  14  18
ATOM     17 CL   UNL     1      34.184 -14.471 -20.464  0.00  0.00    -0.082 Cl
ATOM     18  C   UNL     1      34.609 -18.228 -21.732  0.00  0.00    +0.047 C 
ATOM     19  C   UNL     1      34.416 -18.123 -23.101  0.00  0.00    -0.008 C 
ATOM     20  C   UNL     1      34.539 -17.114 -20.909  0.00  0.00    +0.026 C 
ATOM     21  C   UNL     1      34.147 -16.875 -23.660  0.00  0.00    -0.002 C 
ATOM     22  C   UNL     1      34.488 -19.315 -23.999  0.00  0.00    +0.032 C 
ATOM     23  C   UNL     1      34.271 -15.865 -21.469  0.00  0.00    +0.059 C 
ATOM     24  C   UNL     1      34.075 -15.745 -22.845  0.00  0.00    +0.011 C 
ENDBRANCH  14  18
ENDBRANCH   4  15
TORSDOF 3
ENDMDL
MODEL 6
REMARK VINA RESULT:      -9.9      3.213      7.659
REMARK  Name = 6920596
REMARK  3 active torsions:
REMARK  status: ('A' for Active; 'I' for Inactive)
REMARK    1  A    between atoms: N_2  and  C_7
REMARK    2  A    between atoms: C_4  and  C_15
REMARK    3  A    between atoms: N_14  and  C_18
REMARK                            x       y       z     vdW  Elec       q    Type
REMARK                         _______ _______ _______ _____ _____    ______ ____
ROOT
ATOM      1  O   UNL     1      33.354 -17.860 -23.786  0.00  0.00    -0.275 OA
ATOM      2  N   UNL     1      34.835 -17.395 -22.022  0.00  0.00    -0.281 N 
ATOM      3  C   UNL     1      35.784 -18.125 -21.214  0.00  0.00    +0.103 C 
ATOM      4  C   UNL     1      35.369 -19.575 -21.388  0.00  0.00    +0.106 C 
ATOM      5  C   UNL     1      34.649 -19.615 -22.735  0.00  0.00    +0.096 C 
ATOM      6  C   UNL     1      34.164 -18.199 -22.937  0.00  0.00    +0.226 C 
ENDROOT
BRANCH   2   7
ATOM      7  C   UNL     1      34.728 -15.958 -21.941  0.00  0.00    +0.075 C 
ATOM      8  C   UNL     1      34.120 -15.388 -23.226  0.00  0.00    +0.020 C 
ATOM      9  C   UNL     1      33.915 -15.549 -20.711  0.00  0.00    +0.020 C 
ATOM     10  C   UNL     1      33.947 -13.873 -23.141  0.00  0.00    +0.002 C 
ATOM     11  C   UNL     1      33.740 -14.034 -20.629  0.00  0.00    +0.002 C 
ATOM     12  C   UNL     1      33.138 -13.468 -21.912  0.00  0.00    +0.000 C 
ENDBRANCH   2   7
BRANCH   4  15
ATOM     13  O   UNL     1      33.292 -19.663 -20.237  0.00  0.00    -0.275 OA
ATOM     14  N   UNL     1      35.133 -20.866 -19.397  0.00  0.00    -0.284 N 
ATOM     15  C   UNL     1      34.462 -20.031 -20.282  0.00  0.00    +0.228 C 
ATOM     16  H   UNL     1      36.079 -21.045 -19.600  0.00  0.00    +0.155 HD
BRANCH  14  18
ATOM     17 CL   UNL     1      31.068 -22.867 -17.034  0.00  0.00    -0.082 Cl
ATOM     18  C   UNL     1      34.611 -21.488 -18.238  0.00  0.00    +0.047 C 
ATOM     19  C   UNL     1      35.437 -21.750 -17.156  0.00  0.00    -0.008 C 
ATOM     20  C   UNL     1      33.267 -21.824 -18.215  0.00  0.00    +0.026 C 
ATOM     21  C   UNL     1      34.905 -22.365 -16.023  0.00  0.00    -0.002 C 
ATOM     22  C   UNL     1      36.888 -21.393 -17.168  0.00  0.00    +0.032 C 
ATOM     23  C   UNL     1      32.734 -22.439 -17.081  0.00  0.00    +0.059 C 
ATOM     24  C   UNL     1      33.554 -22.710 -15.985  0.00  0.00    +0.011 C 
ENDBRANCH  14  18
ENDBRANCH   4  15
TORSDOF 3
ENDMDL
MODEL 7
REMARK VINA RESULT:      -9.9      0.784      1.359
REMARK  Name = 6920596
REMARK  3 active torsions:
REMARK  status: ('A' for Active; 'I' for Inactive)
REMARK    1  A    between atoms: N_2  and  C_7
REMARK    2  A    between atoms: C_4  and  C_15
REMARK    3  A    between atoms: N_14  and  C_18
REMARK                            x       y       z     vdW  Elec       q    Type
REMARK                         _______ _______ _______ _____ _____    ______ ____
ROOT
ATOM      1  O   UNL     1      36.221 -18.517 -19.757  0.00  0.00    -0.275 OA
ATOM      2  N   UNL     1      34.850 -19.538 -21.370  0.00  0.00    -0.281 N 
ATOM      3  C   UNL     1      34.645 -19.448 -22.797  0.00  0.00    +0.103 C 
ATOM      4  C   UNL     1      35.235 -18.098 -23.164  0.00  0.00    +0.106 C 
ATOM      5  C   UNL     1      36.269 -17.815 -22.074  0.00  0.00    +0.096 C 
ATOM      6  C   UNL     1      35.796 -18.635 -20.897  0.00  0.00    +0.226 C 
ENDROOT
BRANCH   2   7
ATOM      7  C   UNL     1      34.214 -20.567 -20.583  0.00  0.00    +0.075 C 
ATOM      8  C   UNL     1      35.094 -20.958 -19.392  0.00  0.00    +0.020 C 
ATOM      9  C   UNL     1      32.828 -20.110 -20.125  0.00  0.00    +0.020 C 
ATOM     10  C   UNL     1      34.416 -22.007 -18.514  0.00  0.00    +0.002 C 
ATOM     11  C   UNL     1      32.153 -21.159 -19.243  0.00  0.00    +0.002 C 
ATOM     12  C   UNL     1      33.033 -21.551 -18.060  0.00  0.00    +0.000 C 
ENDBRANCH   2   7
BRANCH   4  15
ATOM     13  O   UNL     1      33.113 -17.212 -23.764  0.00  0.00    -0.275 OA
ATOM     14  N   UNL     1      34.621 -15.879 -22.544  0.00  0.00    -0.284 N 
ATOM     15  C   UNL     1      34.187 -17.023 -23.201  0.00  0.00    +0.228 C 
ATOM     16  H   UNL     1      35.524 -15.917 -22.153  0.00  0.00    +0.155 HD
BRANCH  14  18
ATOM     17 CL   UNL     1      32.500 -11.775 -24.727  0.00  0.00    -0.082 Cl
ATOM     18  C   UNL     1      33.914 -14.666 -22.371  0.00  0.00    +0.047 C 
ATOM     19  C   UNL     1      33.548 -14.246 -21.102  0.00  0.00    -0.008 C 
ATOM     20  C   UNL     1      33.600 -13.916 -23.495  0.00  0.00    +0.026 C 
ATOM     21  C   UNL     1      32.851 -13.048 -20.952  0.00  0.00    -0.002 C 
ATOM     22  C   UNL     1      33.881 -15.044 -19.883  0.00  0.00    +0.032 C 
ATOM     23  C   UNL     1      32.902 -12.718 -23.344  0.00  0.00    +0.059 C 
ATOM     24  C   UNL     1      32.527 -12.283 -22.073  0.00  0.00    +0.011 C 
ENDBRANCH  14  18
ENDBRANCH   4  15
TORSDOF 3
ENDMDL
MODEL 8
REMARK VINA RESULT:      -9.8      5.556     10.497
REMARK  Name = 6920596
REMARK  3 active torsions:
REMARK  status: ('A' for Active; 'I' for Inactive)
REMARK    1  A    between atoms: N_2  and  C_7
REMARK    2  A    between atoms: C_4  and  C_15
REMARK    3  A    between atoms: N_14  and  C_18
REMARK                            x       y       z     vdW  Elec       q    Type
REMARK                         _______ _______ _______ _____ _____    ______ ____
ROOT
ATOM      1  O   UNL     1      31.980  -7.987 -19.427  0.00  0.00    -0.275 OA
ATOM      2  N   UNL     1      31.651  -7.858 -21.751  0.00  0.00    -0.281 N 
ATOM      3  C   UNL     1      30.988  -8.634 -22.772  0.00  0.00    +0.103 C 
ATOM      4  C   UNL     1      30.827 -10.005 -22.139  0.00  0.00    +0.106 C 
ATOM      5  C   UNL     1      30.825  -9.741 -20.633  0.00  0.00    +0.096 C 
ATOM      6  C   UNL     1      31.571  -8.435 -20.488  0.00  0.00    +0.226 C 
ENDROOT
BRANCH   2   7
ATOM      7  C   UNL     1      32.209  -6.558 -22.038  0.00  0.00    +0.075 C 
ATOM      8  C   UNL     1      33.241  -6.649 -23.166  0.00  0.00    +0.020 C 
ATOM      9  C   UNL     1      31.098  -5.562 -22.377  0.00  0.00    +0.020 C 
ATOM     10  C   UNL     1      33.804  -5.275 -23.523  0.00  0.00    +0.002 C 
ATOM     11  C   UNL     1      31.663  -4.190 -22.738  0.00  0.00    +0.002 C 
ATOM     12  C   UNL     1      32.694  -4.283 -23.859  0.00  0.00    +0.000 C 
ENDBRANCH   2   7
BRANCH   4  15
ATOM     13  O   UNL     1      32.857 -10.548 -23.249  0.00  0.00    -0.275 OA
ATOM     14  N   UNL     1      31.775 -12.185 -21.949  0.00  0.00    -0.284 N 
ATOM     15  C   UNL     1      31.947 -10.930 -22.519  0.00  0.00    +0.228 C 
ATOM     16  H   UNL     1      30.974 -12.303 -21.390  0.00  0.00    +0.155 HD
BRANCH  14  18
ATOM     17 CL   UNL     1      34.291 -15.352 -25.071  0.00  0.00    -0.082 Cl
ATOM     18  C   UNL     1      32.621 -13.311 -22.079  0.00  0.00    +0.047 C 
ATOM     19  C   UNL     1      33.066 -13.983 -20.951  0.00  0.00    -0.008 C 
ATOM     20  C   UNL     1      32.988 -13.721 -23.351  0.00  0.00    +0.026 C 
ATOM     21  C   UNL     1      33.899 -15.091 -21.099  0.00  0.00    -0.002 C 
ATOM     22  C   UNL     1      32.678 -13.552 -19.574  0.00  0.00    +0.032 C 
ATOM     23  C   UNL     1      33.822 -14.830 -23.499  0.00  0.00    +0.059 C 
ATOM     24  C   UNL     1      34.278 -15.515 -22.373  0.00  0.00    +0.011 C 
ENDBRANCH  14  18
ENDBRANCH   4  15
TORSDOF 3
ENDMDL
MODEL 9
REMARK VINA RESULT:      -9.4      5.148      9.568
REMARK  Name = 6920596
REMARK  3 active torsions:
REMARK  status: ('A' for Active; 'I' for Inactive)
REMARK    1  A    between atoms: N_2  and  C_7
REMARK    2  A    between atoms: C_4  and  C_15
REMARK    3  A    between atoms: N_14  and  C_18
REMARK                            x       y       z     vdW  Elec       q    Type
REMARK                         _______ _______ _______ _____ _____    ______ ____
ROOT
ATOM      1  O   UNL     1      31.678 -20.029 -19.352  0.00  0.00    -0.275 OA
ATOM      2  N   UNL     1      33.923 -20.595 -19.756  0.00  0.00    -0.281 N 
ATOM      3  C   UNL     1      34.766 -21.759 -19.609  0.00  0.00    +0.103 C 
ATOM      4  C   UNL     1      34.014 -22.628 -18.616  0.00  0.00    +0.106 C 
ATOM      5  C   UNL     1      32.552 -22.208 -18.760  0.00  0.00    +0.096 C 
ATOM      6  C   UNL     1      32.624 -20.801 -19.304  0.00  0.00    +0.226 C 
ENDROOT
BRANCH   2   7
ATOM      7  C   UNL     1      34.391 -19.408 -20.431  0.00  0.00    +0.075 C 
ATOM      8  C   UNL     1      35.922 -19.364 -20.449  0.00  0.00    +0.020 C 
ATOM      9  C   UNL     1      33.815 -19.335 -21.846  0.00  0.00    +0.020 C 
ATOM     10  C   UNL     1      36.440 -18.144 -21.206  0.00  0.00    +0.002 C 
ATOM     11  C   UNL     1      34.337 -18.116 -22.604  0.00  0.00    +0.002 C 
ATOM     12  C   UNL     1      35.862 -18.071 -22.617  0.00  0.00    +0.000 C 
ENDBRANCH   2   7
BRANCH   4  15
ATOM     13  O   UNL     1      35.264 -21.494 -16.944  0.00  0.00    -0.275 OA
ATOM     14  N   UNL     1      33.969 -23.367 -16.349  0.00  0.00    -0.284 N 
ATOM     15  C   UNL     1      34.498 -22.415 -17.211  0.00  0.00    +0.228 C 
ATOM     16  H   UNL     1      33.369 -24.034 -16.754  0.00  0.00    +0.155 HD
BRANCH  14  18
ATOM     17 CL   UNL     1      37.270 -24.400 -12.589  0.00  0.00    -0.082 Cl
ATOM     18  C   UNL     1      34.194 -23.488 -14.958  0.00  0.00    +0.047 C 
ATOM     19  C   UNL     1      33.163 -23.256 -14.062  0.00  0.00    -0.008 C 
ATOM     20  C   UNL     1      35.461 -23.841 -14.520  0.00  0.00    +0.026 C 
ATOM     21  C   UNL     1      33.404 -23.380 -12.694  0.00  0.00    -0.002 C 
ATOM     22  C   UNL     1      31.793 -22.875 -14.520  0.00  0.00    +0.032 C 
ATOM     23  C   UNL     1      35.703 -23.965 -13.152  0.00  0.00    +0.059 C 
ATOM     24  C   UNL     1      34.674 -23.733 -12.238  0.00  0.00    +0.011 C 
ENDBRANCH  14  18
ENDBRANCH   4  15
TORSDOF 3
ENDMDL
