MODEL 1
REMARK VINA RESULT:     -11.3      0.000      0.000
REMARK  Name = 65947
REMARK  5 active torsions:
REMARK  status: ('A' for Active; 'I' for Inactive)
REMARK    1  A    between atoms: C_5  and  N_16
REMARK    2  A    between atoms: C_12  and  C_32
REMARK    3  A    between atoms: N_17  and  C_23
REMARK    4  A    between atoms: C_23  and  C_27
REMARK    5  A    between atoms: C_32  and  O_33
REMARK                            x       y       z     vdW  Elec       q    Type
REMARK                         _______ _______ _______ _____ _____    ______ ____
ROOT
ATOM      1  S   UNL     1      37.409 -22.752 -15.195  0.00  0.00    -0.074 S 
ATOM      2  F   UNL     1      31.669 -20.879 -20.134  0.00  0.00    -0.203 F 
ATOM      3  O   UNL     1      32.385 -23.745 -16.001  0.00  0.00    -0.286 OA
ATOM      4  N   UNL     1      35.917 -22.036 -16.781  0.00  0.00    -0.314 N 
ATOM      5  C   UNL     1      33.956 -20.567 -19.579  0.00  0.00    +0.077 C 
ATOM      6  C   UNL     1      34.882 -21.707 -17.661  0.00  0.00    +0.065 A 
ATOM      7  C   UNL     1      37.281 -21.694 -16.662  0.00  0.00    +0.139 C 
ATOM      8  C   UNL     1      35.785 -22.838 -15.769  0.00  0.00    +0.098 A 
ATOM      9  C   UNL     1      35.043 -20.845 -18.746  0.00  0.00    +0.034 C 
ATOM     10  C   UNL     1      33.618 -22.290 -17.418  0.00  0.00    +0.057 A 
ATOM     11  C   UNL     1      32.710 -21.147 -19.333  0.00  0.00    +0.154 C 
ATOM     12  C   UNL     1      34.667 -23.475 -15.392  0.00  0.00    +0.136 A 
ATOM     13  C   UNL     1      32.534 -22.011 -18.252  0.00  0.00    +0.036 C 
ATOM     14  C   UNL     1      33.463 -23.216 -16.248  0.00  0.00    +0.205 A 
ATOM     15  C   UNL     1      37.472 -20.240 -16.305  0.00  0.00    +0.037 C 
ENDROOT
BRANCH   5  16
ATOM     16  N   UNL     1      34.121 -19.703 -20.667  0.00  0.00    -0.310 N 
ATOM     17  N   UNL     1      34.303 -17.772 -22.764  0.00  0.00    +0.394 N 
ATOM     18  C   UNL     1      35.154 -18.664 -20.622  0.00  0.00    +0.068 C 
ATOM     19  C   UNL     1      32.941 -19.390 -21.484  0.00  0.00    +0.068 C 
ATOM     20  C   UNL     1      35.504 -18.192 -22.035  0.00  0.00    -0.055 C 
ATOM     21  C   UNL     1      33.364 -18.896 -22.870  0.00  0.00    -0.055 C 
ATOM     22  H   UNL     1      33.852 -17.015 -22.250  0.00  0.00    -0.079 HD
BRANCH  17  23
ATOM     23  C   UNL     1      34.655 -17.274 -24.094  0.00  0.00    -0.008 C 
BRANCH  23  27
ATOM     24  O   UNL     1      33.600 -15.544 -25.473  0.00  0.00    -0.397 OA
ATOM     25  O   UNL     1      33.259 -13.862 -23.901  0.00  0.00    -0.395 OA
ATOM     26  O   UNL     1      32.620 -13.561 -26.084  0.00  0.00    -0.202 OA
ATOM     27  C   UNL     1      34.051 -15.920 -24.224  0.00  0.00    +0.139 A 
ATOM     28  C   UNL     1      33.859 -14.969 -23.335  0.00  0.00    +0.158 A 
ATOM     29  C   UNL     1      34.173 -14.909 -21.887  0.00  0.00    +0.076 C 
ATOM     30  C   UNL     1      33.122 -14.268 -25.218  0.00  0.00    +0.521 A 
ENDBRANCH  23  27
ENDBRANCH  17  23
ENDBRANCH   5  16
BRANCH  12  32
ATOM     31  O   UNL     1      34.389 -23.997 -13.090  0.00  0.00    -0.245 OA
ATOM     32  C   UNL     1      34.680 -24.347 -14.224  0.00  0.00    +0.343 C 
BRANCH  32  33
ATOM     33  O   UNL     1      35.061 -25.593 -14.584  0.00  0.00    -0.477 OA
ATOM     34  H   UNL     1      35.826 -25.714 -15.109  0.00  0.00    +0.295 HD
ENDBRANCH  32  33
ENDBRANCH  12  32
TORSDOF 5
ENDMDL
MODEL 2
REMARK VINA RESULT:     -11.0      8.508     14.535
REMARK  Name = 65947
REMARK  5 active torsions:
REMARK  status: ('A' for Active; 'I' for Inactive)
REMARK    1  A    between atoms: C_5  and  N_16
REMARK    2  A    between atoms: C_12  and  C_32
REMARK    3  A    between atoms: N_17  and  C_23
REMARK    4  A    between atoms: C_23  and  C_27
REMARK    5  A    between atoms: C_32  and  O_33
REMARK                            x       y       z     vdW  Elec       q    Type
REMARK                         _______ _______ _______ _____ _____    ______ ____
ROOT
ATOM      1  S   UNL     1      31.657  -4.348 -25.503  0.00  0.00    -0.074 S 
ATOM      2  F   UNL     1      31.215  -8.981 -19.242  0.00  0.00    -0.203 F 
ATOM      3  O   UNL     1      30.324  -4.139 -20.498  0.00  0.00    -0.286 OA
ATOM      4  N   UNL     1      31.622  -5.921 -23.836  0.00  0.00    -0.314 N 
ATOM      5  C   UNL     1      31.770  -8.849 -21.547  0.00  0.00    +0.077 C 
ATOM      6  C   UNL     1      31.539  -6.743 -22.709  0.00  0.00    +0.065 A 
ATOM      7  C   UNL     1      32.011  -6.097 -25.182  0.00  0.00    +0.139 C 
ATOM      8  C   UNL     1      31.310  -4.661 -23.843  0.00  0.00    +0.098 A 
ATOM      9  C   UNL     1      31.881  -8.096 -22.719  0.00  0.00    +0.034 C 
ATOM     10  C   UNL     1      31.084  -6.150 -21.509  0.00  0.00    +0.057 A 
ATOM     11  C   UNL     1      31.320  -8.255 -20.366  0.00  0.00    +0.154 C 
ATOM     12  C   UNL     1      30.863  -3.940 -22.805  0.00  0.00    +0.136 A 
ATOM     13  C   UNL     1      30.974  -6.904 -20.340  0.00  0.00    +0.036 C 
ATOM     14  C   UNL     1      30.722  -4.694 -21.516  0.00  0.00    +0.205 A 
ATOM     15  C   UNL     1      31.060  -6.995 -25.934  0.00  0.00    +0.037 C 
ENDROOT
BRANCH   5  16
ATOM     16  N   UNL     1      32.115 -10.204 -21.561  0.00  0.00    -0.310 N 
ATOM     17  N   UNL     1      32.595 -13.016 -21.710  0.00  0.00    +0.394 N 
ATOM     18  C   UNL     1      32.783 -10.774 -22.734  0.00  0.00    +0.068 C 
ATOM     19  C   UNL     1      31.280 -11.135 -20.790  0.00  0.00    +0.068 C 
ATOM     20  C   UNL     1      33.506 -12.071 -22.364  0.00  0.00    -0.055 C 
ATOM     21  C   UNL     1      32.054 -12.420 -20.482  0.00  0.00    -0.055 C 
ATOM     22  H   UNL     1      31.822 -13.222 -22.344  0.00  0.00    -0.079 HD
BRANCH  17  23
ATOM     23  C   UNL     1      33.283 -14.271 -21.409  0.00  0.00    -0.008 C 
BRANCH  23  27
ATOM     24  O   UNL     1      33.004 -14.376 -23.843  0.00  0.00    -0.397 OA
ATOM     25  O   UNL     1      34.258 -16.269 -24.356  0.00  0.00    -0.395 OA
ATOM     26  O   UNL     1      33.192 -15.094 -26.013  0.00  0.00    -0.202 OA
ATOM     27  C   UNL     1      33.562 -14.936 -22.711  0.00  0.00    +0.139 A 
ATOM     28  C   UNL     1      34.271 -16.007 -23.002  0.00  0.00    +0.158 A 
ATOM     29  C   UNL     1      35.044 -16.929 -22.135  0.00  0.00    +0.076 C 
ATOM     30  C   UNL     1      33.464 -15.236 -24.827  0.00  0.00    +0.521 A 
ENDBRANCH  23  27
ENDBRANCH  17  23
ENDBRANCH   5  16
BRANCH  12  32
ATOM     31  O   UNL     1      29.743  -2.081 -23.772  0.00  0.00    -0.245 OA
ATOM     32  C   UNL     1      30.554  -2.526 -22.974  0.00  0.00    +0.343 C 
BRANCH  32  33
ATOM     33  O   UNL     1      31.296  -1.787 -22.120  0.00  0.00    -0.477 OA
ATOM     34  H   UNL     1      32.146  -2.085 -21.860  0.00  0.00    +0.295 HD
ENDBRANCH  32  33
ENDBRANCH  12  32
TORSDOF 5
ENDMDL
MODEL 3
REMARK VINA RESULT:     -10.8      8.387     14.435
REMARK  Name = 65947
REMARK  5 active torsions:
REMARK  status: ('A' for Active; 'I' for Inactive)
REMARK    1  A    between atoms: C_5  and  N_16
REMARK    2  A    between atoms: C_12  and  C_32
REMARK    3  A    between atoms: N_17  and  C_23
REMARK    4  A    between atoms: C_23  and  C_27
REMARK    5  A    between atoms: C_32  and  O_33
REMARK                            x       y       z     vdW  Elec       q    Type
REMARK                         _______ _______ _______ _____ _____    ______ ____
ROOT
ATOM      1  S   UNL     1      32.148  -3.933 -25.277  0.00  0.00    -0.074 S 
ATOM      2  F   UNL     1      31.192  -9.806 -20.233  0.00  0.00    -0.203 F 
ATOM      3  O   UNL     1      30.434  -4.788 -20.460  0.00  0.00    -0.286 OA
ATOM      4  N   UNL     1      31.974  -5.830 -24.003  0.00  0.00    -0.314 N 
ATOM      5  C   UNL     1      31.925  -9.188 -22.405  0.00  0.00    +0.077 C 
ATOM      6  C   UNL     1      31.799  -6.875 -23.092  0.00  0.00    +0.065 A 
ATOM      7  C   UNL     1      32.465  -5.717 -25.321  0.00  0.00    +0.139 C 
ATOM      8  C   UNL     1      31.672  -4.592 -23.756  0.00  0.00    +0.098 A 
ATOM      9  C   UNL     1      32.131  -8.201 -23.372  0.00  0.00    +0.034 C 
ATOM     10  C   UNL     1      31.256  -6.547 -21.828  0.00  0.00    +0.057 A 
ATOM     11  C   UNL     1      31.388  -8.856 -21.159  0.00  0.00    +0.154 C 
ATOM     12  C   UNL     1      31.151  -4.104 -22.621  0.00  0.00    +0.136 A 
ATOM     13  C   UNL     1      31.051  -7.535 -20.864  0.00  0.00    +0.036 C 
ATOM     14  C   UNL     1      30.905  -5.117 -21.543  0.00  0.00    +0.205 A 
ATOM     15  C   UNL     1      31.569  -6.408 -26.320  0.00  0.00    +0.037 C 
ENDROOT
BRANCH   5  16
ATOM     16  N   UNL     1      32.261 -10.516 -22.689  0.00  0.00    -0.310 N 
ATOM     17  N   UNL     1      33.154 -13.195 -23.117  0.00  0.00    +0.394 N 
ATOM     18  C   UNL     1      31.844 -11.584 -21.777  0.00  0.00    +0.068 C 
ATOM     19  C   UNL     1      33.499 -10.768 -23.439  0.00  0.00    +0.068 C 
ATOM     20  C   UNL     1      31.852 -12.937 -22.492  0.00  0.00    -0.055 C 
ATOM     21  C   UNL     1      33.452 -12.148 -24.101  0.00  0.00    -0.055 C 
ATOM     22  H   UNL     1      33.875 -13.183 -22.396  0.00  0.00    -0.079 HD
BRANCH  17  23
ATOM     23  C   UNL     1      33.168 -14.513 -23.752  0.00  0.00    -0.008 C 
BRANCH  23  27
ATOM     24  O   UNL     1      34.486 -16.553 -23.418  0.00  0.00    -0.397 OA
ATOM     25  O   UNL     1      34.949 -16.419 -21.142  0.00  0.00    -0.395 OA
ATOM     26  O   UNL     1      35.723 -18.185 -22.385  0.00  0.00    -0.202 OA
ATOM     27  C   UNL     1      33.934 -15.420 -22.855  0.00  0.00    +0.139 A 
ATOM     28  C   UNL     1      34.196 -15.345 -21.568  0.00  0.00    +0.158 A 
ATOM     29  C   UNL     1      33.822 -14.329 -20.554  0.00  0.00    +0.076 C 
ATOM     30  C   UNL     1      35.100 -17.132 -22.320  0.00  0.00    +0.521 A 
ENDBRANCH  23  27
ENDBRANCH  17  23
ENDBRANCH   5  16
BRANCH  12  32
ATOM     31  O   UNL     1      31.577  -1.787 -22.935  0.00  0.00    -0.245 OA
ATOM     32  C   UNL     1      30.865  -2.680 -22.499  0.00  0.00    +0.343 C 
BRANCH  32  33
ATOM     33  O   UNL     1      29.702  -2.499 -21.836  0.00  0.00    -0.477 OA
ATOM     34  H   UNL     1      29.663  -2.646 -20.912  0.00  0.00    +0.295 HD
ENDBRANCH  32  33
ENDBRANCH  12  32
TORSDOF 5
ENDMDL
MODEL 4
REMARK VINA RESULT:     -10.4      7.349     13.160
REMARK  Name = 65947
REMARK  5 active torsions:
REMARK  status: ('A' for Active; 'I' for Inactive)
REMARK    1  A    between atoms: C_5  and  N_16
REMARK    2  A    between atoms: C_12  and  C_32
REMARK    3  A    between atoms: N_17  and  C_23
REMARK    4  A    between atoms: C_23  and  C_27
REMARK    5  A    between atoms: C_32  and  O_33
REMARK                            x       y       z     vdW  Elec       q    Type
REMARK                         _______ _______ _______ _____ _____    ______ ____
ROOT
ATOM      1  S   UNL     1      31.451  -5.166 -24.404  0.00  0.00    -0.074 S 
ATOM      2  F   UNL     1      31.912 -11.777 -20.289  0.00  0.00    -0.203 F 
ATOM      3  O   UNL     1      30.685  -6.899 -19.579  0.00  0.00    -0.286 OA
ATOM      4  N   UNL     1      31.670  -7.235 -23.442  0.00  0.00    -0.314 N 
ATOM      5  C   UNL     1      32.197 -10.772 -22.421  0.00  0.00    +0.077 C 
ATOM      6  C   UNL     1      31.749  -8.414 -22.696  0.00  0.00    +0.065 A 
ATOM      7  C   UNL     1      31.911  -6.877 -24.786  0.00  0.00    +0.139 C 
ATOM      8  C   UNL     1      31.307  -6.088 -22.953  0.00  0.00    +0.098 A 
ATOM      9  C   UNL     1      32.144  -9.638 -23.236  0.00  0.00    +0.034 C 
ATOM     10  C   UNL     1      31.408  -8.337 -21.326  0.00  0.00    +0.057 A 
ATOM     11  C   UNL     1      31.859 -10.687 -21.069  0.00  0.00    +0.154 C 
ATOM     12  C   UNL     1      30.951  -5.832 -21.686  0.00  0.00    +0.136 A 
ATOM     13  C   UNL     1      31.463  -9.470 -20.515  0.00  0.00    +0.036 C 
ATOM     14  C   UNL     1      30.988  -7.012 -20.761  0.00  0.00    +0.205 A 
ATOM     15  C   UNL     1      30.919  -7.514 -25.728  0.00  0.00    +0.037 C 
ENDROOT
BRANCH   5  16
ATOM     16  N   UNL     1      32.594 -11.998 -22.966  0.00  0.00    -0.310 N 
ATOM     17  N   UNL     1      33.181 -14.598 -23.993  0.00  0.00    +0.394 N 
ATOM     18  C   UNL     1      32.159 -12.370 -24.315  0.00  0.00    +0.068 C 
ATOM     19  C   UNL     1      32.834 -13.116 -22.045  0.00  0.00    +0.068 C 
ATOM     20  C   UNL     1      33.076 -13.448 -24.898  0.00  0.00    -0.055 C 
ATOM     21  C   UNL     1      33.731 -14.169 -22.702  0.00  0.00    -0.055 C 
ATOM     22  H   UNL     1      32.249 -14.984 -23.841  0.00  0.00    -0.079 HD
BRANCH  17  23
ATOM     23  C   UNL     1      34.016 -15.643 -24.584  0.00  0.00    -0.008 C 
BRANCH  23  27
ATOM     24  O   UNL     1      34.979 -16.239 -22.409  0.00  0.00    -0.397 OA
ATOM     25  O   UNL     1      34.379 -18.482 -22.253  0.00  0.00    -0.395 OA
ATOM     26  O   UNL     1      35.571 -17.476 -20.571  0.00  0.00    -0.202 OA
ATOM     27  C   UNL     1      34.269 -16.651 -23.519  0.00  0.00    +0.139 A 
ATOM     28  C   UNL     1      33.930 -17.920 -23.430  0.00  0.00    +0.158 A 
ATOM     29  C   UNL     1      33.175 -18.795 -24.359  0.00  0.00    +0.076 C 
ATOM     30  C   UNL     1      35.019 -17.405 -21.662  0.00  0.00    +0.521 A 
ENDBRANCH  23  27
ENDBRANCH  17  23
ENDBRANCH   5  16
BRANCH  12  32
ATOM     31  O   UNL     1      29.649  -3.846 -21.789  0.00  0.00    -0.245 OA
ATOM     32  C   UNL     1      30.567  -4.483 -21.292  0.00  0.00    +0.343 C 
BRANCH  32  33
ATOM     33  O   UNL     1      31.374  -4.045 -20.300  0.00  0.00    -0.477 OA
ATOM     34  H   UNL     1      31.007  -3.607 -19.557  0.00  0.00    +0.295 HD
ENDBRANCH  32  33
ENDBRANCH  12  32
TORSDOF 5
ENDMDL
MODEL 5
REMARK VINA RESULT:      -9.7      7.415     13.582
REMARK  Name = 65947
REMARK  5 active torsions:
REMARK  status: ('A' for Active; 'I' for Inactive)
REMARK    1  A    between atoms: C_5  and  N_16
REMARK    2  A    between atoms: C_12  and  C_32
REMARK    3  A    between atoms: N_17  and  C_23
REMARK    4  A    between atoms: C_23  and  C_27
REMARK    5  A    between atoms: C_32  and  O_33
REMARK                            x       y       z     vdW  Elec       q    Type
REMARK                         _______ _______ _______ _____ _____    ______ ____
ROOT
ATOM      1  S   UNL     1      34.022  -4.761 -24.277  0.00  0.00    -0.074 S 
ATOM      2  F   UNL     1      30.236 -11.124 -21.819  0.00  0.00    -0.203 F 
ATOM      3  O   UNL     1      29.461  -6.119 -22.222  0.00  0.00    -0.286 OA
ATOM      4  N   UNL     1      33.146  -6.779 -23.633  0.00  0.00    -0.314 N 
ATOM      5  C   UNL     1      32.246 -10.281 -22.761  0.00  0.00    +0.077 C 
ATOM      6  C   UNL     1      32.459  -7.913 -23.189  0.00  0.00    +0.065 A 
ATOM      7  C   UNL     1      34.419  -6.528 -24.187  0.00  0.00    +0.139 C 
ATOM      8  C   UNL     1      32.658  -5.576 -23.605  0.00  0.00    +0.098 A 
ATOM      9  C   UNL     1      32.999  -9.199 -23.224  0.00  0.00    +0.034 C 
ATOM     10  C   UNL     1      31.153  -7.721 -22.684  0.00  0.00    +0.057 A 
ATOM     11  C   UNL     1      30.957 -10.083 -22.263  0.00  0.00    +0.154 C 
ATOM     12  C   UNL     1      31.446  -5.212 -23.163  0.00  0.00    +0.136 A 
ATOM     13  C   UNL     1      30.403  -8.803 -22.222  0.00  0.00    +0.036 C 
ATOM     14  C   UNL     1      30.588  -6.331 -22.653  0.00  0.00    +0.205 A 
ATOM     15  C   UNL     1      34.566  -7.127 -25.564  0.00  0.00    +0.037 C 
ENDROOT
BRANCH   5  16
ATOM     16  N   UNL     1      32.792 -11.569 -22.796  0.00  0.00    -0.310 N 
ATOM     17  N   UNL     1      33.664 -14.288 -22.833  0.00  0.00    +0.394 N 
ATOM     18  C   UNL     1      32.811 -12.317 -24.056  0.00  0.00    +0.068 C 
ATOM     19  C   UNL     1      32.717 -12.382 -21.575  0.00  0.00    +0.068 C 
ATOM     20  C   UNL     1      33.862 -13.429 -24.005  0.00  0.00    -0.055 C 
ATOM     21  C   UNL     1      33.772 -13.491 -21.605  0.00  0.00    -0.055 C 
ATOM     22  H   UNL     1      32.731 -14.698 -22.878  0.00  0.00    -0.079 HD
BRANCH  17  23
ATOM     23  C   UNL     1      34.640 -15.378 -22.823  0.00  0.00    -0.008 C 
BRANCH  23  27
ATOM     24  O   UNL     1      33.010 -16.335 -24.384  0.00  0.00    -0.397 OA
ATOM     25  O   UNL     1      33.288 -18.611 -23.983  0.00  0.00    -0.395 OA
ATOM     26  O   UNL     1      31.762 -17.880 -25.532  0.00  0.00    -0.202 OA
ATOM     27  C   UNL     1      33.971 -16.566 -23.420  0.00  0.00    +0.139 A 
ATOM     28  C   UNL     1      34.128 -17.852 -23.194  0.00  0.00    +0.158 A 
ATOM     29  C   UNL     1      35.028 -18.576 -22.263  0.00  0.00    +0.076 C 
ATOM     30  C   UNL     1      32.621 -17.628 -24.696  0.00  0.00    +0.521 A 
ENDBRANCH  23  27
ENDBRANCH  17  23
ENDBRANCH   5  16
BRANCH  12  32
ATOM     31  O   UNL     1      31.530  -2.929 -22.507  0.00  0.00    -0.245 OA
ATOM     32  C   UNL     1      31.044  -3.811 -23.199  0.00  0.00    +0.343 C 
BRANCH  32  33
ATOM     33  O   UNL     1      30.058  -3.639 -24.107  0.00  0.00    -0.477 OA
ATOM     34  H   UNL     1      29.431  -4.319 -24.252  0.00  0.00    +0.295 HD
ENDBRANCH  32  33
ENDBRANCH  12  32
TORSDOF 5
ENDMDL
MODEL 6
REMARK VINA RESULT:      -9.3      1.467      2.196
REMARK  Name = 65947
REMARK  5 active torsions:
REMARK  status: ('A' for Active; 'I' for Inactive)
REMARK    1  A    between atoms: C_5  and  N_16
REMARK    2  A    between atoms: C_12  and  C_32
REMARK    3  A    between atoms: N_17  and  C_23
REMARK    4  A    between atoms: C_23  and  C_27
REMARK    5  A    between atoms: C_32  and  O_33
REMARK                            x       y       z     vdW  Elec       q    Type
REMARK                         _______ _______ _______ _____ _____    ______ ____
ROOT
ATOM      1  S   UNL     1      37.354 -23.303 -14.386  0.00  0.00    -0.074 S 
ATOM      2  F   UNL     1      31.748 -21.098 -19.343  0.00  0.00    -0.203 F 
ATOM      3  O   UNL     1      32.225 -23.716 -15.016  0.00  0.00    -0.286 OA
ATOM      4  N   UNL     1      35.917 -22.525 -15.994  0.00  0.00    -0.314 N 
ATOM      5  C   UNL     1      34.072 -21.034 -18.858  0.00  0.00    +0.077 C 
ATOM      6  C   UNL     1      34.905 -22.135 -16.876  0.00  0.00    +0.065 A 
ATOM      7  C   UNL     1      37.316 -22.349 -15.927  0.00  0.00    +0.139 C 
ATOM      8  C   UNL     1      35.716 -23.227 -14.920  0.00  0.00    +0.098 A 
ATOM      9  C   UNL     1      35.139 -21.383 -18.027  0.00  0.00    +0.034 C 
ATOM     10  C   UNL     1      33.586 -22.536 -16.564  0.00  0.00    +0.057 A 
ATOM     11  C   UNL     1      32.771 -21.434 -18.543  0.00  0.00    +0.154 C 
ATOM     12  C   UNL     1      34.539 -23.689 -14.473  0.00  0.00    +0.136 A 
ATOM     13  C   UNL     1      32.522 -22.186 -17.396  0.00  0.00    +0.036 C 
ATOM     14  C   UNL     1      33.352 -23.346 -15.323  0.00  0.00    +0.205 A 
ATOM     15  C   UNL     1      37.694 -20.907 -15.688  0.00  0.00    +0.037 C 
ENDROOT
BRANCH   5  16
ATOM     16  N   UNL     1      34.311 -20.281 -20.013  0.00  0.00    -0.310 N 
ATOM     17  N   UNL     1      34.862 -18.965 -22.488  0.00  0.00    +0.394 N 
ATOM     18  C   UNL     1      33.253 -20.130 -21.016  0.00  0.00    +0.068 C 
ATOM     19  C   UNL     1      35.686 -20.224 -20.526  0.00  0.00    +0.068 C 
ATOM     20  C   UNL     1      33.519 -18.909 -21.899  0.00  0.00    -0.055 C 
ATOM     21  C   UNL     1      35.873 -18.998 -21.424  0.00  0.00    -0.055 C 
ATOM     22  H   UNL     1      34.942 -19.816 -23.044  0.00  0.00    -0.079 HD
BRANCH  17  23
ATOM     23  C   UNL     1      35.085 -17.820 -23.371  0.00  0.00    -0.008 C 
BRANCH  23  27
ATOM     24  O   UNL     1      34.657 -16.609 -21.283  0.00  0.00    -0.397 OA
ATOM     25  O   UNL     1      33.692 -14.651 -22.090  0.00  0.00    -0.395 OA
ATOM     26  O   UNL     1      33.983 -14.961 -19.836  0.00  0.00    -0.202 OA
ATOM     27  C   UNL     1      34.572 -16.617 -22.661  0.00  0.00    +0.139 A 
ATOM     28  C   UNL     1      34.026 -15.510 -23.117  0.00  0.00    +0.158 A 
ATOM     29  C   UNL     1      33.729 -15.067 -24.501  0.00  0.00    +0.076 C 
ATOM     30  C   UNL     1      34.101 -15.376 -20.983  0.00  0.00    +0.521 A 
ENDBRANCH  23  27
ENDBRANCH  17  23
ENDBRANCH   5  16
BRANCH  12  32
ATOM     31  O   UNL     1      35.333 -25.259 -12.875  0.00  0.00    -0.245 OA
ATOM     32  C   UNL     1      34.478 -24.466 -13.242  0.00  0.00    +0.343 C 
BRANCH  32  33
ATOM     33  O   UNL     1      33.340 -24.179 -12.572  0.00  0.00    -0.477 OA
ATOM     34  H   UNL     1      33.259 -23.366 -12.114  0.00  0.00    +0.295 HD
ENDBRANCH  32  33
ENDBRANCH  12  32
TORSDOF 5
ENDMDL
MODEL 7
REMARK VINA RESULT:      -9.2      2.204      3.171
REMARK  Name = 65947
REMARK  5 active torsions:
REMARK  status: ('A' for Active; 'I' for Inactive)
REMARK    1  A    between atoms: C_5  and  N_16
REMARK    2  A    between atoms: C_12  and  C_32
REMARK    3  A    between atoms: N_17  and  C_23
REMARK    4  A    between atoms: C_23  and  C_27
REMARK    5  A    between atoms: C_32  and  O_33
REMARK                            x       y       z     vdW  Elec       q    Type
REMARK                         _______ _______ _______ _____ _____    ______ ____
ROOT
ATOM      1  S   UNL     1      31.826 -23.704 -13.589  0.00  0.00    -0.074 S 
ATOM      2  F   UNL     1      37.152 -20.977 -18.595  0.00  0.00    -0.203 F 
ATOM      3  O   UNL     1      36.969 -23.268 -14.064  0.00  0.00    -0.286 OA
ATOM      4  N   UNL     1      33.167 -22.828 -15.228  0.00  0.00    -0.314 N 
ATOM      5  C   UNL     1      34.835 -21.280 -18.171  0.00  0.00    +0.077 C 
ATOM      6  C   UNL     1      34.129 -22.343 -16.119  0.00  0.00    +0.065 A 
ATOM      7  C   UNL     1      31.757 -22.891 -15.208  0.00  0.00    +0.139 C 
ATOM      8  C   UNL     1      33.445 -23.389 -14.091  0.00  0.00    +0.098 A 
ATOM      9  C   UNL     1      33.813 -21.740 -17.336  0.00  0.00    +0.034 C 
ATOM     10  C   UNL     1      35.485 -22.481 -15.743  0.00  0.00    +0.057 A 
ATOM     11  C   UNL     1      36.172 -21.420 -17.792  0.00  0.00    +0.154 C 
ATOM     12  C   UNL     1      34.666 -23.601 -13.579  0.00  0.00    +0.136 A 
ATOM     13  C   UNL     1      36.504 -22.020 -16.578  0.00  0.00    +0.036 C 
ATOM     14  C   UNL     1      35.808 -23.130 -14.430  0.00  0.00    +0.205 A 
ATOM     15  C   UNL     1      31.216 -23.822 -16.265  0.00  0.00    +0.037 C 
ENDROOT
BRANCH   5  16
ATOM     16  N   UNL     1      34.514 -20.675 -19.390  0.00  0.00    -0.310 N 
ATOM     17  N   UNL     1      33.820 -19.220 -21.748  0.00  0.00    +0.394 N 
ATOM     18  C   UNL     1      35.548 -19.962 -20.144  0.00  0.00    +0.068 C 
ATOM     19  C   UNL     1      33.141 -20.186 -19.576  0.00  0.00    +0.068 C 
ATOM     20  C   UNL     1      35.148 -19.830 -21.615  0.00  0.00    -0.055 C 
ATOM     21  C   UNL     1      32.819 -20.049 -21.067  0.00  0.00    -0.055 C 
ATOM     22  H   UNL     1      33.836 -18.298 -21.311  0.00  0.00    -0.079 HD
BRANCH  17  23
ATOM     23  C   UNL     1      33.471 -19.051 -23.159  0.00  0.00    -0.008 C 
BRANCH  23  27
ATOM     24  O   UNL     1      33.311 -17.189 -24.745  0.00  0.00    -0.397 OA
ATOM     25  O   UNL     1      34.285 -15.468 -23.517  0.00  0.00    -0.395 OA
ATOM     26  O   UNL     1      33.506 -15.085 -25.641  0.00  0.00    -0.202 OA
ATOM     27  C   UNL     1      33.713 -17.622 -23.498  0.00  0.00    +0.139 A 
ATOM     28  C   UNL     1      34.264 -16.649 -22.803  0.00  0.00    +0.158 A 
ATOM     29  C   UNL     1      34.837 -16.630 -21.436  0.00  0.00    +0.076 C 
ATOM     30  C   UNL     1      33.688 -15.856 -24.705  0.00  0.00    +0.521 A 
ENDBRANCH  23  27
ENDBRANCH  17  23
ENDBRANCH   5  16
BRANCH  12  32
ATOM     31  O   UNL     1      34.257 -23.887 -11.255  0.00  0.00    -0.245 OA
ATOM     32  C   UNL     1      34.813 -24.249 -12.281  0.00  0.00    +0.343 C 
BRANCH  32  33
ATOM     33  O   UNL     1      35.653 -25.303 -12.385  0.00  0.00    -0.477 OA
ATOM     34  H   UNL     1      36.577 -25.175 -12.297  0.00  0.00    +0.295 HD
ENDBRANCH  32  33
ENDBRANCH  12  32
TORSDOF 5
ENDMDL
MODEL 8
REMARK VINA RESULT:      -9.1      6.733     10.492
REMARK  Name = 65947
REMARK  5 active torsions:
REMARK  status: ('A' for Active; 'I' for Inactive)
REMARK    1  A    between atoms: C_5  and  N_16
REMARK    2  A    between atoms: C_12  and  C_32
REMARK    3  A    between atoms: N_17  and  C_23
REMARK    4  A    between atoms: C_23  and  C_27
REMARK    5  A    between atoms: C_32  and  O_33
REMARK                            x       y       z     vdW  Elec       q    Type
REMARK                         _______ _______ _______ _____ _____    ______ ____
ROOT
ATOM      1  S   UNL     1      34.534 -16.628 -20.654  0.00  0.00    -0.074 S 
ATOM      2  F   UNL     1      32.248 -11.165 -25.732  0.00  0.00    -0.203 F 
ATOM      3  O   UNL     1      33.260 -16.143 -25.656  0.00  0.00    -0.286 OA
ATOM      4  N   UNL     1      33.875 -14.838 -21.925  0.00  0.00    -0.314 N 
ATOM      5  C   UNL     1      32.866 -11.615 -23.484  0.00  0.00    +0.077 C 
ATOM      6  C   UNL     1      33.465 -13.866 -22.842  0.00  0.00    +0.065 A 
ATOM      7  C   UNL     1      34.202 -14.849 -20.551  0.00  0.00    +0.139 C 
ATOM      8  C   UNL     1      34.057 -16.088 -22.221  0.00  0.00    +0.098 A 
ATOM      9  C   UNL     1      33.277 -12.525 -22.507  0.00  0.00    +0.034 C 
ATOM     10  C   UNL     1      33.237 -14.288 -24.172  0.00  0.00    +0.057 A 
ATOM     11  C   UNL     1      32.642 -12.041 -24.796  0.00  0.00    +0.154 C 
ATOM     12  C   UNL     1      33.888 -16.660 -23.422  0.00  0.00    +0.136 A 
ATOM     13  C   UNL     1      32.826 -13.378 -25.146  0.00  0.00    +0.036 C 
ATOM     14  C   UNL     1      33.445 -15.734 -24.515  0.00  0.00    +0.205 A 
ATOM     15  C   UNL     1      33.002 -14.566 -19.681  0.00  0.00    +0.037 C 
ENDROOT
BRANCH   5  16
ATOM     16  N   UNL     1      32.680 -10.271 -23.144  0.00  0.00    -0.310 N 
ATOM     17  N   UNL     1      32.242  -7.484 -22.700  0.00  0.00    +0.394 N 
ATOM     18  C   UNL     1      31.337  -9.781 -22.822  0.00  0.00    +0.068 C 
ATOM     19  C   UNL     1      33.595  -9.280 -23.726  0.00  0.00    +0.068 C 
ATOM     20  C   UNL     1      31.417  -8.484 -22.013  0.00  0.00    -0.055 C 
ATOM     21  C   UNL     1      33.603  -8.000 -22.886  0.00  0.00    -0.055 C 
ATOM     22  H   UNL     1      31.835  -7.293 -23.616  0.00  0.00    -0.079 HD
BRANCH  17  23
ATOM     23  C   UNL     1      32.268  -6.232 -21.944  0.00  0.00    -0.008 C 
BRANCH  23  27
ATOM     24  O   UNL     1      30.697  -4.576 -22.839  0.00  0.00    -0.397 OA
ATOM     25  O   UNL     1      31.987  -3.590 -24.506  0.00  0.00    -0.395 OA
ATOM     26  O   UNL     1      29.835  -2.887 -24.130  0.00  0.00    -0.202 OA
ATOM     27  C   UNL     1      31.956  -5.138 -22.904  0.00  0.00    +0.139 A 
ATOM     28  C   UNL     1      32.685  -4.580 -23.847  0.00  0.00    +0.158 A 
ATOM     29  C   UNL     1      34.077  -4.843 -24.288  0.00  0.00    +0.076 C 
ATOM     30  C   UNL     1      30.769  -3.628 -23.847  0.00  0.00    +0.521 A 
ENDBRANCH  23  27
ENDBRANCH  17  23
ENDBRANCH   5  16
BRANCH  12  32
ATOM     31  O   UNL     1      35.059 -18.701 -23.086  0.00  0.00    -0.245 OA
ATOM     32  C   UNL     1      34.134 -18.086 -23.595  0.00  0.00    +0.343 C 
BRANCH  32  33
ATOM     33  O   UNL     1      33.188 -18.622 -24.398  0.00  0.00    -0.477 OA
ATOM     34  H   UNL     1      32.945 -19.521 -24.300  0.00  0.00    +0.295 HD
ENDBRANCH  32  33
ENDBRANCH  12  32
TORSDOF 5
ENDMDL
MODEL 9
REMARK VINA RESULT:      -9.1      2.426      3.340
REMARK  Name = 65947
REMARK  5 active torsions:
REMARK  status: ('A' for Active; 'I' for Inactive)
REMARK    1  A    between atoms: C_5  and  N_16
REMARK    2  A    between atoms: C_12  and  C_32
REMARK    3  A    between atoms: N_17  and  C_23
REMARK    4  A    between atoms: C_23  and  C_27
REMARK    5  A    between atoms: C_32  and  O_33
REMARK                            x       y       z     vdW  Elec       q    Type
REMARK                         _______ _______ _______ _____ _____    ______ ____
ROOT
ATOM      1  S   UNL     1      29.707 -23.030 -14.583  0.00  0.00    -0.074 S 
ATOM      2  F   UNL     1      36.190 -21.622 -18.687  0.00  0.00    -0.203 F 
ATOM      3  O   UNL     1      34.811 -23.910 -14.366  0.00  0.00    -0.286 OA
ATOM      4  N   UNL     1      31.440 -22.483 -15.980  0.00  0.00    -0.314 N 
ATOM      5  C   UNL     1      33.836 -21.335 -18.583  0.00  0.00    +0.077 C 
ATOM      6  C   UNL     1      32.607 -22.236 -16.708  0.00  0.00    +0.065 A 
ATOM      7  C   UNL     1      30.070 -22.184 -16.145  0.00  0.00    +0.139 C 
ATOM      8  C   UNL     1      31.407 -23.127 -14.853  0.00  0.00    +0.098 A 
ATOM      9  C   UNL     1      32.625 -21.540 -17.917  0.00  0.00    +0.034 C 
ATOM     10  C   UNL     1      33.820 -22.725 -16.171  0.00  0.00    +0.057 A 
ATOM     11  C   UNL     1      35.029 -21.821 -18.045  0.00  0.00    +0.154 C 
ATOM     12  C   UNL     1      32.453 -23.657 -14.202  0.00  0.00    +0.136 A 
ATOM     13  C   UNL     1      35.028 -22.519 -16.837  0.00  0.00    +0.036 C 
ATOM     14  C   UNL     1      33.783 -23.470 -14.869  0.00  0.00    +0.205 A 
ATOM     15  C   UNL     1      29.468 -22.918 -17.318  0.00  0.00    +0.037 C 
ENDROOT
BRANCH   5  16
ATOM     16  N   UNL     1      33.849 -20.636 -19.795  0.00  0.00    -0.310 N 
ATOM     17  N   UNL     1      33.826 -18.993 -22.132  0.00  0.00    +0.394 N 
ATOM     18  C   UNL     1      35.079 -19.975 -20.240  0.00  0.00    +0.068 C 
ATOM     19  C   UNL     1      32.596 -20.017 -20.248  0.00  0.00    +0.068 C 
ATOM     20  C   UNL     1      35.039 -19.725 -21.750  0.00  0.00    -0.055 C 
ATOM     21  C   UNL     1      32.637 -19.768 -21.758  0.00  0.00    -0.055 C 
ATOM     22  H   UNL     1      33.808 -18.103 -21.635  0.00  0.00    -0.079 HD
BRANCH  17  23
ATOM     23  C   UNL     1      33.824 -18.714 -23.568  0.00  0.00    -0.008 C 
BRANCH  23  27
ATOM     24  O   UNL     1      33.330 -16.724 -24.911  0.00  0.00    -0.397 OA
ATOM     25  O   UNL     1      34.003 -15.029 -23.465  0.00  0.00    -0.395 OA
ATOM     26  O   UNL     1      33.149 -14.524 -25.534  0.00  0.00    -0.202 OA
ATOM     27  C   UNL     1      33.812 -17.234 -23.722  0.00  0.00    +0.139 A 
ATOM     28  C   UNL     1      34.193 -16.275 -22.905  0.00  0.00    +0.158 A 
ATOM     29  C   UNL     1      34.768 -16.329 -21.539  0.00  0.00    +0.076 C 
ATOM     30  C   UNL     1      33.470 -15.362 -24.700  0.00  0.00    +0.521 A 
ENDBRANCH  23  27
ENDBRANCH  17  23
ENDBRANCH   5  16
BRANCH  12  32
ATOM     31  O   UNL     1      31.225 -24.937 -12.620  0.00  0.00    -0.245 OA
ATOM     32  C   UNL     1      32.251 -24.355 -12.938  0.00  0.00    +0.343 C 
BRANCH  32  33
ATOM     33  O   UNL     1      33.364 -24.259 -12.177  0.00  0.00    -0.477 OA
ATOM     34  H   UNL     1      34.074 -24.856 -12.310  0.00  0.00    +0.295 HD
ENDBRANCH  32  33
ENDBRANCH  12  32
TORSDOF 5
ENDMDL
