MODEL 1
REMARK VINA RESULT:     -10.0      0.000      0.000
REMARK  Name = 53262401
REMARK  5 active torsions:
REMARK  status: ('A' for Active; 'I' for Inactive)
REMARK    1  A    between atoms: N_1  and  C_24
REMARK    2  A    between atoms: C_5  and  C_11
REMARK    3  A    between atoms: C_8  and  C_33
REMARK    4  A    between atoms: C_19  and  C_25
REMARK    5  A    between atoms: C_25  and  N_29
REMARK                            x       y       z     vdW  Elec       q    Type
REMARK                         _______ _______ _______ _____ _____    ______ ____
ROOT
ATOM      1  N   UNL     1      31.814  -8.278 -22.448  0.00  0.00    -0.214 N 
ATOM      2  N   UNL     1      30.931  -8.651 -20.437  0.00  0.00    -0.382 NA
ATOM      3  N   UNL     1      32.323 -10.553 -23.122  0.00  0.00    -0.384 NA
ATOM      4  C   UNL     1      31.852  -9.631 -22.266  0.00  0.00    +0.222 C 
ATOM      5  C   UNL     1      31.253  -7.734 -21.324  0.00  0.00    +0.195 C 
ATOM      6  C   UNL     1      31.299  -9.844 -21.011  0.00  0.00    +0.177 C 
ATOM      7  C   UNL     1      31.208 -11.164 -20.552  0.00  0.00    +0.039 C 
ATOM      8  C   UNL     1      32.214 -11.812 -22.634  0.00  0.00    +0.133 C 
ATOM      9  C   UNL     1      31.682 -12.167 -21.398  0.00  0.00    +0.035 C 
ENDROOT
BRANCH   5  11
ATOM     10  N   UNL     1      31.561  -4.239 -20.015  0.00  0.00    -0.229 NA
ATOM     11  C   UNL     1      31.044  -6.312 -21.145  0.00  0.00    +0.076 C 
ATOM     12  C   UNL     1      31.735  -5.566 -20.205  0.00  0.00    +0.129 C 
ATOM     13  C   UNL     1      30.115  -5.654 -21.944  0.00  0.00    +0.008 C 
ATOM     14  C   UNL     1      29.908  -4.289 -21.778  0.00  0.00    +0.021 C 
ATOM     15  C   UNL     1      30.649  -3.633 -20.808  0.00  0.00    +0.100 C 
ATOM     16  N   UNL     1      32.686  -6.223 -19.382  0.00  0.00    -0.343 N 
ATOM     17  H   UNL     1      33.188  -5.713 -18.707  0.00  0.00    +0.144 HD
ATOM     18  H   UNL     1      32.843  -7.189 -19.487  0.00  0.00    +0.144 HD
ENDBRANCH   5  11
BRANCH   1  24
ATOM     19  C   UNL     1      33.178  -6.224 -25.830  0.00  0.00    -0.041 C 
ATOM     20  C   UNL     1      31.835  -6.586 -25.728  0.00  0.00    -0.005 C 
ATOM     21  C   UNL     1      34.067  -6.547 -24.805  0.00  0.00    -0.005 C 
ATOM     22  C   UNL     1      31.380  -7.270 -24.602  0.00  0.00    +0.015 C 
ATOM     23  C   UNL     1      33.612  -7.231 -23.677  0.00  0.00    +0.015 C 
ATOM     24  C   UNL     1      32.268  -7.593 -23.576  0.00  0.00    +0.060 C 
BRANCH  19  25
ATOM     25  C   UNL     1      33.683  -5.463 -27.083  0.00  0.00    -0.029 C 
ATOM     26  C   UNL     1      33.177  -5.859 -28.485  0.00  0.00    -0.016 C 
ATOM     27  C   UNL     1      33.170  -4.039 -27.383  0.00  0.00    -0.016 C 
ATOM     28  C   UNL     1      33.341  -4.376 -28.880  0.00  0.00    -0.003 C 
BRANCH  25  29
ATOM     29  N   UNL     1      35.149  -5.448 -27.096  0.00  0.00    +0.385 N 
ATOM     30  H   UNL     1      35.497  -5.300 -26.148  0.00  0.00    -0.089 HD
ATOM     31  H   UNL     1      35.476  -4.694 -27.699  0.00  0.00    -0.089 HD
ATOM     32  H   UNL     1      35.495  -6.341 -27.449  0.00  0.00    -0.089 HD
ENDBRANCH  25  29
ENDBRANCH  19  25
ENDBRANCH   1  24
BRANCH   8  33
ATOM     33  C   UNL     1      32.710 -12.836 -23.525  0.00  0.00    +0.030 C 
ATOM     34  C   UNL     1      32.546 -12.702 -24.904  0.00  0.00    +0.003 C 
ATOM     35  C   UNL     1      33.355 -13.960 -23.006  0.00  0.00    +0.003 C 
ATOM     36  C   UNL     1      33.024 -13.690 -25.764  0.00  0.00    +0.000 C 
ATOM     37  C   UNL     1      33.834 -14.948 -23.866  0.00  0.00    +0.000 C 
ATOM     38  C   UNL     1      33.669 -14.813 -25.244  0.00  0.00    +0.000 C 
ENDBRANCH   8  33
TORSDOF 5
ENDMDL
MODEL 2
REMARK VINA RESULT:     -10.0     12.907     17.233
REMARK  Name = 53262401
REMARK  5 active torsions:
REMARK  status: ('A' for Active; 'I' for Inactive)
REMARK    1  A    between atoms: N_1  and  C_24
REMARK    2  A    between atoms: C_5  and  C_11
REMARK    3  A    between atoms: C_8  and  C_33
REMARK    4  A    between atoms: C_19  and  C_25
REMARK    5  A    between atoms: C_25  and  N_29
REMARK                            x       y       z     vdW  Elec       q    Type
REMARK                         _______ _______ _______ _____ _____    ______ ____
ROOT
ATOM      1  N   UNL     1      33.153 -23.388 -14.944  0.00  0.00    -0.214 N 
ATOM      2  N   UNL     1      33.114 -24.486 -13.005  0.00  0.00    -0.382 NA
ATOM      3  N   UNL     1      30.777 -23.038 -15.287  0.00  0.00    -0.384 NA
ATOM      4  C   UNL     1      31.836 -23.497 -14.600  0.00  0.00    +0.222 C 
ATOM      5  C   UNL     1      33.881 -23.996 -13.955  0.00  0.00    +0.195 C 
ATOM      6  C   UNL     1      31.831 -24.181 -13.393  0.00  0.00    +0.177 C 
ATOM      7  C   UNL     1      30.592 -24.441 -12.794  0.00  0.00    +0.039 C 
ATOM      8  C   UNL     1      29.604 -23.312 -14.668  0.00  0.00    +0.133 C 
ATOM      9  C   UNL     1      29.454 -23.987 -13.460  0.00  0.00    +0.035 C 
ENDROOT
BRANCH   5  11
ATOM     10  N   UNL     1      37.355 -25.269 -14.537  0.00  0.00    -0.229 NA
ATOM     11  C   UNL     1      35.327 -24.082 -13.968  0.00  0.00    +0.076 C 
ATOM     12  C   UNL     1      36.007 -25.160 -14.511  0.00  0.00    +0.129 C 
ATOM     13  C   UNL     1      36.076 -23.049 -13.417  0.00  0.00    +0.008 C 
ATOM     14  C   UNL     1      37.465 -23.125 -13.425  0.00  0.00    +0.021 C 
ATOM     15  C   UNL     1      38.050 -24.246 -13.991  0.00  0.00    +0.100 C 
ATOM     16  N   UNL     1      35.257 -26.222 -15.077  0.00  0.00    -0.343 N 
ATOM     17  H   UNL     1      35.719 -26.998 -15.468  0.00  0.00    +0.144 HD
ATOM     18  H   UNL     1      34.273 -26.184 -15.078  0.00  0.00    +0.144 HD
ENDBRANCH   5  11
BRANCH   1  24
ATOM     19  C   UNL     1      34.639 -21.537 -18.391  0.00  0.00    -0.041 C 
ATOM     20  C   UNL     1      35.422 -21.595 -17.238  0.00  0.00    -0.005 C 
ATOM     21  C   UNL     1      33.361 -22.096 -18.395  0.00  0.00    -0.005 C 
ATOM     22  C   UNL     1      34.927 -22.211 -16.089  0.00  0.00    +0.015 C 
ATOM     23  C   UNL     1      32.866 -22.713 -17.246  0.00  0.00    +0.015 C 
ATOM     24  C   UNL     1      33.649 -22.771 -16.093  0.00  0.00    +0.060 C 
BRANCH  19  25
ATOM     25  C   UNL     1      35.190 -20.851 -19.668  0.00  0.00    -0.029 C 
ATOM     26  C   UNL     1      34.294 -19.890 -20.477  0.00  0.00    -0.016 C 
ATOM     27  C   UNL     1      36.198 -19.689 -19.549  0.00  0.00    -0.016 C 
ATOM     28  C   UNL     1      35.581 -19.123 -20.846  0.00  0.00    -0.003 C 
BRANCH  25  29
ATOM     29  N   UNL     1      35.739 -21.862 -20.576  0.00  0.00    +0.385 N 
ATOM     30  H   UNL     1      35.244 -22.744 -20.444  0.00  0.00    -0.089 HD
ATOM     31  H   UNL     1      36.730 -21.997 -20.375  0.00  0.00    -0.089 HD
ATOM     32  H   UNL     1      35.627 -21.550 -21.541  0.00  0.00    -0.089 HD
ENDBRANCH  25  29
ENDBRANCH  19  25
ENDBRANCH   1  24
BRANCH   8  33
ATOM     33  C   UNL     1      28.437 -22.834 -15.375  0.00  0.00    +0.030 C 
ATOM     34  C   UNL     1      27.496 -22.044 -14.715  0.00  0.00    +0.003 C 
ATOM     35  C   UNL     1      28.252 -23.162 -16.719  0.00  0.00    +0.003 C 
ATOM     36  C   UNL     1      26.370 -21.583 -15.397  0.00  0.00    +0.000 C 
ATOM     37  C   UNL     1      27.127 -22.700 -17.401  0.00  0.00    +0.000 C 
ATOM     38  C   UNL     1      26.186 -21.911 -16.741  0.00  0.00    +0.000 C 
ENDBRANCH   8  33
TORSDOF 5
ENDMDL
MODEL 3
REMARK VINA RESULT:      -8.9      1.401      2.005
REMARK  Name = 53262401
REMARK  5 active torsions:
REMARK  status: ('A' for Active; 'I' for Inactive)
REMARK    1  A    between atoms: N_1  and  C_24
REMARK    2  A    between atoms: C_5  and  C_11
REMARK    3  A    between atoms: C_8  and  C_33
REMARK    4  A    between atoms: C_19  and  C_25
REMARK    5  A    between atoms: C_25  and  N_29
REMARK                            x       y       z     vdW  Elec       q    Type
REMARK                         _______ _______ _______ _____ _____    ______ ____
ROOT
ATOM      1  N   UNL     1      31.836  -6.961 -22.985  0.00  0.00    -0.214 N 
ATOM      2  N   UNL     1      30.860  -6.848 -20.986  0.00  0.00    -0.382 NA
ATOM      3  N   UNL     1      32.284  -9.343 -23.110  0.00  0.00    -0.384 NA
ATOM      4  C   UNL     1      31.814  -8.239 -22.504  0.00  0.00    +0.222 C 
ATOM      5  C   UNL     1      31.252  -6.163 -22.039  0.00  0.00    +0.195 C 
ATOM      6  C   UNL     1      31.204  -8.149 -21.261  0.00  0.00    +0.177 C 
ATOM      7  C   UNL     1      31.045  -9.330 -20.525  0.00  0.00    +0.039 C 
ATOM      8  C   UNL     1      32.107 -10.456 -22.360  0.00  0.00    +0.133 C 
ATOM      9  C   UNL     1      31.513 -10.510 -21.102  0.00  0.00    +0.035 C 
ENDROOT
BRANCH   5  11
ATOM     10  N   UNL     1      29.741  -2.737 -21.986  0.00  0.00    -0.229 NA
ATOM     11  C   UNL     1      31.090  -4.732 -22.192  0.00  0.00    +0.076 C 
ATOM     12  C   UNL     1      29.921  -4.070 -21.854  0.00  0.00    +0.129 C 
ATOM     13  C   UNL     1      32.143  -3.977 -22.698  0.00  0.00    +0.008 C 
ATOM     14  C   UNL     1      31.995  -2.602 -22.849  0.00  0.00    +0.021 C 
ATOM     15  C   UNL     1      30.785  -2.036 -22.482  0.00  0.00    +0.100 C 
ATOM     16  N   UNL     1      28.838  -4.826 -21.336  0.00  0.00    -0.343 N 
ATOM     17  H   UNL     1      27.998  -4.377 -21.090  0.00  0.00    +0.144 HD
ATOM     18  H   UNL     1      28.927  -5.800 -21.225  0.00  0.00    +0.144 HD
ENDBRANCH   5  11
BRANCH   1  24
ATOM     19  C   UNL     1      33.410  -5.758 -26.672  0.00  0.00    -0.041 C 
ATOM     20  C   UNL     1      32.032  -5.897 -26.515  0.00  0.00    -0.005 C 
ATOM     21  C   UNL     1      34.265  -6.020 -25.601  0.00  0.00    -0.005 C 
ATOM     22  C   UNL     1      31.507  -6.298 -25.287  0.00  0.00    +0.015 C 
ATOM     23  C   UNL     1      33.740  -6.420 -24.372  0.00  0.00    +0.015 C 
ATOM     24  C   UNL     1      32.361  -6.560 -24.215  0.00  0.00    +0.060 C 
BRANCH  19  25
ATOM     25  C   UNL     1      33.994  -5.312 -28.038  0.00  0.00    -0.029 C 
ATOM     26  C   UNL     1      33.406  -5.871 -29.350  0.00  0.00    -0.016 C 
ATOM     27  C   UNL     1      33.687  -3.904 -28.588  0.00  0.00    -0.016 C 
ATOM     28  C   UNL     1      33.775  -4.521 -30.000  0.00  0.00    -0.003 C 
BRANCH  25  29
ATOM     29  N   UNL     1      35.446  -5.516 -28.047  0.00  0.00    +0.385 N 
ATOM     30  H   UNL     1      35.773  -5.590 -29.010  0.00  0.00    -0.089 HD
ATOM     31  H   UNL     1      35.672  -6.374 -27.544  0.00  0.00    -0.089 HD
ATOM     32  H   UNL     1      35.903  -4.725 -27.592  0.00  0.00    -0.089 HD
ENDBRANCH  25  29
ENDBRANCH  19  25
ENDBRANCH   1  24
BRANCH   8  33
ATOM     33  C   UNL     1      32.599 -11.668 -22.976  0.00  0.00    +0.030 C 
ATOM     34  C   UNL     1      33.234 -12.638 -22.200  0.00  0.00    +0.003 C 
ATOM     35  C   UNL     1      32.438 -11.868 -24.348  0.00  0.00    +0.003 C 
ATOM     36  C   UNL     1      33.709 -13.807 -22.795  0.00  0.00    +0.000 C 
ATOM     37  C   UNL     1      32.912 -13.037 -24.942  0.00  0.00    +0.000 C 
ATOM     38  C   UNL     1      33.548 -14.006 -24.166  0.00  0.00    +0.000 C 
ENDBRANCH   8  33
TORSDOF 5
ENDMDL
MODEL 4
REMARK VINA RESULT:      -8.5     13.112     18.215
REMARK  Name = 53262401
REMARK  5 active torsions:
REMARK  status: ('A' for Active; 'I' for Inactive)
REMARK    1  A    between atoms: N_1  and  C_24
REMARK    2  A    between atoms: C_5  and  C_11
REMARK    3  A    between atoms: C_8  and  C_33
REMARK    4  A    between atoms: C_19  and  C_25
REMARK    5  A    between atoms: C_25  and  N_29
REMARK                            x       y       z     vdW  Elec       q    Type
REMARK                         _______ _______ _______ _____ _____    ______ ____
ROOT
ATOM      1  N   UNL     1      35.105 -22.735 -14.740  0.00  0.00    -0.214 N 
ATOM      2  N   UNL     1      37.277 -22.409 -14.365  0.00  0.00    -0.382 NA
ATOM      3  N   UNL     1      34.886 -21.696 -16.921  0.00  0.00    -0.384 NA
ATOM      4  C   UNL     1      35.581 -22.074 -15.836  0.00  0.00    +0.222 C 
ATOM      5  C   UNL     1      36.160 -22.914 -13.886  0.00  0.00    +0.195 C 
ATOM      6  C   UNL     1      36.932 -21.880 -15.585  0.00  0.00    +0.177 C 
ATOM      7  C   UNL     1      37.688 -21.214 -16.558  0.00  0.00    +0.039 C 
ATOM      8  C   UNL     1      35.659 -21.056 -17.831  0.00  0.00    +0.133 C 
ATOM      9  C   UNL     1      37.021 -20.796 -17.709  0.00  0.00    +0.035 C 
ENDROOT
BRANCH   5  11
ATOM     10  N   UNL     1      36.329 -25.552 -11.233  0.00  0.00    -0.229 NA
ATOM     11  C   UNL     1      36.046 -23.583 -12.606  0.00  0.00    +0.076 C 
ATOM     12  C   UNL     1      36.425 -24.901 -12.414  0.00  0.00    +0.129 C 
ATOM     13  C   UNL     1      35.536 -22.887 -11.516  0.00  0.00    +0.008 C 
ATOM     14  C   UNL     1      35.421 -23.523 -10.284  0.00  0.00    +0.021 C 
ATOM     15  C   UNL     1      35.828 -24.844 -10.196  0.00  0.00    +0.100 C 
ATOM     16  N   UNL     1      36.947 -25.625 -13.517  0.00  0.00    -0.343 N 
ATOM     17  H   UNL     1      37.223 -26.563 -13.404  0.00  0.00    +0.144 HD
ATOM     18  H   UNL     1      37.033 -25.189 -14.396  0.00  0.00    +0.144 HD
ENDBRANCH   5  11
BRANCH   1  24
ATOM     19  C   UNL     1      31.147 -23.962 -14.148  0.00  0.00    -0.041 C 
ATOM     20  C   UNL     1      32.198 -24.731 -13.648  0.00  0.00    -0.005 C 
ATOM     21  C   UNL     1      31.416 -22.784 -14.845  0.00  0.00    -0.005 C 
ATOM     22  C   UNL     1      33.517 -24.323 -13.845  0.00  0.00    +0.015 C 
ATOM     23  C   UNL     1      32.735 -22.374 -15.042  0.00  0.00    +0.015 C 
ATOM     24  C   UNL     1      33.786 -23.145 -14.542  0.00  0.00    +0.060 C 
BRANCH  19  25
ATOM     25  C   UNL     1      29.681 -24.416 -13.928  0.00  0.00    -0.029 C 
ATOM     26  C   UNL     1      28.523 -23.633 -14.580  0.00  0.00    -0.016 C 
ATOM     27  C   UNL     1      29.142 -25.667 -14.652  0.00  0.00    -0.016 C 
ATOM     28  C   UNL     1      27.763 -24.974 -14.661  0.00  0.00    -0.003 C 
BRANCH  25  29
ATOM     29  N   UNL     1      29.413 -24.549 -12.493  0.00  0.00    +0.385 N 
ATOM     30  H   UNL     1      28.411 -24.459 -12.325  0.00  0.00    -0.089 HD
ATOM     31  H   UNL     1      29.909 -23.817 -11.985  0.00  0.00    -0.089 HD
ATOM     32  H   UNL     1      29.731 -25.463 -12.171  0.00  0.00    -0.089 HD
ENDBRANCH  25  29
ENDBRANCH  19  25
ENDBRANCH   1  24
BRANCH   8  33
ATOM     33  C   UNL     1      34.949 -20.632 -19.017  0.00  0.00    +0.030 C 
ATOM     34  C   UNL     1      33.582 -20.880 -19.138  0.00  0.00    +0.003 C 
ATOM     35  C   UNL     1      35.631 -19.973 -20.040  0.00  0.00    +0.003 C 
ATOM     36  C   UNL     1      32.897 -20.472 -20.282  0.00  0.00    +0.000 C 
ATOM     37  C   UNL     1      34.946 -19.563 -21.184  0.00  0.00    +0.000 C 
ATOM     38  C   UNL     1      33.580 -19.812 -21.305  0.00  0.00    +0.000 C 
ENDBRANCH   8  33
TORSDOF 5
ENDMDL
