MODEL 1
REMARK VINA RESULT:     -12.0      0.000      0.000
REMARK  Name = 44200882
REMARK  8 active torsions:
REMARK  status: ('A' for Active; 'I' for Inactive)
REMARK    1  A    between atoms: C_1  and  C_5
REMARK    2  A    between atoms: C_1  and  N_15
REMARK    3  A    between atoms: C_1  and  C_27
REMARK    4  A    between atoms: C_6  and  C_7
REMARK    5  A    between atoms: C_12  and  C_14
REMARK    6  A    between atoms: N_15  and  C_18
REMARK    7  A    between atoms: C_24  and  C_26
REMARK    8  A    between atoms: C_27  and  O_29
REMARK                            x       y       z     vdW  Elec       q    Type
REMARK                         _______ _______ _______ _____ _____    ______ ____
ROOT
ATOM      1  C   UNL     1      34.629 -16.053 -22.897  0.00  0.00    +0.175 C 
ENDROOT
BRANCH   1   5
ATOM      2  O   UNL     1      34.367 -17.993 -21.421  0.00  0.00    -0.418 OA
ATOM      3  N   UNL     1      36.431 -17.750 -22.249  0.00  0.00    -0.110 NA
ATOM      4  N   UNL     1      36.424 -18.872 -21.441  0.00  0.00    -0.107 NA
ATOM      5  C   UNL     1      35.210 -17.269 -22.208  0.00  0.00    +0.246 A 
ATOM      6  C   UNL     1      35.199 -18.974 -20.979  0.00  0.00    +0.250 A 
BRANCH   6   7
ATOM      7  C   UNL     1      34.614 -19.944 -20.099  0.00  0.00    +0.055 C 
ATOM      8  C   UNL     1      35.431 -20.738 -19.294  0.00  0.00    +0.005 C 
ATOM      9  C   UNL     1      33.228 -20.092 -20.047  0.00  0.00    +0.005 C 
ATOM     10  C   UNL     1      34.862 -21.680 -18.438  0.00  0.00    +0.010 C 
ATOM     11  C   UNL     1      32.659 -21.034 -19.191  0.00  0.00    +0.010 C 
ATOM     12  C   UNL     1      33.476 -21.828 -18.385  0.00  0.00    +0.068 C 
BRANCH  12  14
ATOM     13  N   UNL     1      32.419 -23.575 -16.793  0.00  0.00    -0.191 NA
ATOM     14  C   UNL     1      32.893 -22.792 -17.507  0.00  0.00    +0.100 C 
ENDBRANCH  12  14
ENDBRANCH   6   7
ENDBRANCH   1   5
BRANCH   1  15
ATOM     15  N   UNL     1      33.928 -15.247 -21.910  0.00  0.00    -0.325 N 
ATOM     16  H   UNL     1      33.778 -15.630 -21.015  0.00  0.00    +0.147 HD
BRANCH  15  18
ATOM     17 CL   UNL     1      31.132 -11.230 -20.394  0.00  0.00    -0.082 Cl
ATOM     18  C   UNL     1      33.463 -13.972 -22.163  0.00  0.00    +0.042 C 
ATOM     19  C   UNL     1      32.629 -13.320 -21.256  0.00  0.00    +0.003 C 
ATOM     20  C   UNL     1      33.840 -13.337 -23.346  0.00  0.00    +0.015 C 
ATOM     21  C   UNL     1      32.171 -12.031 -21.531  0.00  0.00    +0.064 C 
ATOM     22  C   UNL     1      32.236 -14.019 -19.990  0.00  0.00    +0.033 C 
ATOM     23  C   UNL     1      33.383 -12.049 -23.622  0.00  0.00    +0.012 C 
ATOM     24  C   UNL     1      32.548 -11.396 -22.715  0.00  0.00    +0.079 C 
BRANCH  24  26
ATOM     25  N   UNL     1      31.743  -9.003 -23.307  0.00  0.00    -0.191 NA
ATOM     26  C   UNL     1      32.103 -10.073 -23.043  0.00  0.00    +0.101 C 
ENDBRANCH  24  26
ENDBRANCH  15  18
ENDBRANCH   1  15
BRANCH   1  27
ATOM     27  C   UNL     1      33.666 -16.379 -24.057  0.00  0.00    +0.137 C 
ATOM     28  C   UNL     1      33.520 -17.876 -24.312  0.00  0.00    +0.034 C 
BRANCH  27  29
ATOM     29  O   UNL     1      34.185 -15.809 -25.263  0.00  0.00    -0.382 OA
ATOM     30  H   UNL     1      33.784 -14.937 -25.406  0.00  0.00    +0.210 HD
ENDBRANCH  27  29
ENDBRANCH   1  27
TORSDOF 8
ENDMDL
MODEL 2
REMARK VINA RESULT:     -11.5      5.701     11.753
REMARK  Name = 44200882
REMARK  8 active torsions:
REMARK  status: ('A' for Active; 'I' for Inactive)
REMARK    1  A    between atoms: C_1  and  C_5
REMARK    2  A    between atoms: C_1  and  N_15
REMARK    3  A    between atoms: C_1  and  C_27
REMARK    4  A    between atoms: C_6  and  C_7
REMARK    5  A    between atoms: C_12  and  C_14
REMARK    6  A    between atoms: N_15  and  C_18
REMARK    7  A    between atoms: C_24  and  C_26
REMARK    8  A    between atoms: C_27  and  O_29
REMARK                            x       y       z     vdW  Elec       q    Type
REMARK                         _______ _______ _______ _____ _____    ______ ____
ROOT
ATOM      1  C   UNL     1      33.326 -23.141 -14.601  0.00  0.00    +0.175 C 
ENDROOT
BRANCH   1   5
ATOM      2  O   UNL     1      33.759 -21.996 -16.724  0.00  0.00    -0.418 OA
ATOM      3  N   UNL     1      32.995 -24.086 -16.956  0.00  0.00    -0.110 NA
ATOM      4  N   UNL     1      33.195 -23.562 -18.219  0.00  0.00    -0.107 NA
ATOM      5  C   UNL     1      33.337 -23.138 -16.114  0.00  0.00    +0.246 A 
ATOM      6  C   UNL     1      33.641 -22.341 -18.035  0.00  0.00    +0.250 A 
BRANCH   6   7
ATOM      7  C   UNL     1      34.017 -21.334 -18.985  0.00  0.00    +0.055 C 
ATOM      8  C   UNL     1      33.034 -20.643 -19.695  0.00  0.00    +0.005 C 
ATOM      9  C   UNL     1      35.365 -21.045 -19.199  0.00  0.00    +0.005 C 
ATOM     10  C   UNL     1      33.400 -19.664 -20.618  0.00  0.00    +0.010 C 
ATOM     11  C   UNL     1      35.730 -20.066 -20.123  0.00  0.00    +0.010 C 
ATOM     12  C   UNL     1      34.748 -19.374 -20.832  0.00  0.00    +0.068 C 
BRANCH  12  14
ATOM     13  N   UNL     1      35.425 -17.555 -22.544  0.00  0.00    -0.191 NA
ATOM     14  C   UNL     1      35.122 -18.371 -21.776  0.00  0.00    +0.100 C 
ENDBRANCH  12  14
ENDBRANCH   6   7
ENDBRANCH   1   5
BRANCH   1  15
ATOM     15  N   UNL     1      33.847 -24.415 -14.132  0.00  0.00    -0.325 N 
ATOM     16  H   UNL     1      33.205 -25.112 -13.864  0.00  0.00    +0.147 HD
BRANCH  15  18
ATOM     17 CL   UNL     1      38.331 -23.646 -11.776  0.00  0.00    -0.082 Cl
ATOM     18  C   UNL     1      35.195 -24.698 -14.044  0.00  0.00    +0.042 C 
ATOM     19  C   UNL     1      35.990 -24.099 -13.067  0.00  0.00    +0.003 C 
ATOM     20  C   UNL     1      35.759 -25.596 -14.949  0.00  0.00    +0.015 C 
ATOM     21  C   UNL     1      37.351 -24.399 -12.995  0.00  0.00    +0.064 C 
ATOM     22  C   UNL     1      35.366 -23.136 -12.104  0.00  0.00    +0.033 C 
ATOM     23  C   UNL     1      37.119 -25.897 -14.877  0.00  0.00    +0.012 C 
ATOM     24  C   UNL     1      37.915 -25.298 -13.900  0.00  0.00    +0.079 C 
BRANCH  24  26
ATOM     25  N   UNL     1      40.434 -25.913 -13.840  0.00  0.00    -0.191 NA
ATOM     26  C   UNL     1      39.307 -25.638 -13.868  0.00  0.00    +0.101 C 
ENDBRANCH  24  26
ENDBRANCH  15  18
ENDBRANCH   1  15
BRANCH   1  27
ATOM     27  C   UNL     1      31.936 -22.904 -13.975  0.00  0.00    +0.137 C 
ATOM     28  C   UNL     1      31.288 -24.184 -13.454  0.00  0.00    +0.034 C 
BRANCH  27  29
ATOM     29  O   UNL     1      31.058 -22.384 -14.979  0.00  0.00    -0.382 OA
ATOM     30  H   UNL     1      30.138 -22.485 -14.687  0.00  0.00    +0.210 HD
ENDBRANCH  27  29
ENDBRANCH   1  27
TORSDOF 8
ENDMDL
MODEL 3
REMARK VINA RESULT:     -11.4      5.793     10.437
REMARK  Name = 44200882
REMARK  8 active torsions:
REMARK  status: ('A' for Active; 'I' for Inactive)
REMARK    1  A    between atoms: C_1  and  C_5
REMARK    2  A    between atoms: C_1  and  N_15
REMARK    3  A    between atoms: C_1  and  C_27
REMARK    4  A    between atoms: C_6  and  C_7
REMARK    5  A    between atoms: C_12  and  C_14
REMARK    6  A    between atoms: N_15  and  C_18
REMARK    7  A    between atoms: C_24  and  C_26
REMARK    8  A    between atoms: C_27  and  O_29
REMARK                            x       y       z     vdW  Elec       q    Type
REMARK                         _______ _______ _______ _____ _____    ______ ____
ROOT
ATOM      1  C   UNL     1      34.376 -23.738 -14.854  0.00  0.00    +0.175 C 
ENDROOT
BRANCH   1   5
ATOM      2  O   UNL     1      34.510 -22.372 -16.885  0.00  0.00    -0.418 OA
ATOM      3  N   UNL     1      36.425 -22.483 -15.733  0.00  0.00    -0.110 NA
ATOM      4  N   UNL     1      36.640 -21.689 -16.845  0.00  0.00    -0.107 NA
ATOM      5  C   UNL     1      35.169 -22.859 -15.798  0.00  0.00    +0.246 A 
ATOM      6  C   UNL     1      35.496 -21.653 -17.487  0.00  0.00    +0.250 A 
BRANCH   6   7
ATOM      7  C   UNL     1      35.132 -20.983 -18.702  0.00  0.00    +0.055 C 
ATOM      8  C   UNL     1      36.102 -20.317 -19.449  0.00  0.00    +0.005 C 
ATOM      9  C   UNL     1      33.806 -21.000 -19.136  0.00  0.00    +0.005 C 
ATOM     10  C   UNL     1      35.747 -19.666 -20.631  0.00  0.00    +0.010 C 
ATOM     11  C   UNL     1      33.451 -20.349 -20.317  0.00  0.00    +0.010 C 
ATOM     12  C   UNL     1      34.422 -19.683 -21.066  0.00  0.00    +0.068 C 
BRANCH  12  14
ATOM     13  N   UNL     1      33.763 -18.477 -23.261  0.00  0.00    -0.191 NA
ATOM     14  C   UNL     1      34.059 -19.018 -22.277  0.00  0.00    +0.100 C 
ENDBRANCH  12  14
ENDBRANCH   6   7
ENDBRANCH   1   5
BRANCH   1  15
ATOM     15  N   UNL     1      33.242 -22.979 -14.350  0.00  0.00    -0.325 N 
ATOM     16  H   UNL     1      33.389 -22.367 -13.594  0.00  0.00    +0.147 HD
BRANCH  15  18
ATOM     17 CL   UNL     1      28.566 -25.065 -14.150  0.00  0.00    -0.082 Cl
ATOM     18  C   UNL     1      31.970 -23.074 -14.879  0.00  0.00    +0.042 C 
ATOM     19  C   UNL     1      31.020 -23.923 -14.313  0.00  0.00    +0.003 C 
ATOM     20  C   UNL     1      31.642 -22.304 -15.994  0.00  0.00    +0.015 C 
ATOM     21  C   UNL     1      29.741 -24.003 -14.863  0.00  0.00    +0.064 C 
ATOM     22  C   UNL     1      31.393 -24.742 -13.114  0.00  0.00    +0.033 C 
ATOM     23  C   UNL     1      30.363 -22.383 -16.544  0.00  0.00    +0.012 C 
ATOM     24  C   UNL     1      29.412 -23.233 -15.979  0.00  0.00    +0.079 C 
BRANCH  24  26
ATOM     25  N   UNL     1      27.059 -23.318 -17.065  0.00  0.00    -0.191 NA
ATOM     26  C   UNL     1      28.112 -23.280 -16.580  0.00  0.00    +0.101 C 
ENDBRANCH  24  26
ENDBRANCH  15  18
ENDBRANCH   1  15
BRANCH   1  27
ATOM     27  C   UNL     1      35.187 -24.284 -13.660  0.00  0.00    +0.137 C 
ATOM     28  C   UNL     1      35.519 -23.215 -12.624  0.00  0.00    +0.034 C 
BRANCH  27  29
ATOM     29  O   UNL     1      36.437 -24.786 -14.142  0.00  0.00    -0.382 OA
ATOM     30  H   UNL     1      36.740 -24.241 -14.886  0.00  0.00    +0.210 HD
ENDBRANCH  27  29
ENDBRANCH   1  27
TORSDOF 8
ENDMDL
MODEL 4
REMARK VINA RESULT:     -11.1      3.879      7.221
REMARK  Name = 44200882
REMARK  8 active torsions:
REMARK  status: ('A' for Active; 'I' for Inactive)
REMARK    1  A    between atoms: C_1  and  C_5
REMARK    2  A    between atoms: C_1  and  N_15
REMARK    3  A    between atoms: C_1  and  C_27
REMARK    4  A    between atoms: C_6  and  C_7
REMARK    5  A    between atoms: C_12  and  C_14
REMARK    6  A    between atoms: N_15  and  C_18
REMARK    7  A    between atoms: C_24  and  C_26
REMARK    8  A    between atoms: C_27  and  O_29
REMARK                            x       y       z     vdW  Elec       q    Type
REMARK                         _______ _______ _______ _____ _____    ______ ____
ROOT
ATOM      1  C   UNL     1      31.373  -9.622 -22.178  0.00  0.00    +0.175 C 
ENDROOT
BRANCH   1   5
ATOM      2  O   UNL     1      32.485 -11.803 -22.080  0.00  0.00    -0.418 OA
ATOM      3  N   UNL     1      32.770 -10.722 -24.018  0.00  0.00    -0.110 NA
ATOM      4  N   UNL     1      33.444 -11.926 -24.097  0.00  0.00    -0.107 NA
ATOM      5  C   UNL     1      32.226 -10.693 -22.823  0.00  0.00    +0.246 A 
ATOM      6  C   UNL     1      33.250 -12.523 -22.945  0.00  0.00    +0.250 A 
BRANCH   6   7
ATOM      7  C   UNL     1      33.711 -13.794 -22.466  0.00  0.00    +0.055 C 
ATOM      8  C   UNL     1      34.195 -14.745 -23.365  0.00  0.00    +0.005 C 
ATOM      9  C   UNL     1      33.675 -14.080 -21.101  0.00  0.00    +0.005 C 
ATOM     10  C   UNL     1      34.643 -15.981 -22.898  0.00  0.00    +0.010 C 
ATOM     11  C   UNL     1      34.123 -15.316 -20.635  0.00  0.00    +0.010 C 
ATOM     12  C   UNL     1      34.608 -16.266 -21.534  0.00  0.00    +0.068 C 
BRANCH  12  14
ATOM     13  N   UNL     1      35.443 -18.559 -20.668  0.00  0.00    -0.191 NA
ATOM     14  C   UNL     1      35.069 -17.531 -21.056  0.00  0.00    +0.100 C 
ENDBRANCH  12  14
ENDBRANCH   6   7
ENDBRANCH   1   5
BRANCH   1  15
ATOM     15  N   UNL     1      32.241  -8.557 -21.700  0.00  0.00    -0.325 N 
ATOM     16  H   UNL     1      32.939  -8.783 -21.044  0.00  0.00    +0.147 HD
BRANCH  15  18
ATOM     17 CL   UNL     1      34.138  -4.688 -24.472  0.00  0.00    -0.082 Cl
ATOM     18  C   UNL     1      32.136  -7.246 -22.120  0.00  0.00    +0.042 C 
ATOM     19  C   UNL     1      33.080  -6.693 -22.985  0.00  0.00    +0.003 C 
ATOM     20  C   UNL     1      31.067  -6.474 -21.668  0.00  0.00    +0.015 C 
ATOM     21  C   UNL     1      32.955  -5.366 -23.397  0.00  0.00    +0.064 C 
ATOM     22  C   UNL     1      34.222  -7.539 -23.459  0.00  0.00    +0.033 C 
ATOM     23  C   UNL     1      30.941  -5.148 -22.080  0.00  0.00    +0.012 C 
ATOM     24  C   UNL     1      31.885  -4.593 -22.945  0.00  0.00    +0.079 C 
BRANCH  24  26
ATOM     25  N   UNL     1      31.574  -2.120 -23.659  0.00  0.00    -0.191 NA
ATOM     26  C   UNL     1      31.714  -3.226 -23.339  0.00  0.00    +0.101 C 
ENDBRANCH  24  26
ENDBRANCH  15  18
ENDBRANCH   1  15
BRANCH   1  27
ATOM     27  C   UNL     1      30.500 -10.122 -21.008  0.00  0.00    +0.137 C 
ATOM     28  C   UNL     1      31.138  -9.890 -19.642  0.00  0.00    +0.034 C 
BRANCH  27  29
ATOM     29  O   UNL     1      30.319 -11.536 -21.138  0.00  0.00    -0.382 OA
ATOM     30  H   UNL     1      29.829 -11.725 -21.954  0.00  0.00    +0.210 HD
ENDBRANCH  27  29
ENDBRANCH   1  27
TORSDOF 8
ENDMDL
MODEL 5
REMARK VINA RESULT:     -10.9      4.215     10.222
REMARK  Name = 44200882
REMARK  8 active torsions:
REMARK  status: ('A' for Active; 'I' for Inactive)
REMARK    1  A    between atoms: C_1  and  C_5
REMARK    2  A    between atoms: C_1  and  N_15
REMARK    3  A    between atoms: C_1  and  C_27
REMARK    4  A    between atoms: C_6  and  C_7
REMARK    5  A    between atoms: C_12  and  C_14
REMARK    6  A    between atoms: N_15  and  C_18
REMARK    7  A    between atoms: C_24  and  C_26
REMARK    8  A    between atoms: C_27  and  O_29
REMARK                            x       y       z     vdW  Elec       q    Type
REMARK                         _______ _______ _______ _____ _____    ______ ____
ROOT
ATOM      1  C   UNL     1      34.057 -21.391 -18.025  0.00  0.00    +0.175 C 
ENDROOT
BRANCH   1   5
ATOM      2  O   UNL     1      34.150 -19.816 -19.901  0.00  0.00    -0.418 OA
ATOM      3  N   UNL     1      36.157 -20.502 -19.186  0.00  0.00    -0.110 NA
ATOM      4  N   UNL     1      36.354 -19.627 -20.238  0.00  0.00    -0.107 NA
ATOM      5  C   UNL     1      34.856 -20.583 -19.025  0.00  0.00    +0.246 A 
ATOM      6  C   UNL     1      35.157 -19.252 -20.623  0.00  0.00    +0.250 A 
BRANCH   6   7
ATOM      7  C   UNL     1      34.753 -18.355 -21.668  0.00  0.00    +0.055 C 
ATOM      8  C   UNL     1      34.207 -18.860 -22.848  0.00  0.00    +0.005 C 
ATOM      9  C   UNL     1      34.906 -16.979 -21.503  0.00  0.00    +0.005 C 
ATOM     10  C   UNL     1      33.814 -17.988 -23.863  0.00  0.00    +0.010 C 
ATOM     11  C   UNL     1      34.513 -16.107 -22.518  0.00  0.00    +0.010 C 
ATOM     12  C   UNL     1      33.966 -16.612 -23.698  0.00  0.00    +0.068 C 
BRANCH  12  14
ATOM     13  N   UNL     1      33.234 -14.993 -25.581  0.00  0.00    -0.191 NA
ATOM     14  C   UNL     1      33.562 -15.719 -24.737  0.00  0.00    +0.100 C 
ENDBRANCH  12  14
ENDBRANCH   6   7
ENDBRANCH   1   5
BRANCH   1  15
ATOM     15  N   UNL     1      34.916 -22.421 -17.463  0.00  0.00    -0.325 N 
ATOM     16  H   UNL     1      35.547 -22.881 -18.062  0.00  0.00    +0.147 HD
BRANCH  15  18
ATOM     17 CL   UNL     1      37.232 -22.457 -12.893  0.00  0.00    -0.082 Cl
ATOM     18  C   UNL     1      34.891 -22.787 -16.132  0.00  0.00    +0.042 C 
ATOM     19  C   UNL     1      35.951 -22.473 -15.283  0.00  0.00    +0.003 C 
ATOM     20  C   UNL     1      33.784 -23.480 -15.642  0.00  0.00    +0.015 C 
ATOM     21  C   UNL     1      35.905 -22.853 -13.941  0.00  0.00    +0.064 C 
ATOM     22  C   UNL     1      37.131 -21.729 -15.829  0.00  0.00    +0.033 C 
ATOM     23  C   UNL     1      33.737 -23.859 -14.300  0.00  0.00    +0.012 C 
ATOM     24  C   UNL     1      34.798 -23.545 -13.450  0.00  0.00    +0.079 C 
BRANCH  24  26
ATOM     25  N   UNL     1      34.630 -24.291 -10.972  0.00  0.00    -0.191 NA
ATOM     26  C   UNL     1      34.705 -23.957 -12.080  0.00  0.00    +0.101 C 
ENDBRANCH  24  26
ENDBRANCH  15  18
ENDBRANCH   1  15
BRANCH   1  27
ATOM     27  C   UNL     1      32.791 -22.053 -18.608  0.00  0.00    +0.137 C 
ATOM     28  C   UNL     1      31.624 -22.082 -17.627  0.00  0.00    +0.034 C 
BRANCH  27  29
ATOM     29  O   UNL     1      33.088 -23.416 -18.928  0.00  0.00    -0.382 OA
ATOM     30  H   UNL     1      32.813 -23.601 -19.840  0.00  0.00    +0.210 HD
ENDBRANCH  27  29
ENDBRANCH   1  27
TORSDOF 8
ENDMDL
MODEL 6
REMARK VINA RESULT:     -10.6      3.701      6.880
REMARK  Name = 44200882
REMARK  8 active torsions:
REMARK  status: ('A' for Active; 'I' for Inactive)
REMARK    1  A    between atoms: C_1  and  C_5
REMARK    2  A    between atoms: C_1  and  N_15
REMARK    3  A    between atoms: C_1  and  C_27
REMARK    4  A    between atoms: C_6  and  C_7
REMARK    5  A    between atoms: C_12  and  C_14
REMARK    6  A    between atoms: N_15  and  C_18
REMARK    7  A    between atoms: C_24  and  C_26
REMARK    8  A    between atoms: C_27  and  O_29
REMARK                            x       y       z     vdW  Elec       q    Type
REMARK                         _______ _______ _______ _____ _____    ______ ____
ROOT
ATOM      1  C   UNL     1      31.376  -9.982 -22.294  0.00  0.00    +0.175 C 
ENDROOT
BRANCH   1   5
ATOM      2  O   UNL     1      32.523 -12.144 -22.156  0.00  0.00    -0.418 OA
ATOM      3  N   UNL     1      33.029 -10.958 -23.985  0.00  0.00    -0.110 NA
ATOM      4  N   UNL     1      33.740 -12.143 -24.033  0.00  0.00    -0.107 NA
ATOM      5  C   UNL     1      32.333 -11.001 -22.872  0.00  0.00    +0.246 A 
ATOM      6  C   UNL     1      33.413 -12.803 -22.947  0.00  0.00    +0.250 A 
BRANCH   6   7
ATOM      7  C   UNL     1      33.840 -14.088 -22.473  0.00  0.00    +0.055 C 
ATOM      8  C   UNL     1      33.804 -14.376 -21.109  0.00  0.00    +0.005 C 
ATOM      9  C   UNL     1      34.292 -15.049 -23.378  0.00  0.00    +0.005 C 
ATOM     10  C   UNL     1      34.220 -15.625 -20.649  0.00  0.00    +0.010 C 
ATOM     11  C   UNL     1      34.707 -16.298 -22.917  0.00  0.00    +0.010 C 
ATOM     12  C   UNL     1      34.670 -16.587 -21.553  0.00  0.00    +0.068 C 
BRANCH  12  14
ATOM     13  N   UNL     1      35.439 -18.907 -20.699  0.00  0.00    -0.191 NA
ATOM     14  C   UNL     1      35.094 -17.867 -21.082  0.00  0.00    +0.100 C 
ENDBRANCH  12  14
ENDBRANCH   6   7
ENDBRANCH   1   5
BRANCH   1  15
ATOM     15  N   UNL     1      32.100  -8.744 -22.053  0.00  0.00    -0.325 N 
ATOM     16  H   UNL     1      32.939  -8.786 -21.539  0.00  0.00    +0.147 HD
BRANCH  15  18
ATOM     17 CL   UNL     1      30.439  -4.018 -20.976  0.00  0.00    -0.082 Cl
ATOM     18  C   UNL     1      31.672  -7.513 -22.508  0.00  0.00    +0.042 C 
ATOM     19  C   UNL     1      31.313  -6.504 -21.616  0.00  0.00    +0.003 C 
ATOM     20  C   UNL     1      31.603  -7.287 -23.883  0.00  0.00    +0.015 C 
ATOM     21  C   UNL     1      30.884  -5.267 -22.097  0.00  0.00    +0.064 C 
ATOM     22  C   UNL     1      31.395  -6.767 -20.143  0.00  0.00    +0.033 C 
ATOM     23  C   UNL     1      31.174  -6.051 -24.365  0.00  0.00    +0.012 C 
ATOM     24  C   UNL     1      30.815  -5.040 -23.472  0.00  0.00    +0.079 C 
BRANCH  24  26
ATOM     25  N   UNL     1      30.027  -2.774 -24.456  0.00  0.00    -0.191 NA
ATOM     26  C   UNL     1      30.380  -3.787 -24.016  0.00  0.00    +0.101 C 
ENDBRANCH  24  26
ENDBRANCH  15  18
ENDBRANCH   1  15
BRANCH   1  27
ATOM     27  C   UNL     1      30.687 -10.425 -20.987  0.00  0.00    +0.137 C 
ATOM     28  C   UNL     1      31.534 -10.163 -19.745  0.00  0.00    +0.034 C 
BRANCH  27  29
ATOM     29  O   UNL     1      30.466 -11.838 -21.037  0.00  0.00    -0.382 OA
ATOM     30  H   UNL     1      30.789 -12.186 -21.884  0.00  0.00    +0.210 HD
ENDBRANCH  27  29
ENDBRANCH   1  27
TORSDOF 8
ENDMDL
MODEL 7
REMARK VINA RESULT:     -10.6      3.855      9.648
REMARK  Name = 44200882
REMARK  8 active torsions:
REMARK  status: ('A' for Active; 'I' for Inactive)
REMARK    1  A    between atoms: C_1  and  C_5
REMARK    2  A    between atoms: C_1  and  N_15
REMARK    3  A    between atoms: C_1  and  C_27
REMARK    4  A    between atoms: C_6  and  C_7
REMARK    5  A    between atoms: C_12  and  C_14
REMARK    6  A    between atoms: N_15  and  C_18
REMARK    7  A    between atoms: C_24  and  C_26
REMARK    8  A    between atoms: C_27  and  O_29
REMARK                            x       y       z     vdW  Elec       q    Type
REMARK                         _______ _______ _______ _____ _____    ______ ____
ROOT
ATOM      1  C   UNL     1      33.965 -20.757 -18.876  0.00  0.00    +0.175 C 
ENDROOT
BRANCH   1   5
ATOM      2  O   UNL     1      34.027 -19.046 -20.629  0.00  0.00    -0.418 OA
ATOM      3  N   UNL     1      36.047 -19.724 -19.945  0.00  0.00    -0.110 NA
ATOM      4  N   UNL     1      36.227 -18.768 -20.928  0.00  0.00    -0.107 NA
ATOM      5  C   UNL     1      34.748 -19.855 -19.804  0.00  0.00    +0.246 A 
ATOM      6  C   UNL     1      35.023 -18.401 -21.297  0.00  0.00    +0.250 A 
BRANCH   6   7
ATOM      7  C   UNL     1      34.601 -17.442 -22.277  0.00  0.00    +0.055 C 
ATOM      8  C   UNL     1      34.104 -17.874 -23.507  0.00  0.00    +0.005 C 
ATOM      9  C   UNL     1      34.689 -16.078 -22.000  0.00  0.00    +0.005 C 
ATOM     10  C   UNL     1      33.694 -16.941 -24.459  0.00  0.00    +0.010 C 
ATOM     11  C   UNL     1      34.279 -15.146 -22.953  0.00  0.00    +0.010 C 
ATOM     12  C   UNL     1      33.780 -15.577 -24.183  0.00  0.00    +0.068 C 
BRANCH  12  14
ATOM     13  N   UNL     1      33.016 -13.846 -25.950  0.00  0.00    -0.191 NA
ATOM     14  C   UNL     1      33.359 -14.622 -25.158  0.00  0.00    +0.100 C 
ENDBRANCH  12  14
ENDBRANCH   6   7
ENDBRANCH   1   5
BRANCH   1  15
ATOM     15  N   UNL     1      34.810 -21.873 -18.484  0.00  0.00    -0.325 N 
ATOM     16  H   UNL     1      35.043 -22.544 -19.166  0.00  0.00    +0.147 HD
BRANCH  15  18
ATOM     17 CL   UNL     1      34.117 -23.633 -13.722  0.00  0.00    -0.082 Cl
ATOM     18  C   UNL     1      35.304 -22.040 -17.206  0.00  0.00    +0.042 C 
ATOM     19  C   UNL     1      34.549 -22.679 -16.223  0.00  0.00    +0.003 C 
ATOM     20  C   UNL     1      36.578 -21.559 -16.905  0.00  0.00    +0.015 C 
ATOM     21  C   UNL     1      35.067 -22.837 -14.938  0.00  0.00    +0.064 C 
ATOM     22  C   UNL     1      33.183 -23.188 -16.567  0.00  0.00    +0.033 C 
ATOM     23  C   UNL     1      37.098 -21.717 -15.620  0.00  0.00    +0.012 C 
ATOM     24  C   UNL     1      36.342 -22.356 -14.636  0.00  0.00    +0.079 C 
BRANCH  24  26
ATOM     25  N   UNL     1      37.384 -22.606 -12.275  0.00  0.00    -0.191 NA
ATOM     26  C   UNL     1      36.918 -22.494 -13.331  0.00  0.00    +0.101 C 
ENDBRANCH  24  26
ENDBRANCH  15  18
ENDBRANCH   1  15
BRANCH   1  27
ATOM     27  C   UNL     1      32.654 -21.305 -19.477  0.00  0.00    +0.137 C 
ATOM     28  C   UNL     1      31.940 -20.300 -20.375  0.00  0.00    +0.034 C 
BRANCH  27  29
ATOM     29  O   UNL     1      31.749 -21.612 -18.411  0.00  0.00    -0.382 OA
ATOM     30  H   UNL     1      32.148 -21.354 -17.565  0.00  0.00    +0.210 HD
ENDBRANCH  27  29
ENDBRANCH   1  27
TORSDOF 8
ENDMDL
MODEL 8
REMARK VINA RESULT:     -10.6      2.559      8.908
REMARK  Name = 44200882
REMARK  8 active torsions:
REMARK  status: ('A' for Active; 'I' for Inactive)
REMARK    1  A    between atoms: C_1  and  C_5
REMARK    2  A    between atoms: C_1  and  N_15
REMARK    3  A    between atoms: C_1  and  C_27
REMARK    4  A    between atoms: C_6  and  C_7
REMARK    5  A    between atoms: C_12  and  C_14
REMARK    6  A    between atoms: N_15  and  C_18
REMARK    7  A    between atoms: C_24  and  C_26
REMARK    8  A    between atoms: C_27  and  O_29
REMARK                            x       y       z     vdW  Elec       q    Type
REMARK                         _______ _______ _______ _____ _____    ______ ____
ROOT
ATOM      1  C   UNL     1      33.819 -17.146 -22.758  0.00  0.00    +0.175 C 
ENDROOT
BRANCH   1   5
ATOM      2  O   UNL     1      33.151 -14.801 -22.516  0.00  0.00    -0.418 OA
ATOM      3  N   UNL     1      34.411 -15.568 -20.834  0.00  0.00    -0.110 NA
ATOM      4  N   UNL     1      34.109 -14.244 -20.573  0.00  0.00    -0.107 NA
ATOM      5  C   UNL     1      33.832 -15.850 -21.978  0.00  0.00    +0.246 A 
ATOM      6  C   UNL     1      33.373 -13.838 -21.580  0.00  0.00    +0.250 A 
BRANCH   6   7
ATOM      7  C   UNL     1      32.776 -12.560 -21.842  0.00  0.00    +0.055 C 
ATOM      8  C   UNL     1      31.815 -12.047 -20.970  0.00  0.00    +0.005 C 
ATOM      9  C   UNL     1      33.156 -11.830 -22.968  0.00  0.00    +0.005 C 
ATOM     10  C   UNL     1      31.235 -10.805 -21.225  0.00  0.00    +0.010 C 
ATOM     11  C   UNL     1      32.576 -10.588 -23.222  0.00  0.00    +0.010 C 
ATOM     12  C   UNL     1      31.616 -10.074 -22.350  0.00  0.00    +0.068 C 
BRANCH  12  14
ATOM     13  N   UNL     1      30.541  -7.766 -22.821  0.00  0.00    -0.191 NA
ATOM     14  C   UNL     1      31.023  -8.801 -22.610  0.00  0.00    +0.100 C 
ENDBRANCH  12  14
ENDBRANCH   6   7
ENDBRANCH   1   5
BRANCH   1  15
ATOM     15  N   UNL     1      34.741 -18.080 -22.131  0.00  0.00    -0.325 N 
ATOM     16  H   UNL     1      35.695 -18.023 -22.367  0.00  0.00    +0.147 HD
BRANCH  15  18
ATOM     17 CL   UNL     1      36.008 -21.325 -18.374  0.00  0.00    -0.082 Cl
ATOM     18  C   UNL     1      34.347 -19.040 -21.221  0.00  0.00    +0.042 C 
ATOM     19  C   UNL     1      35.269 -19.629 -20.356  0.00  0.00    +0.003 C 
ATOM     20  C   UNL     1      33.006 -19.418 -21.174  0.00  0.00    +0.015 C 
ATOM     21  C   UNL     1      34.850 -20.597 -19.444  0.00  0.00    +0.064 C 
ATOM     22  C   UNL     1      36.706 -19.209 -20.423  0.00  0.00    +0.033 C 
ATOM     23  C   UNL     1      32.586 -20.385 -20.261  0.00  0.00    +0.012 C 
ATOM     24  C   UNL     1      33.508 -20.976 -19.396  0.00  0.00    +0.079 C 
BRANCH  24  26
ATOM     25  N   UNL     1      32.641 -22.767 -17.735  0.00  0.00    -0.191 NA
ATOM     26  C   UNL     1      33.028 -21.966 -18.477  0.00  0.00    +0.101 C 
ENDBRANCH  24  26
ENDBRANCH  15  18
ENDBRANCH   1  15
BRANCH   1  27
ATOM     27  C   UNL     1      34.191 -16.997 -24.248  0.00  0.00    +0.137 C 
ATOM     28  C   UNL     1      34.191 -15.547 -24.722  0.00  0.00    +0.034 C 
BRANCH  27  29
ATOM     29  O   UNL     1      33.216 -17.683 -25.040  0.00  0.00    -0.382 OA
ATOM     30  H   UNL     1      32.381 -17.189 -25.024  0.00  0.00    +0.210 HD
ENDBRANCH  27  29
ENDBRANCH   1  27
TORSDOF 8
ENDMDL
MODEL 9
REMARK VINA RESULT:     -10.5      5.296     10.633
REMARK  Name = 44200882
REMARK  8 active torsions:
REMARK  status: ('A' for Active; 'I' for Inactive)
REMARK    1  A    between atoms: C_1  and  C_5
REMARK    2  A    between atoms: C_1  and  N_15
REMARK    3  A    between atoms: C_1  and  C_27
REMARK    4  A    between atoms: C_6  and  C_7
REMARK    5  A    between atoms: C_12  and  C_14
REMARK    6  A    between atoms: N_15  and  C_18
REMARK    7  A    between atoms: C_24  and  C_26
REMARK    8  A    between atoms: C_27  and  O_29
REMARK                            x       y       z     vdW  Elec       q    Type
REMARK                         _______ _______ _______ _____ _____    ______ ____
ROOT
ATOM      1  C   UNL     1      34.877 -23.247 -15.705  0.00  0.00    +0.175 C 
ENDROOT
BRANCH   1   5
ATOM      2  O   UNL     1      34.833 -21.837 -17.709  0.00  0.00    -0.418 OA
ATOM      3  N   UNL     1      36.650 -21.552 -16.434  0.00  0.00    -0.110 NA
ATOM      4  N   UNL     1      36.753 -20.704 -17.522  0.00  0.00    -0.107 NA
ATOM      5  C   UNL     1      35.514 -22.194 -16.586  0.00  0.00    +0.246 A 
ATOM      6  C   UNL     1      35.672 -20.904 -18.238  0.00  0.00    +0.250 A 
BRANCH   6   7
ATOM      7  C   UNL     1      35.245 -20.303 -19.468  0.00  0.00    +0.055 C 
ATOM      8  C   UNL     1      33.927 -20.456 -19.899  0.00  0.00    +0.005 C 
ATOM      9  C   UNL     1      36.148 -19.563 -20.232  0.00  0.00    +0.005 C 
ATOM     10  C   UNL     1      33.513 -19.871 -21.095  0.00  0.00    +0.010 C 
ATOM     11  C   UNL     1      35.732 -18.978 -21.428  0.00  0.00    +0.010 C 
ATOM     12  C   UNL     1      34.414 -19.131 -21.860  0.00  0.00    +0.068 C 
BRANCH  12  14
ATOM     13  N   UNL     1      33.644 -18.041 -24.078  0.00  0.00    -0.191 NA
ATOM     14  C   UNL     1      33.989 -18.530 -23.084  0.00  0.00    +0.100 C 
ENDBRANCH  12  14
ENDBRANCH   6   7
ENDBRANCH   1   5
BRANCH   1  15
ATOM     15  N   UNL     1      33.787 -22.638 -14.960  0.00  0.00    -0.325 N 
ATOM     16  H   UNL     1      33.927 -21.742 -14.576  0.00  0.00    +0.147 HD
BRANCH  15  18
ATOM     17 CL   UNL     1      28.978 -23.411 -16.550  0.00  0.00    -0.082 Cl
ATOM     18  C   UNL     1      32.566 -23.251 -14.765  0.00  0.00    +0.042 C 
ATOM     19  C   UNL     1      31.511 -23.046 -15.653  0.00  0.00    +0.003 C 
ATOM     20  C   UNL     1      32.396 -24.084 -13.660  0.00  0.00    +0.015 C 
ATOM     21  C   UNL     1      30.285 -23.675 -15.437  0.00  0.00    +0.064 C 
ATOM     22  C   UNL     1      31.713 -22.146 -16.834  0.00  0.00    +0.033 C 
ATOM     23  C   UNL     1      31.171 -24.714 -13.443  0.00  0.00    +0.012 C 
ATOM     24  C   UNL     1      30.115 -24.510 -14.332  0.00  0.00    +0.079 C 
BRANCH  24  26
ATOM     25  N   UNL     1      27.871 -25.718 -13.852  0.00  0.00    -0.191 NA
ATOM     26  C   UNL     1      28.875 -25.178 -14.066  0.00  0.00    +0.101 C 
ENDBRANCH  24  26
ENDBRANCH  15  18
ENDBRANCH   1  15
BRANCH   1  27
ATOM     27  C   UNL     1      35.850 -23.921 -14.714  0.00  0.00    +0.137 C 
ATOM     28  C   UNL     1      36.108 -23.083 -13.466  0.00  0.00    +0.034 C 
BRANCH  27  29
ATOM     29  O   UNL     1      37.117 -24.096 -15.356  0.00  0.00    -0.382 OA
ATOM     30  H   UNL     1      36.978 -24.292 -16.296  0.00  0.00    +0.210 HD
ENDBRANCH  27  29
ENDBRANCH   1  27
TORSDOF 8
ENDMDL
