MODEL 1
REMARK VINA RESULT:     -10.8      0.000      0.000
REMARK  Name = 2118
REMARK  1 active torsions:
REMARK  status: ('A' for Active; 'I' for Inactive)
REMARK    1  A    between atoms: C_9  and  C_17
REMARK                            x       y       z     vdW  Elec       q    Type
REMARK                         _______ _______ _______ _____ _____    ______ ____
ROOT
ATOM      1 CL   UNL     1      36.748 -20.379 -17.235  0.00  0.00    -0.082 Cl
ATOM      2  N   UNL     1      36.603 -24.534 -13.003  0.00  0.00    -0.279 N 
ATOM      3  N   UNL     1      33.937 -23.201 -12.344  0.00  0.00    -0.262 NA
ATOM      4  N   UNL     1      36.198 -25.518 -11.073  0.00  0.00    -0.131 NA
ATOM      5  N   UNL     1      37.127 -26.269 -11.751  0.00  0.00    -0.133 NA
ATOM      6  C   UNL     1      36.569 -23.590 -14.053  0.00  0.00    +0.068 C 
ATOM      7  C   UNL     1      35.454 -22.755 -14.265  0.00  0.00    +0.034 C 
ATOM      8  C   UNL     1      35.911 -24.468 -11.815  0.00  0.00    +0.172 A 
ATOM      9  C   UNL     1      34.125 -22.951 -13.596  0.00  0.00    +0.078 C 
ATOM     10  C   UNL     1      35.069 -23.310 -11.445  0.00  0.00    +0.191 C 
ATOM     11  C   UNL     1      37.379 -25.658 -12.886  0.00  0.00    +0.147 A 
ATOM     12  C   UNL     1      37.699 -23.465 -14.877  0.00  0.00    +0.019 C 
ATOM     13  C   UNL     1      35.534 -21.749 -15.245  0.00  0.00    +0.014 C 
ATOM     14  C   UNL     1      37.748 -22.477 -15.863  0.00  0.00    +0.013 C 
ATOM     15  C   UNL     1      36.675 -21.611 -16.034  0.00  0.00    +0.058 C 
ATOM     16  C   UNL     1      38.246 -26.239 -13.933  0.00  0.00    +0.074 C 
ENDROOT
BRANCH   9  17
ATOM     17  C   UNL     1      32.895 -22.884 -14.441  0.00  0.00    +0.017 C 
ATOM     18  C   UNL     1      33.005 -23.012 -15.818  0.00  0.00    +0.001 C 
ATOM     19  C   UNL     1      31.660 -22.696 -13.836  0.00  0.00    +0.001 C 
ATOM     20  C   UNL     1      31.856 -22.950 -16.608  0.00  0.00    +0.000 C 
ATOM     21  C   UNL     1      30.511 -22.635 -14.626  0.00  0.00    +0.000 C 
ATOM     22  C   UNL     1      30.609 -22.762 -16.012  0.00  0.00    +0.000 C 
ENDBRANCH   9  17
TORSDOF 1
ENDMDL
MODEL 2
REMARK VINA RESULT:     -10.0      3.365      6.223
REMARK  Name = 2118
REMARK  1 active torsions:
REMARK  status: ('A' for Active; 'I' for Inactive)
REMARK    1  A    between atoms: C_9  and  C_17
REMARK                            x       y       z     vdW  Elec       q    Type
REMARK                         _______ _______ _______ _____ _____    ______ ____
ROOT
ATOM      1 CL   UNL     1      31.172 -23.633 -13.132  0.00  0.00    -0.082 Cl
ATOM      2  N   UNL     1      34.591 -21.945 -17.676  0.00  0.00    -0.279 N 
ATOM      3  N   UNL     1      36.785 -22.088 -15.558  0.00  0.00    -0.262 NA
ATOM      4  N   UNL     1      36.215 -20.968 -18.801  0.00  0.00    -0.131 NA
ATOM      5  N   UNL     1      35.265 -21.392 -19.698  0.00  0.00    -0.133 NA
ATOM      6  C   UNL     1      33.818 -22.430 -16.597  0.00  0.00    +0.068 C 
ATOM      7  C   UNL     1      34.401 -22.771 -15.360  0.00  0.00    +0.034 C 
ATOM      8  C   UNL     1      35.792 -21.277 -17.593  0.00  0.00    +0.172 A 
ATOM      9  C   UNL     1      35.880 -22.908 -15.143  0.00  0.00    +0.078 C 
ATOM     10  C   UNL     1      36.409 -20.902 -16.302  0.00  0.00    +0.191 C 
ATOM     11  C   UNL     1      34.292 -21.947 -19.014  0.00  0.00    +0.147 A 
ATOM     12  C   UNL     1      32.428 -22.534 -16.764  0.00  0.00    +0.019 C 
ATOM     13  C   UNL     1      33.562 -23.124 -14.288  0.00  0.00    +0.014 C 
ATOM     14  C   UNL     1      31.615 -22.913 -15.695  0.00  0.00    +0.013 C 
ATOM     15  C   UNL     1      32.180 -23.190 -14.455  0.00  0.00    +0.058 C 
ATOM     16  C   UNL     1      33.148 -22.627 -19.656  0.00  0.00    +0.074 C 
ENDROOT
BRANCH   9  17
ATOM     17  C   UNL     1      36.374 -24.111 -14.410  0.00  0.00    +0.017 C 
ATOM     18  C   UNL     1      37.070 -23.949 -13.221  0.00  0.00    +0.001 C 
ATOM     19  C   UNL     1      36.129 -25.376 -14.928  0.00  0.00    +0.001 C 
ATOM     20  C   UNL     1      37.531 -25.073 -12.535  0.00  0.00    +0.000 C 
ATOM     21  C   UNL     1      36.590 -26.500 -14.242  0.00  0.00    +0.000 C 
ATOM     22  C   UNL     1      37.291 -26.349 -13.046  0.00  0.00    +0.000 C 
ENDBRANCH   9  17
TORSDOF 1
ENDMDL
MODEL 3
REMARK VINA RESULT:      -9.4      3.505      5.173
REMARK  Name = 2118
REMARK  1 active torsions:
REMARK  status: ('A' for Active; 'I' for Inactive)
REMARK    1  A    between atoms: C_9  and  C_17
REMARK                            x       y       z     vdW  Elec       q    Type
REMARK                         _______ _______ _______ _____ _____    ______ ____
ROOT
ATOM      1 CL   UNL     1      36.009 -25.209 -13.004  0.00  0.00    -0.082 Cl
ATOM      2  N   UNL     1      35.600 -21.493 -17.610  0.00  0.00    -0.279 N 
ATOM      3  N   UNL     1      32.825 -22.740 -17.857  0.00  0.00    -0.262 NA
ATOM      4  N   UNL     1      35.038 -20.685 -19.581  0.00  0.00    -0.131 NA
ATOM      5  N   UNL     1      36.063 -19.920 -19.082  0.00  0.00    -0.133 NA
ATOM      6  C   UNL     1      35.636 -22.325 -16.469  0.00  0.00    +0.068 C 
ATOM      7  C   UNL     1      34.514 -23.074 -16.061  0.00  0.00    +0.034 C 
ATOM      8  C   UNL     1      34.785 -21.639 -18.710  0.00  0.00    +0.172 A 
ATOM      9  C   UNL     1      33.132 -22.875 -16.611  0.00  0.00    +0.078 C 
ATOM     10  C   UNL     1      33.860 -22.781 -18.872  0.00  0.00    +0.191 C 
ATOM     11  C   UNL     1      36.407 -20.428 -17.920  0.00  0.00    +0.147 A 
ATOM     12  C   UNL     1      36.839 -22.427 -15.754  0.00  0.00    +0.019 C 
ATOM     13  C   UNL     1      34.653 -23.980 -14.994  0.00  0.00    +0.014 C 
ATOM     14  C   UNL     1      36.949 -23.313 -14.680  0.00  0.00    +0.013 C 
ATOM     15  C   UNL     1      35.863 -24.100 -14.313  0.00  0.00    +0.058 C 
ATOM     16  C   UNL     1      37.402 -19.793 -17.031  0.00  0.00    +0.074 C 
ENDROOT
BRANCH   9  17
ATOM     17  C   UNL     1      31.996 -22.792 -15.645  0.00  0.00    +0.017 C 
ATOM     18  C   UNL     1      32.257 -22.759 -14.283  0.00  0.00    +0.001 C 
ATOM     19  C   UNL     1      30.693 -22.748 -16.124  0.00  0.00    +0.001 C 
ATOM     20  C   UNL     1      31.196 -22.680 -13.381  0.00  0.00    +0.000 C 
ATOM     21  C   UNL     1      29.632 -22.670 -15.222  0.00  0.00    +0.000 C 
ATOM     22  C   UNL     1      29.883 -22.636 -13.850  0.00  0.00    +0.000 C 
ENDBRANCH   9  17
TORSDOF 1
ENDMDL
MODEL 4
REMARK VINA RESULT:      -9.0      2.004      4.333
REMARK  Name = 2118
REMARK  1 active torsions:
REMARK  status: ('A' for Active; 'I' for Inactive)
REMARK    1  A    between atoms: C_9  and  C_17
REMARK                            x       y       z     vdW  Elec       q    Type
REMARK                         _______ _______ _______ _____ _____    ______ ____
ROOT
ATOM      1 CL   UNL     1      30.748 -22.378 -15.257  0.00  0.00    -0.082 Cl
ATOM      2  N   UNL     1      35.598 -24.453 -12.544  0.00  0.00    -0.279 N 
ATOM      3  N   UNL     1      36.707 -24.442 -15.388  0.00  0.00    -0.262 NA
ATOM      4  N   UNL     1      37.453 -25.588 -12.190  0.00  0.00    -0.131 NA
ATOM      5  N   UNL     1      37.007 -25.109 -10.983  0.00  0.00    -0.133 NA
ATOM      6  C   UNL     1      34.489 -23.880 -13.205  0.00  0.00    +0.068 C 
ATOM      7  C   UNL     1      34.527 -23.559 -14.576  0.00  0.00    +0.034 C 
ATOM      8  C   UNL     1      36.592 -25.216 -13.114  0.00  0.00    +0.172 A 
ATOM      9  C   UNL     1      35.785 -23.540 -15.395  0.00  0.00    +0.078 C 
ATOM     10  C   UNL     1      36.577 -25.610 -14.539  0.00  0.00    +0.191 C 
ATOM     11  C   UNL     1      35.888 -24.459 -11.203  0.00  0.00    +0.147 A 
ATOM     12  C   UNL     1      33.311 -23.665 -12.472  0.00  0.00    +0.019 C 
ATOM     13  C   UNL     1      33.350 -23.112 -15.203  0.00  0.00    +0.014 C 
ATOM     14  C   UNL     1      32.160 -23.195 -13.107  0.00  0.00    +0.013 C 
ATOM     15  C   UNL     1      32.176 -22.935 -14.472  0.00  0.00    +0.058 C 
ATOM     16  C   UNL     1      35.180 -23.702 -10.149  0.00  0.00    +0.074 C 
ENDROOT
BRANCH   9  17
ATOM     17  C   UNL     1      36.027 -22.364 -16.284  0.00  0.00    +0.017 C 
ATOM     18  C   UNL     1      36.964 -21.410 -15.915  0.00  0.00    +0.001 C 
ATOM     19  C   UNL     1      35.312 -22.244 -17.468  0.00  0.00    +0.001 C 
ATOM     20  C   UNL     1      37.191 -20.312 -16.745  0.00  0.00    +0.000 C 
ATOM     21  C   UNL     1      35.539 -21.146 -18.298  0.00  0.00    +0.000 C 
ATOM     22  C   UNL     1      36.478 -20.180 -17.937  0.00  0.00    +0.000 C 
ENDBRANCH   9  17
TORSDOF 1
ENDMDL
MODEL 5
REMARK VINA RESULT:      -9.0      2.006      4.306
REMARK  Name = 2118
REMARK  1 active torsions:
REMARK  status: ('A' for Active; 'I' for Inactive)
REMARK    1  A    between atoms: C_9  and  C_17
REMARK                            x       y       z     vdW  Elec       q    Type
REMARK                         _______ _______ _______ _____ _____    ______ ____
ROOT
ATOM      1 CL   UNL     1      30.756 -22.390 -15.212  0.00  0.00    -0.082 Cl
ATOM      2  N   UNL     1      35.623 -24.463 -12.529  0.00  0.00    -0.279 N 
ATOM      3  N   UNL     1      36.712 -24.458 -15.381  0.00  0.00    -0.262 NA
ATOM      4  N   UNL     1      37.481 -25.599 -12.187  0.00  0.00    -0.131 NA
ATOM      5  N   UNL     1      37.043 -25.118 -10.977  0.00  0.00    -0.133 NA
ATOM      6  C   UNL     1      34.510 -23.891 -13.183  0.00  0.00    +0.068 C 
ATOM      7  C   UNL     1      34.539 -23.573 -14.556  0.00  0.00    +0.034 C 
ATOM      8  C   UNL     1      36.613 -25.228 -13.105  0.00  0.00    +0.172 A 
ATOM      9  C   UNL     1      35.791 -23.555 -15.383  0.00  0.00    +0.078 C 
ATOM     10  C   UNL     1      36.588 -25.625 -14.529  0.00  0.00    +0.191 C 
ATOM     11  C   UNL     1      35.923 -24.467 -11.191  0.00  0.00    +0.147 A 
ATOM     12  C   UNL     1      33.338 -23.674 -12.442  0.00  0.00    +0.019 C 
ATOM     13  C   UNL     1      33.357 -23.125 -15.175  0.00  0.00    +0.014 C 
ATOM     14  C   UNL     1      32.183 -23.204 -13.070  0.00  0.00    +0.013 C 
ATOM     15  C   UNL     1      32.188 -22.947 -14.436  0.00  0.00    +0.058 C 
ATOM     16  C   UNL     1      35.223 -23.708 -10.133  0.00  0.00    +0.074 C 
ENDROOT
BRANCH   9  17
ATOM     17  C   UNL     1      36.027 -22.382 -16.276  0.00  0.00    +0.017 C 
ATOM     18  C   UNL     1      35.299 -22.258 -17.450  0.00  0.00    +0.001 C 
ATOM     19  C   UNL     1      36.973 -21.430 -15.918  0.00  0.00    +0.001 C 
ATOM     20  C   UNL     1      35.520 -21.161 -18.283  0.00  0.00    +0.000 C 
ATOM     21  C   UNL     1      37.194 -20.333 -16.751  0.00  0.00    +0.000 C 
ATOM     22  C   UNL     1      36.468 -20.199 -17.934  0.00  0.00    +0.000 C 
ENDBRANCH   9  17
TORSDOF 1
ENDMDL
