MODEL 1
REMARK VINA RESULT:     -12.2      0.000      0.000
REMARK  Name = 10125830
REMARK  4 active torsions:
REMARK  status: ('A' for Active; 'I' for Inactive)
REMARK    1  A    between atoms: C_6  and  C_19
REMARK    2  A    between atoms: C_11  and  C_14
REMARK    3  A    between atoms: C_22  and  O_25
REMARK    4  A    between atoms: C_24  and  O_27
REMARK                            x       y       z     vdW  Elec       q    Type
REMARK                         _______ _______ _______ _____ _____    ______ ____
ROOT
ATOM      1  O   UNL     1      34.009 -23.096 -16.821  0.00  0.00    -0.270 OA
ATOM      2  N   UNL     1      33.610 -21.717 -18.697  0.00  0.00    -0.280 N 
ATOM      3  C   UNL     1      35.587 -20.545 -18.767  0.00  0.00    +0.018 C 
ATOM      4  C   UNL     1      34.339 -20.730 -19.369  0.00  0.00    +0.051 C 
ATOM      5  C   UNL     1      35.629 -21.480 -17.647  0.00  0.00    +0.056 C 
ATOM      6  C   UNL     1      34.836 -19.068 -20.986  0.00  0.00    +0.001 C 
ATOM      7  C   UNL     1      33.938 -20.009 -20.477  0.00  0.00    +0.015 C 
ATOM      8  C   UNL     1      36.480 -19.615 -19.265  0.00  0.00    +0.001 C 
ATOM      9  C   UNL     1      34.332 -22.235 -17.617  0.00  0.00    +0.250 C 
ATOM     10  C   UNL     1      36.095 -18.873 -20.386  0.00  0.00    +0.000 C 
ATOM     11  C   UNL     1      36.614 -21.681 -16.770  0.00  0.00    +0.019 C 
ATOM     12  H   UNL     1      32.705 -22.009 -18.951  0.00  0.00    +0.155 HD
ENDROOT
BRANCH  11  14
ATOM     13  N   UNL     1      35.715 -22.439 -14.699  0.00  0.00    -0.312 N 
ATOM     14  C   UNL     1      36.645 -22.611 -15.665  0.00  0.00    +0.049 C 
ATOM     15  C   UNL     1      37.439 -23.664 -15.379  0.00  0.00    +0.016 C 
ATOM     16  C   UNL     1      35.905 -23.410 -13.750  0.00  0.00    +0.062 C 
ATOM     17  C   UNL     1      36.971 -24.185 -14.147  0.00  0.00    +0.017 C 
ATOM     18  H   UNL     1      35.023 -21.739 -14.680  0.00  0.00    +0.152 HD
ENDBRANCH  11  14
BRANCH   6  19
ATOM     19  C   UNL     1      34.469 -18.282 -22.145  0.00  0.00    +0.003 C 
ATOM     20  C   UNL     1      34.727 -16.912 -22.167  0.00  0.00    +0.040 C 
ATOM     21  C   UNL     1      33.859 -18.896 -23.238  0.00  0.00    +0.003 C 
ATOM     22  C   UNL     1      34.374 -16.155 -23.284  0.00  0.00    +0.172 C 
ATOM     23  C   UNL     1      33.507 -18.139 -24.356  0.00  0.00    +0.040 C 
ATOM     24  C   UNL     1      33.765 -16.768 -24.379  0.00  0.00    +0.168 C 
BRANCH  22  25
ATOM     25  O   UNL     1      34.631 -14.817 -23.295  0.00  0.00    -0.468 OA
ATOM     26  C   UNL     1      33.887 -14.007 -22.388  0.00  0.00    +0.253 C 
ENDBRANCH  22  25
BRANCH  24  27
ATOM     27  O   UNL     1      33.416 -16.039 -25.476  0.00  0.00    -0.503 OA
ATOM     28  H   UNL     1      32.554 -15.681 -25.545  0.00  0.00    +0.292 HD
ENDBRANCH  24  27
ENDBRANCH   6  19
TORSDOF 4
ENDMDL
MODEL 2
REMARK VINA RESULT:     -11.7      1.385      1.867
REMARK  Name = 10125830
REMARK  4 active torsions:
REMARK  status: ('A' for Active; 'I' for Inactive)
REMARK    1  A    between atoms: C_6  and  C_19
REMARK    2  A    between atoms: C_11  and  C_14
REMARK    3  A    between atoms: C_22  and  O_25
REMARK    4  A    between atoms: C_24  and  O_27
REMARK                            x       y       z     vdW  Elec       q    Type
REMARK                         _______ _______ _______ _____ _____    ______ ____
ROOT
ATOM      1  O   UNL     1      37.130 -22.040 -16.001  0.00  0.00    -0.270 OA
ATOM      2  N   UNL     1      36.740 -20.749 -17.941  0.00  0.00    -0.280 N 
ATOM      3  C   UNL     1      34.522 -21.230 -18.309  0.00  0.00    +0.018 C 
ATOM      4  C   UNL     1      35.634 -20.518 -18.767  0.00  0.00    +0.051 C 
ATOM      5  C   UNL     1      34.971 -21.948 -17.122  0.00  0.00    +0.056 C 
ATOM      6  C   UNL     1      34.368 -19.628 -20.565  0.00  0.00    +0.001 C 
ATOM      7  C   UNL     1      35.587 -19.712 -19.887  0.00  0.00    +0.015 C 
ATOM      8  C   UNL     1      33.312 -21.152 -18.974  0.00  0.00    +0.001 C 
ATOM      9  C   UNL     1      36.419 -21.622 -16.897  0.00  0.00    +0.250 C 
ATOM     10  C   UNL     1      33.241 -20.341 -20.112  0.00  0.00    +0.000 C 
ATOM     11  C   UNL     1      34.272 -22.762 -16.328  0.00  0.00    +0.019 C 
ATOM     12  H   UNL     1      37.628 -20.348 -18.078  0.00  0.00    +0.155 HD
ENDROOT
BRANCH  11  14
ATOM     13  N   UNL     1      34.746 -22.772 -13.995  0.00  0.00    -0.312 N 
ATOM     14  C   UNL     1      34.728 -23.467 -15.154  0.00  0.00    +0.049 C 
ATOM     15  C   UNL     1      35.159 -24.730 -14.957  0.00  0.00    +0.016 C 
ATOM     16  C   UNL     1      35.202 -23.606 -13.007  0.00  0.00    +0.062 C 
ATOM     17  C   UNL     1      35.468 -24.830 -13.578  0.00  0.00    +0.017 C 
ATOM     18  H   UNL     1      34.479 -21.831 -13.880  0.00  0.00    +0.152 HD
ENDBRANCH  11  14
BRANCH   6  19
ATOM     19  C   UNL     1      34.259 -18.799 -21.745  0.00  0.00    +0.003 C 
ATOM     20  C   UNL     1      34.619 -17.453 -21.686  0.00  0.00    +0.040 C 
ATOM     21  C   UNL     1      33.796 -19.347 -22.941  0.00  0.00    +0.003 C 
ATOM     22  C   UNL     1      34.515 -16.654 -22.825  0.00  0.00    +0.172 C 
ATOM     23  C   UNL     1      33.693 -18.548 -24.080  0.00  0.00    +0.040 C 
ATOM     24  C   UNL     1      34.053 -17.201 -24.022  0.00  0.00    +0.168 C 
BRANCH  22  25
ATOM     25  O   UNL     1      34.869 -15.340 -22.756  0.00  0.00    -0.468 OA
ATOM     26  C   UNL     1      33.934 -14.447 -22.154  0.00  0.00    +0.253 C 
ENDBRANCH  22  25
BRANCH  24  27
ATOM     27  O   UNL     1      33.947 -16.431 -25.140  0.00  0.00    -0.503 OA
ATOM     28  H   UNL     1      33.745 -16.827 -25.964  0.00  0.00    +0.292 HD
ENDBRANCH  24  27
ENDBRANCH   6  19
TORSDOF 4
ENDMDL
MODEL 3
REMARK VINA RESULT:     -11.5      2.572      9.499
REMARK  Name = 10125830
REMARK  4 active torsions:
REMARK  status: ('A' for Active; 'I' for Inactive)
REMARK    1  A    between atoms: C_6  and  C_19
REMARK    2  A    between atoms: C_11  and  C_14
REMARK    3  A    between atoms: C_22  and  O_25
REMARK    4  A    between atoms: C_24  and  O_27
REMARK                            x       y       z     vdW  Elec       q    Type
REMARK                         _______ _______ _______ _____ _____    ______ ____
ROOT
ATOM      1  O   UNL     1      32.583 -20.480 -20.370  0.00  0.00    -0.270 OA
ATOM      2  N   UNL     1      33.090 -21.669 -18.393  0.00  0.00    -0.280 N 
ATOM      3  C   UNL     1      35.330 -21.189 -18.194  0.00  0.00    +0.018 C 
ATOM      4  C   UNL     1      34.245 -21.867 -17.629  0.00  0.00    +0.051 C 
ATOM      5  C   UNL     1      34.808 -20.530 -19.386  0.00  0.00    +0.056 C 
ATOM      6  C   UNL     1      35.620 -22.672 -15.871  0.00  0.00    +0.001 C 
ATOM      7  C   UNL     1      34.360 -22.612 -16.472  0.00  0.00    +0.015 C 
ATOM      8  C   UNL     1      36.579 -21.244 -17.605  0.00  0.00    +0.001 C 
ATOM      9  C   UNL     1      33.347 -20.854 -19.499  0.00  0.00    +0.250 C 
ATOM     10  C   UNL     1      36.719 -21.993 -16.433  0.00  0.00    +0.000 C 
ATOM     11  C   UNL     1      35.457 -19.760 -20.261  0.00  0.00    +0.019 C 
ATOM     12  H   UNL     1      32.210 -22.054 -18.178  0.00  0.00    +0.155 HD
ENDROOT
BRANCH  11  14
ATOM     13  N   UNL     1      34.802 -17.767 -21.388  0.00  0.00    -0.312 N 
ATOM     14  C   UNL     1      34.930 -19.112 -21.438  0.00  0.00    +0.049 C 
ATOM     15  C   UNL     1      34.519 -19.583 -22.634  0.00  0.00    +0.016 C 
ATOM     16  C   UNL     1      34.292 -17.344 -22.588  0.00  0.00    +0.062 C 
ATOM     17  C   UNL     1      34.106 -18.453 -23.382  0.00  0.00    +0.017 C 
ATOM     18  H   UNL     1      35.033 -17.192 -20.622  0.00  0.00    +0.152 HD
ENDBRANCH  11  14
BRANCH   6  19
ATOM     19  C   UNL     1      35.800 -23.438 -14.658  0.00  0.00    +0.003 C 
ATOM     20  C   UNL     1      36.904 -24.280 -14.523  0.00  0.00    +0.040 C 
ATOM     21  C   UNL     1      34.870 -23.335 -13.624  0.00  0.00    +0.003 C 
ATOM     22  C   UNL     1      37.078 -25.019 -13.353  0.00  0.00    +0.172 C 
ATOM     23  C   UNL     1      35.045 -24.073 -12.453  0.00  0.00    +0.040 C 
ATOM     24  C   UNL     1      36.149 -24.915 -12.318  0.00  0.00    +0.168 C 
BRANCH  22  25
ATOM     25  O   UNL     1      38.160 -25.838 -13.232  0.00  0.00    -0.468 OA
ATOM     26  C   UNL     1      39.349 -25.447 -13.916  0.00  0.00    +0.253 C 
ENDBRANCH  22  25
BRANCH  24  27
ATOM     27  O   UNL     1      36.308 -25.632 -11.170  0.00  0.00    -0.503 OA
ATOM     28  H   UNL     1      37.160 -25.728 -10.793  0.00  0.00    +0.292 HD
ENDBRANCH  24  27
ENDBRANCH   6  19
TORSDOF 4
ENDMDL
MODEL 4
REMARK VINA RESULT:     -11.4      2.385      9.203
REMARK  Name = 10125830
REMARK  4 active torsions:
REMARK  status: ('A' for Active; 'I' for Inactive)
REMARK    1  A    between atoms: C_6  and  C_19
REMARK    2  A    between atoms: C_11  and  C_14
REMARK    3  A    between atoms: C_22  and  O_25
REMARK    4  A    between atoms: C_24  and  O_27
REMARK                            x       y       z     vdW  Elec       q    Type
REMARK                         _______ _______ _______ _____ _____    ______ ____
ROOT
ATOM      1  O   UNL     1      36.477 -18.336 -21.548  0.00  0.00    -0.270 OA
ATOM      2  N   UNL     1      36.619 -19.683 -19.612  0.00  0.00    -0.280 N 
ATOM      3  C   UNL     1      34.492 -20.554 -19.566  0.00  0.00    +0.018 C 
ATOM      4  C   UNL     1      35.736 -20.525 -18.928  0.00  0.00    +0.051 C 
ATOM      5  C   UNL     1      34.617 -19.670 -20.720  0.00  0.00    +0.056 C 
ATOM      6  C   UNL     1      34.958 -22.032 -17.270  0.00  0.00    +0.001 C 
ATOM      7  C   UNL     1      35.997 -21.252 -17.783  0.00  0.00    +0.015 C 
ATOM      8  C   UNL     1      33.459 -21.323 -19.064  0.00  0.00    +0.001 C 
ATOM      9  C   UNL     1      36.010 -19.112 -20.734  0.00  0.00    +0.250 C 
ATOM     10  C   UNL     1      33.702 -22.068 -17.904  0.00  0.00    +0.000 C 
ATOM     11  C   UNL     1      33.699 -19.370 -21.641  0.00  0.00    +0.019 C 
ATOM     12  H   UNL     1      37.550 -19.515 -19.338  0.00  0.00    +0.155 HD
ENDROOT
BRANCH  11  14
ATOM     13  N   UNL     1      34.140 -17.202 -22.521  0.00  0.00    -0.312 N 
ATOM     14  C   UNL     1      33.835 -18.493 -22.779  0.00  0.00    +0.049 C 
ATOM     15  C   UNL     1      33.719 -18.697 -24.108  0.00  0.00    +0.016 C 
ATOM     16  C   UNL     1      34.228 -16.539 -23.717  0.00  0.00    +0.062 C 
ATOM     17  C   UNL     1      33.969 -17.445 -24.721  0.00  0.00    +0.017 C 
ATOM     18  H   UNL     1      34.275 -16.807 -21.629  0.00  0.00    +0.152 HD
ENDBRANCH  11  14
BRANCH   6  19
ATOM     19  C   UNL     1      35.174 -22.814 -16.071  0.00  0.00    +0.003 C 
ATOM     20  C   UNL     1      36.438 -22.853 -15.484  0.00  0.00    +0.040 C 
ATOM     21  C   UNL     1      34.119 -23.528 -15.505  0.00  0.00    +0.003 C 
ATOM     22  C   UNL     1      36.647 -23.606 -14.329  0.00  0.00    +0.172 C 
ATOM     23  C   UNL     1      34.327 -24.280 -14.349  0.00  0.00    +0.040 C 
ATOM     24  C   UNL     1      35.591 -24.319 -13.761  0.00  0.00    +0.168 C 
BRANCH  22  25
ATOM     25  O   UNL     1      37.886 -23.637 -13.764  0.00  0.00    -0.468 OA
ATOM     26  C   UNL     1      38.808 -24.597 -14.275  0.00  0.00    +0.253 C 
ENDBRANCH  22  25
BRANCH  24  27
ATOM     27  O   UNL     1      35.782 -25.058 -12.633  0.00  0.00    -0.503 OA
ATOM     28  H   UNL     1      35.408 -25.914 -12.565  0.00  0.00    +0.292 HD
ENDBRANCH  24  27
ENDBRANCH   6  19
TORSDOF 4
ENDMDL
MODEL 5
REMARK VINA RESULT:     -11.3      2.486      9.179
REMARK  Name = 10125830
REMARK  4 active torsions:
REMARK  status: ('A' for Active; 'I' for Inactive)
REMARK    1  A    between atoms: C_6  and  C_19
REMARK    2  A    between atoms: C_11  and  C_14
REMARK    3  A    between atoms: C_22  and  O_25
REMARK    4  A    between atoms: C_24  and  O_27
REMARK                            x       y       z     vdW  Elec       q    Type
REMARK                         _______ _______ _______ _____ _____    ______ ____
ROOT
ATOM      1  O   UNL     1      32.051 -19.846 -21.188  0.00  0.00    -0.270 OA
ATOM      2  N   UNL     1      32.507 -21.031 -19.195  0.00  0.00    -0.280 N 
ATOM      3  C   UNL     1      34.790 -20.783 -19.090  0.00  0.00    +0.018 C 
ATOM      4  C   UNL     1      33.664 -21.329 -18.467  0.00  0.00    +0.051 C 
ATOM      5  C   UNL     1      34.295 -20.104 -20.282  0.00  0.00    +0.056 C 
ATOM      6  C   UNL     1      35.014 -22.228 -16.737  0.00  0.00    +0.001 C 
ATOM      7  C   UNL     1      33.745 -22.052 -17.294  0.00  0.00    +0.015 C 
ATOM      8  C   UNL     1      36.049 -20.953 -18.545  0.00  0.00    +0.001 C 
ATOM      9  C   UNL     1      32.804 -20.275 -20.334  0.00  0.00    +0.250 C 
ATOM     10  C   UNL     1      36.155 -21.683 -17.356  0.00  0.00    +0.000 C 
ATOM     11  C   UNL     1      34.987 -19.429 -21.202  0.00  0.00    +0.019 C 
ATOM     12  H   UNL     1      31.600 -21.316 -18.938  0.00  0.00    +0.155 HD
ENDROOT
BRANCH  11  14
ATOM     13  N   UNL     1      34.460 -17.408 -22.347  0.00  0.00    -0.312 N 
ATOM     14  C   UNL     1      34.484 -18.759 -22.379  0.00  0.00    +0.049 C 
ATOM     15  C   UNL     1      34.014 -19.215 -23.558  0.00  0.00    +0.016 C 
ATOM     16  C   UNL     1      33.958 -16.965 -23.543  0.00  0.00    +0.062 C 
ATOM     17  C   UNL     1      33.671 -18.067 -24.315  0.00  0.00    +0.017 C 
ATOM     18  H   UNL     1      34.751 -16.842 -21.595  0.00  0.00    +0.152 HD
ENDBRANCH  11  14
BRANCH   6  19
ATOM     19  C   UNL     1      35.160 -22.978 -15.508  0.00  0.00    +0.003 C 
ATOM     20  C   UNL     1      34.050 -23.206 -14.696  0.00  0.00    +0.040 C 
ATOM     21  C   UNL     1      36.410 -23.471 -15.137  0.00  0.00    +0.003 C 
ATOM     22  C   UNL     1      34.189 -23.930 -13.511  0.00  0.00    +0.172 C 
ATOM     23  C   UNL     1      36.550 -24.196 -13.953  0.00  0.00    +0.040 C 
ATOM     24  C   UNL     1      35.440 -24.425 -13.140  0.00  0.00    +0.168 C 
BRANCH  22  25
ATOM     25  O   UNL     1      33.098 -24.147 -12.726  0.00  0.00    -0.468 OA
ATOM     26  C   UNL     1      31.832 -24.215 -13.378  0.00  0.00    +0.253 C 
ENDBRANCH  22  25
BRANCH  24  27
ATOM     27  O   UNL     1      35.589 -25.133 -11.986  0.00  0.00    -0.503 OA
ATOM     28  H   UNL     1      35.035 -24.954 -11.252  0.00  0.00    +0.292 HD
ENDBRANCH  24  27
ENDBRANCH   6  19
TORSDOF 4
ENDMDL
MODEL 6
REMARK VINA RESULT:     -11.0      5.852     11.564
REMARK  Name = 10125830
REMARK  4 active torsions:
REMARK  status: ('A' for Active; 'I' for Inactive)
REMARK    1  A    between atoms: C_6  and  C_19
REMARK    2  A    between atoms: C_11  and  C_14
REMARK    3  A    between atoms: C_22  and  O_25
REMARK    4  A    between atoms: C_24  and  O_27
REMARK                            x       y       z     vdW  Elec       q    Type
REMARK                         _______ _______ _______ _____ _____    ______ ____
ROOT
ATOM      1  O   UNL     1      30.725  -9.014 -20.388  0.00  0.00    -0.270 OA
ATOM      2  N   UNL     1      31.506 -11.223 -20.691  0.00  0.00    -0.280 N 
ATOM      3  C   UNL     1      32.482 -11.027 -22.764  0.00  0.00    +0.018 C 
ATOM      4  C   UNL     1      32.201 -11.894 -21.704  0.00  0.00    +0.051 C 
ATOM      5  C   UNL     1      31.923  -9.736 -22.380  0.00  0.00    +0.056 C 
ATOM      6  C   UNL     1      33.274 -13.681 -22.836  0.00  0.00    +0.001 C 
ATOM      7  C   UNL     1      32.584 -13.221 -21.712  0.00  0.00    +0.015 C 
ATOM      8  C   UNL     1      33.164 -11.475 -23.880  0.00  0.00    +0.001 C 
ATOM      9  C   UNL     1      31.291  -9.882 -21.026  0.00  0.00    +0.250 C 
ATOM     10  C   UNL     1      33.562 -12.816 -23.909  0.00  0.00    +0.000 C 
ATOM     11  C   UNL     1      31.938  -8.587 -23.060  0.00  0.00    +0.019 C 
ATOM     12  H   UNL     1      31.208 -11.641 -19.852  0.00  0.00    +0.155 HD
ENDROOT
BRANCH  11  14
ATOM     13  N   UNL     1      32.072  -6.605 -21.749  0.00  0.00    -0.312 N 
ATOM     14  C   UNL     1      31.381  -7.314 -22.668  0.00  0.00    +0.049 C 
ATOM     15  C   UNL     1      30.268  -6.650 -23.043  0.00  0.00    +0.016 C 
ATOM     16  C   UNL     1      31.391  -5.439 -21.513  0.00  0.00    +0.062 C 
ATOM     17  C   UNL     1      30.265  -5.441 -22.304  0.00  0.00    +0.017 C 
ATOM     18  H   UNL     1      32.917  -6.878 -21.322  0.00  0.00    +0.152 HD
ENDBRANCH  11  14
BRANCH   6  19
ATOM     19  C   UNL     1      33.699 -15.062 -22.900  0.00  0.00    +0.003 C 
ATOM     20  C   UNL     1      34.334 -15.647 -21.804  0.00  0.00    +0.040 C 
ATOM     21  C   UNL     1      33.474 -15.808 -24.056  0.00  0.00    +0.003 C 
ATOM     22  C   UNL     1      34.744 -16.978 -21.865  0.00  0.00    +0.172 C 
ATOM     23  C   UNL     1      33.883 -17.141 -24.117  0.00  0.00    +0.040 C 
ATOM     24  C   UNL     1      34.518 -17.726 -23.021  0.00  0.00    +0.168 C 
BRANCH  22  25
ATOM     25  O   UNL     1      35.364 -17.539 -20.789  0.00  0.00    -0.468 OA
ATOM     26  C   UNL     1      36.607 -18.196 -21.026  0.00  0.00    +0.253 C 
ENDBRANCH  22  25
BRANCH  24  27
ATOM     27  O   UNL     1      34.913 -19.028 -23.092  0.00  0.00    -0.503 OA
ATOM     28  H   UNL     1      35.096 -19.505 -22.308  0.00  0.00    +0.292 HD
ENDBRANCH  24  27
ENDBRANCH   6  19
TORSDOF 4
ENDMDL
MODEL 7
REMARK VINA RESULT:     -10.9      1.151      2.021
REMARK  Name = 10125830
REMARK  4 active torsions:
REMARK  status: ('A' for Active; 'I' for Inactive)
REMARK    1  A    between atoms: C_6  and  C_19
REMARK    2  A    between atoms: C_11  and  C_14
REMARK    3  A    between atoms: C_22  and  O_25
REMARK    4  A    between atoms: C_24  and  O_27
REMARK                            x       y       z     vdW  Elec       q    Type
REMARK                         _______ _______ _______ _____ _____    ______ ____
ROOT
ATOM      1  O   UNL     1      32.810 -23.218 -16.587  0.00  0.00    -0.270 OA
ATOM      2  N   UNL     1      32.765 -21.773 -18.456  0.00  0.00    -0.280 N 
ATOM      3  C   UNL     1      34.947 -21.050 -18.462  0.00  0.00    +0.018 C 
ATOM      4  C   UNL     1      33.706 -20.961 -19.098  0.00  0.00    +0.051 C 
ATOM      5  C   UNL     1      34.759 -21.979 -17.353  0.00  0.00    +0.056 C 
ATOM      6  C   UNL     1      34.589 -19.433 -20.682  0.00  0.00    +0.001 C 
ATOM      7  C   UNL     1      33.498 -20.164 -20.206  0.00  0.00    +0.015 C 
ATOM      8  C   UNL     1      36.031 -20.329 -18.926  0.00  0.00    +0.001 C 
ATOM      9  C   UNL     1      33.331 -22.441 -17.365  0.00  0.00    +0.250 C 
ATOM     10  C   UNL     1      35.844 -19.515 -20.048  0.00  0.00    +0.000 C 
ATOM     11  C   UNL     1      35.655 -22.392 -16.453  0.00  0.00    +0.019 C 
ATOM     12  H   UNL     1      31.826 -21.864 -18.736  0.00  0.00    +0.155 HD
ENDROOT
BRANCH  11  14
ATOM     13  N   UNL     1      34.754 -22.857 -14.299  0.00  0.00    -0.312 N 
ATOM     14  C   UNL     1      35.457 -23.314 -15.359  0.00  0.00    +0.049 C 
ATOM     15  C   UNL     1      35.839 -24.592 -15.162  0.00  0.00    +0.016 C 
ATOM     16  C   UNL     1      34.673 -23.869 -13.377  0.00  0.00    +0.062 C 
ATOM     17  C   UNL     1      35.340 -24.959 -13.887  0.00  0.00    +0.017 C 
ATOM     18  H   UNL     1      34.369 -21.956 -14.204  0.00  0.00    +0.152 HD
ENDBRANCH  11  14
BRANCH   6  19
ATOM     19  C   UNL     1      34.430 -18.580 -21.840  0.00  0.00    +0.003 C 
ATOM     20  C   UNL     1      33.782 -19.063 -22.976  0.00  0.00    +0.040 C 
ATOM     21  C   UNL     1      34.923 -17.276 -21.819  0.00  0.00    +0.003 C 
ATOM     22  C   UNL     1      33.628 -18.241 -24.093  0.00  0.00    +0.172 C 
ATOM     23  C   UNL     1      34.768 -16.454 -22.935  0.00  0.00    +0.040 C 
ATOM     24  C   UNL     1      34.121 -16.936 -24.072  0.00  0.00    +0.168 C 
BRANCH  22  25
ATOM     25  O   UNL     1      32.994 -18.724 -25.198  0.00  0.00    -0.468 OA
ATOM     26  C   UNL     1      31.575 -18.593 -25.241  0.00  0.00    +0.253 C 
ENDBRANCH  22  25
BRANCH  24  27
ATOM     27  O   UNL     1      33.976 -16.124 -25.156  0.00  0.00    -0.503 OA
ATOM     28  H   UNL     1      33.309 -15.466 -25.162  0.00  0.00    +0.292 HD
ENDBRANCH  24  27
ENDBRANCH   6  19
TORSDOF 4
ENDMDL
MODEL 8
REMARK VINA RESULT:     -10.5      1.537      2.561
REMARK  Name = 10125830
REMARK  4 active torsions:
REMARK  status: ('A' for Active; 'I' for Inactive)
REMARK    1  A    between atoms: C_6  and  C_19
REMARK    2  A    between atoms: C_11  and  C_14
REMARK    3  A    between atoms: C_22  and  O_25
REMARK    4  A    between atoms: C_24  and  O_27
REMARK                            x       y       z     vdW  Elec       q    Type
REMARK                         _______ _______ _______ _____ _____    ______ ____
ROOT
ATOM      1  O   UNL     1      36.979 -22.085 -16.117  0.00  0.00    -0.270 OA
ATOM      2  N   UNL     1      36.646 -20.732 -18.025  0.00  0.00    -0.280 N 
ATOM      3  C   UNL     1      34.428 -21.164 -18.447  0.00  0.00    +0.018 C 
ATOM      4  C   UNL     1      35.560 -20.459 -18.864  0.00  0.00    +0.051 C 
ATOM      5  C   UNL     1      34.843 -21.924 -17.273  0.00  0.00    +0.056 C 
ATOM      6  C   UNL     1      34.342 -19.496 -20.657  0.00  0.00    +0.001 C 
ATOM      7  C   UNL     1      35.547 -19.620 -19.961  0.00  0.00    +0.015 C 
ATOM      8  C   UNL     1      33.232 -21.047 -19.131  0.00  0.00    +0.001 C 
ATOM      9  C   UNL     1      36.292 -21.629 -17.012  0.00  0.00    +0.250 C 
ATOM     10  C   UNL     1      33.196 -20.202 -20.245  0.00  0.00    +0.000 C 
ATOM     11  C   UNL     1      34.116 -22.748 -16.516  0.00  0.00    +0.019 C 
ATOM     12  H   UNL     1      37.544 -20.343 -18.134  0.00  0.00    +0.155 HD
ENDROOT
BRANCH  11  14
ATOM     13  N   UNL     1      34.507 -22.846 -14.169  0.00  0.00    -0.312 N 
ATOM     14  C   UNL     1      34.539 -23.494 -15.354  0.00  0.00    +0.049 C 
ATOM     15  C   UNL     1      34.977 -24.760 -15.192  0.00  0.00    +0.016 C 
ATOM     16  C   UNL     1      34.938 -23.713 -13.199  0.00  0.00    +0.062 C 
ATOM     17  C   UNL     1      35.238 -24.911 -13.808  0.00  0.00    +0.017 C 
ATOM     18  H   UNL     1      34.225 -21.913 -14.027  0.00  0.00    +0.152 HD
ENDBRANCH  11  14
BRANCH   6  19
ATOM     19  C   UNL     1      34.269 -18.631 -21.815  0.00  0.00    +0.003 C 
ATOM     20  C   UNL     1      33.619 -19.067 -22.969  0.00  0.00    +0.040 C 
ATOM     21  C   UNL     1      34.848 -17.364 -21.776  0.00  0.00    +0.003 C 
ATOM     22  C   UNL     1      33.549 -18.234 -24.086  0.00  0.00    +0.172 C 
ATOM     23  C   UNL     1      34.777 -16.530 -22.892  0.00  0.00    +0.040 C 
ATOM     24  C   UNL     1      34.127 -16.965 -24.047  0.00  0.00    +0.168 C 
BRANCH  22  25
ATOM     25  O   UNL     1      32.912 -18.670 -25.208  0.00  0.00    -0.468 OA
ATOM     26  C   UNL     1      31.500 -18.476 -25.270  0.00  0.00    +0.253 C 
ENDBRANCH  22  25
BRANCH  24  27
ATOM     27  O   UNL     1      34.064 -16.142 -25.131  0.00  0.00    -0.503 OA
ATOM     28  H   UNL     1      34.511 -16.373 -25.920  0.00  0.00    +0.292 HD
ENDBRANCH  24  27
ENDBRANCH   6  19
TORSDOF 4
ENDMDL
MODEL 9
REMARK VINA RESULT:     -10.5      2.363      3.673
REMARK  Name = 10125830
REMARK  4 active torsions:
REMARK  status: ('A' for Active; 'I' for Inactive)
REMARK    1  A    between atoms: C_6  and  C_19
REMARK    2  A    between atoms: C_11  and  C_14
REMARK    3  A    between atoms: C_22  and  O_25
REMARK    4  A    between atoms: C_24  and  O_27
REMARK                            x       y       z     vdW  Elec       q    Type
REMARK                         _______ _______ _______ _____ _____    ______ ____
ROOT
ATOM      1  O   UNL     1      37.945 -23.108 -14.368  0.00  0.00    -0.270 OA
ATOM      2  N   UNL     1      37.257 -21.980 -16.327  0.00  0.00    -0.280 N 
ATOM      3  C   UNL     1      35.031 -22.557 -16.366  0.00  0.00    +0.018 C 
ATOM      4  C   UNL     1      36.046 -21.847 -17.016  0.00  0.00    +0.051 C 
ATOM      5  C   UNL     1      35.658 -23.169 -15.200  0.00  0.00    +0.056 C 
ATOM      6  C   UNL     1      34.524 -21.137 -18.690  0.00  0.00    +0.001 C 
ATOM      7  C   UNL     1      35.822 -21.130 -18.174  0.00  0.00    +0.015 C 
ATOM      8  C   UNL     1      33.744 -22.568 -16.871  0.00  0.00    +0.001 C 
ATOM      9  C   UNL     1      37.109 -22.781 -15.190  0.00  0.00    +0.250 C 
ATOM     10  C   UNL     1      33.495 -21.848 -18.044  0.00  0.00    +0.000 C 
ATOM     11  C   UNL     1      35.101 -23.941 -14.266  0.00  0.00    +0.019 C 
ATOM     12  H   UNL     1      38.103 -21.563 -16.607  0.00  0.00    +0.155 HD
ENDROOT
BRANCH  11  14
ATOM     13  N   UNL     1      36.431 -25.678 -13.326  0.00  0.00    -0.312 N 
ATOM     14  C   UNL     1      35.732 -24.541 -13.114  0.00  0.00    +0.049 C 
ATOM     15  C   UNL     1      35.777 -24.191 -11.812  0.00  0.00    +0.016 C 
ATOM     16  C   UNL     1      36.951 -26.086 -12.126  0.00  0.00    +0.062 C 
ATOM     17  C   UNL     1      36.559 -25.181 -11.166  0.00  0.00    +0.017 C 
ATOM     18  H   UNL     1      36.546 -26.133 -14.192  0.00  0.00    +0.152 HD
ENDBRANCH  11  14
BRANCH   6  19
ATOM     19  C   UNL     1      34.232 -20.403 -19.903  0.00  0.00    +0.003 C 
ATOM     20  C   UNL     1      35.261 -19.773 -20.601  0.00  0.00    +0.040 C 
ATOM     21  C   UNL     1      32.921 -20.327 -20.372  0.00  0.00    +0.003 C 
ATOM     22  C   UNL     1      34.980 -19.066 -21.770  0.00  0.00    +0.172 C 
ATOM     23  C   UNL     1      32.639 -19.622 -21.542  0.00  0.00    +0.040 C 
ATOM     24  C   UNL     1      33.669 -18.991 -22.241  0.00  0.00    +0.168 C 
BRANCH  22  25
ATOM     25  O   UNL     1      35.993 -18.454 -22.444  0.00  0.00    -0.468 OA
ATOM     26  C   UNL     1      37.177 -18.160 -21.707  0.00  0.00    +0.253 C 
ENDBRANCH  22  25
BRANCH  24  27
ATOM     27  O   UNL     1      33.381 -18.304 -23.382  0.00  0.00    -0.503 OA
ATOM     28  H   UNL     1      32.865 -18.706 -24.053  0.00  0.00    +0.292 HD
ENDBRANCH  24  27
ENDBRANCH   6  19
TORSDOF 4
ENDMDL
