MODEL 1
REMARK VINA RESULT:     -11.3      0.000      0.000
REMARK  Name = 10184653
REMARK  7 active torsions:
REMARK  status: ('A' for Active; 'I' for Inactive)
REMARK    1  A    between atoms: N_2  and  C_15
REMARK    2  A    between atoms: C_4  and  O_32
REMARK    3  A    between atoms: C_5  and  N_22
REMARK    4  A    between atoms: C_23  and  C_25
REMARK    5  A    between atoms: C_26  and  C_27
REMARK    6  A    between atoms: C_27  and  N_28
REMARK    7  A    between atoms: O_32  and  C_34
REMARK                            x       y       z     vdW  Elec       q    Type
REMARK                         _______ _______ _______ _____ _____    ______ ____
ROOT
ATOM      1  N   UNL     1      30.466 -24.274 -13.091  0.00  0.00    -0.248 NA
ATOM      2  N   UNL     1      34.401 -23.835 -14.298  0.00  0.00    -0.301 N 
ATOM      3  N   UNL     1      32.825 -24.619 -12.737  0.00  0.00    -0.233 NA
ATOM      4  C   UNL     1      29.937 -22.469 -16.233  0.00  0.00    +0.153 C 
ATOM      5  C   UNL     1      31.243 -22.299 -16.678  0.00  0.00    +0.081 C 
ATOM      6  C   UNL     1      29.688 -23.133 -15.028  0.00  0.00    +0.053 C 
ATOM      7  C   UNL     1      32.040 -23.460 -14.708  0.00  0.00    +0.117 C 
ATOM      8  C   UNL     1      30.725 -23.638 -14.247  0.00  0.00    +0.070 C 
ATOM      9  C   UNL     1      32.298 -22.793 -15.918  0.00  0.00    +0.005 C 
ATOM     10  C   UNL     1      33.048 -23.978 -13.899  0.00  0.00    +0.115 C 
ATOM     11  C   UNL     1      31.531 -24.731 -12.399  0.00  0.00    +0.251 C 
ATOM     12  H   UNL     1      34.526 -23.809 -15.275  0.00  0.00    +0.153 HD
ENDROOT
BRANCH   2  15
ATOM     13 CL   UNL     1      39.256 -25.336 -13.659  0.00  0.00    -0.080 Cl
ATOM     14  F   UNL     1      39.109 -23.393 -11.424  0.00  0.00    -0.203 F 
ATOM     15  C   UNL     1      35.597 -23.725 -13.572  0.00  0.00    +0.050 C 
ATOM     16  C   UNL     1      36.705 -24.494 -13.931  0.00  0.00    +0.028 C 
ATOM     17  C   UNL     1      35.678 -22.849 -12.490  0.00  0.00    +0.017 C 
ATOM     18  C   UNL     1      37.893 -24.385 -13.210  0.00  0.00    +0.086 C 
ATOM     19  C   UNL     1      36.867 -22.740 -11.768  0.00  0.00    +0.032 C 
ATOM     20  C   UNL     1      37.974 -23.509 -12.128  0.00  0.00    +0.151 C 
ENDBRANCH   2  15
BRANCH   5  22
ATOM     21  O   UNL     1      33.745 -22.211 -18.336  0.00  0.00    -0.270 OA
ATOM     22  N   UNL     1      31.510 -21.637 -17.880  0.00  0.00    -0.278 N 
ATOM     23  C   UNL     1      32.702 -21.631 -18.614  0.00  0.00    +0.249 C 
ATOM     24  H   UNL     1      30.767 -21.111 -18.256  0.00  0.00    +0.155 HD
BRANCH  23  25
ATOM     25  C   UNL     1      32.583 -20.799 -19.849  0.00  0.00    +0.051 C 
ATOM     26  C   UNL     1      33.631 -20.095 -20.299  0.00  0.00    -0.044 C 
BRANCH  26  27
ATOM     27  C   UNL     1      33.582 -19.247 -21.535  0.00  0.00    -0.050 C 
BRANCH  27  28
ATOM     28  N   UNL     1      34.546 -18.154 -21.474  0.00  0.00    +0.387 N 
ATOM     29  C   UNL     1      35.850 -18.641 -21.024  0.00  0.00    -0.100 C 
ATOM     30  C   UNL     1      34.670 -17.504 -22.780  0.00  0.00    -0.100 C 
ATOM     31  H   UNL     1      34.207 -17.466 -20.801  0.00  0.00    -0.079 HD
ENDBRANCH  27  28
ENDBRANCH  26  27
ENDBRANCH  23  25
ENDBRANCH   5  22
BRANCH   4  32
ATOM     32  O   UNL     1      28.883 -21.996 -16.956  0.00  0.00    -0.475 OA
BRANCH  32  34
ATOM     33  O   UNL     1      25.954 -21.246 -16.695  0.00  0.00    -0.350 OA
ATOM     34  C   UNL     1      27.714 -22.806 -16.999  0.00  0.00    +0.198 C 
ATOM     35  C   UNL     1      27.152 -22.978 -15.609  0.00  0.00    +0.078 C 
ATOM     36  C   UNL     1      26.609 -22.040 -17.700  0.00  0.00    +0.185 C 
ATOM     37  C   UNL     1      26.406 -21.676 -15.403  0.00  0.00    +0.146 C 
ENDBRANCH  32  34
ENDBRANCH   4  32
TORSDOF 7
ENDMDL
MODEL 2
REMARK VINA RESULT:     -11.2     12.202     16.609
REMARK  Name = 10184653
REMARK  7 active torsions:
REMARK  status: ('A' for Active; 'I' for Inactive)
REMARK    1  A    between atoms: N_2  and  C_15
REMARK    2  A    between atoms: C_4  and  O_32
REMARK    3  A    between atoms: C_5  and  N_22
REMARK    4  A    between atoms: C_23  and  C_25
REMARK    5  A    between atoms: C_26  and  C_27
REMARK    6  A    between atoms: C_27  and  N_28
REMARK    7  A    between atoms: O_32  and  C_34
REMARK                            x       y       z     vdW  Elec       q    Type
REMARK                         _______ _______ _______ _____ _____    ______ ____
ROOT
ATOM      1  N   UNL     1      31.181  -8.516 -19.429  0.00  0.00    -0.248 NA
ATOM      2  N   UNL     1      32.324 -11.120 -22.436  0.00  0.00    -0.301 N 
ATOM      3  N   UNL     1      31.479 -10.755 -20.271  0.00  0.00    -0.233 NA
ATOM      4  C   UNL     1      32.213  -6.090 -21.970  0.00  0.00    +0.153 C 
ATOM      5  C   UNL     1      32.608  -6.927 -23.008  0.00  0.00    +0.081 C 
ATOM      6  C   UNL     1      31.736  -6.634 -20.774  0.00  0.00    +0.053 C 
ATOM      7  C   UNL     1      32.044  -8.846 -21.642  0.00  0.00    +0.117 C 
ATOM      8  C   UNL     1      31.642  -8.011 -20.586  0.00  0.00    +0.070 C 
ATOM      9  C   UNL     1      32.525  -8.306 -22.848  0.00  0.00    +0.005 C 
ATOM     10  C   UNL     1      31.935 -10.216 -21.416  0.00  0.00    +0.115 C 
ATOM     11  C   UNL     1      31.123  -9.861 -19.335  0.00  0.00    +0.251 C 
ATOM     12  H   UNL     1      32.203 -10.767 -23.347  0.00  0.00    +0.153 HD
ENDROOT
BRANCH   2  15
ATOM     13 CL   UNL     1      33.412 -15.444 -24.958  0.00  0.00    -0.080 Cl
ATOM     14  F   UNL     1      34.380 -16.256 -22.275  0.00  0.00    -0.203 F 
ATOM     15  C   UNL     1      32.845 -12.423 -22.399  0.00  0.00    +0.050 C 
ATOM     16  C   UNL     1      32.868 -13.199 -23.559  0.00  0.00    +0.028 C 
ATOM     17  C   UNL     1      33.339 -12.943 -21.203  0.00  0.00    +0.017 C 
ATOM     18  C   UNL     1      33.386 -14.493 -23.523  0.00  0.00    +0.086 C 
ATOM     19  C   UNL     1      33.856 -14.238 -21.166  0.00  0.00    +0.032 C 
ATOM     20  C   UNL     1      33.879 -15.014 -22.326  0.00  0.00    +0.151 C 
ENDBRANCH   2  15
BRANCH   5  22
ATOM     21  O   UNL     1      31.230  -6.536 -25.647  0.00  0.00    -0.270 OA
ATOM     22  N   UNL     1      33.088  -6.399 -24.210  0.00  0.00    -0.278 N 
ATOM     23  C   UNL     1      32.397  -6.240 -25.417  0.00  0.00    +0.249 C 
ATOM     24  H   UNL     1      34.027  -6.104 -24.207  0.00  0.00    +0.155 HD
BRANCH  23  25
ATOM     25  C   UNL     1      33.265  -5.635 -26.472  0.00  0.00    +0.051 C 
ATOM     26  C   UNL     1      34.589  -5.539 -26.290  0.00  0.00    -0.044 C 
BRANCH  26  27
ATOM     27  C   UNL     1      35.518  -4.951 -27.310  0.00  0.00    -0.050 C 
BRANCH  27  28
ATOM     28  N   UNL     1      34.798  -4.495 -28.493  0.00  0.00    +0.387 N 
ATOM     29  C   UNL     1      34.911  -3.043 -28.638  0.00  0.00    -0.100 C 
ATOM     30  C   UNL     1      35.302  -5.166 -29.692  0.00  0.00    -0.100 C 
ATOM     31  H   UNL     1      33.812  -4.733 -28.378  0.00  0.00    -0.079 HD
ENDBRANCH  27  28
ENDBRANCH  26  27
ENDBRANCH  23  25
ENDBRANCH   5  22
BRANCH   4  32
ATOM     32  O   UNL     1      32.284  -4.735 -22.097  0.00  0.00    -0.475 OA
BRANCH  32  34
ATOM     33  O   UNL     1      30.090  -4.003 -24.062  0.00  0.00    -0.350 OA
ATOM     34  C   UNL     1      31.077  -4.005 -21.907  0.00  0.00    +0.198 C 
ATOM     35  C   UNL     1      31.210  -2.622 -22.497  0.00  0.00    +0.078 C 
ATOM     36  C   UNL     1      29.989  -4.617 -22.766  0.00  0.00    +0.185 C 
ATOM     37  C   UNL     1      30.979  -2.882 -23.972  0.00  0.00    +0.146 C 
ENDBRANCH  32  34
ENDBRANCH   4  32
TORSDOF 7
ENDMDL
MODEL 3
REMARK VINA RESULT:      -9.4      4.206      8.550
REMARK  Name = 10184653
REMARK  7 active torsions:
REMARK  status: ('A' for Active; 'I' for Inactive)
REMARK    1  A    between atoms: N_2  and  C_15
REMARK    2  A    between atoms: C_4  and  O_32
REMARK    3  A    between atoms: C_5  and  N_22
REMARK    4  A    between atoms: C_23  and  C_25
REMARK    5  A    between atoms: C_26  and  C_27
REMARK    6  A    between atoms: C_27  and  N_28
REMARK    7  A    between atoms: O_32  and  C_34
REMARK                            x       y       z     vdW  Elec       q    Type
REMARK                         _______ _______ _______ _____ _____    ______ ____
ROOT
ATOM      1  N   UNL     1      37.524 -21.925 -15.380  0.00  0.00    -0.248 NA
ATOM      2  N   UNL     1      34.661 -21.582 -18.349  0.00  0.00    -0.301 N 
ATOM      3  N   UNL     1      36.878 -21.300 -17.617  0.00  0.00    -0.233 NA
ATOM      4  C   UNL     1      34.626 -23.258 -13.583  0.00  0.00    +0.153 C 
ATOM      5  C   UNL     1      33.631 -23.162 -14.550  0.00  0.00    +0.081 C 
ATOM      6  C   UNL     1      35.927 -22.840 -13.872  0.00  0.00    +0.053 C 
ATOM      7  C   UNL     1      35.253 -22.230 -16.088  0.00  0.00    +0.117 C 
ATOM      8  C   UNL     1      36.266 -22.322 -15.120  0.00  0.00    +0.070 C 
ATOM      9  C   UNL     1      33.940 -22.648 -15.804  0.00  0.00    +0.005 C 
ATOM     10  C   UNL     1      35.630 -21.706 -17.322  0.00  0.00    +0.115 C 
ATOM     11  C   UNL     1      37.762 -21.436 -16.615  0.00  0.00    +0.251 C 
ATOM     12  H   UNL     1      33.947 -22.259 -18.306  0.00  0.00    +0.153 HD
ENDROOT
BRANCH   2  15
ATOM     13 CL   UNL     1      36.894 -18.324 -21.611  0.00  0.00    -0.080 Cl
ATOM     14  F   UNL     1      34.099 -18.032 -22.558  0.00  0.00    -0.203 F 
ATOM     15  C   UNL     1      34.522 -20.681 -19.417  0.00  0.00    +0.050 C 
ATOM     16  C   UNL     1      35.644 -20.025 -19.926  0.00  0.00    +0.028 C 
ATOM     17  C   UNL     1      33.264 -20.440 -19.968  0.00  0.00    +0.017 C 
ATOM     18  C   UNL     1      35.507 -19.130 -20.987  0.00  0.00    +0.086 C 
ATOM     19  C   UNL     1      33.126 -19.545 -21.028  0.00  0.00    +0.032 C 
ATOM     20  C   UNL     1      34.248 -18.889 -21.538  0.00  0.00    +0.151 C 
ENDBRANCH   2  15
BRANCH   5  22
ATOM     21  O   UNL     1      31.824 -22.496 -12.246  0.00  0.00    -0.270 OA
ATOM     22  N   UNL     1      32.324 -23.575 -14.277  0.00  0.00    -0.278 N 
ATOM     23  C   UNL     1      31.524 -23.231 -13.180  0.00  0.00    +0.249 C 
ATOM     24  H   UNL     1      31.916 -24.182 -14.936  0.00  0.00    +0.155 HD
BRANCH  23  25
ATOM     25  C   UNL     1      30.181 -23.882 -13.254  0.00  0.00    +0.051 C 
ATOM     26  C   UNL     1      29.501 -23.909 -14.407  0.00  0.00    -0.044 C 
BRANCH  26  27
ATOM     27  C   UNL     1      28.154 -24.553 -14.553  0.00  0.00    -0.050 C 
BRANCH  27  28
ATOM     28  N   UNL     1      27.311 -23.828 -15.497  0.00  0.00    +0.387 N 
ATOM     29  C   UNL     1      27.333 -22.392 -15.209  0.00  0.00    -0.100 C 
ATOM     30  C   UNL     1      27.747 -24.076 -16.871  0.00  0.00    -0.100 C 
ATOM     31  H   UNL     1      26.354 -24.164 -15.394  0.00  0.00    -0.079 HD
ENDBRANCH  27  28
ENDBRANCH  26  27
ENDBRANCH  23  25
ENDBRANCH   5  22
BRANCH   4  32
ATOM     32  O   UNL     1      34.352 -23.757 -12.344  0.00  0.00    -0.475 OA
BRANCH  32  34
ATOM     33  O   UNL     1      35.140 -23.892  -9.417  0.00  0.00    -0.350 OA
ATOM     34  C   UNL     1      35.390 -24.486 -11.698  0.00  0.00    +0.198 C 
ATOM     35  C   UNL     1      36.515 -23.556 -11.316  0.00  0.00    +0.078 C 
ATOM     36  C   UNL     1      34.892 -24.960 -10.347  0.00  0.00    +0.185 C 
ATOM     37  C   UNL     1      35.986 -22.920 -10.046  0.00  0.00    +0.146 C 
ENDBRANCH  32  34
ENDBRANCH   4  32
TORSDOF 7
ENDMDL
MODEL 4
REMARK VINA RESULT:      -8.8     11.558     15.576
REMARK  Name = 10184653
REMARK  7 active torsions:
REMARK  status: ('A' for Active; 'I' for Inactive)
REMARK    1  A    between atoms: N_2  and  C_15
REMARK    2  A    between atoms: C_4  and  O_32
REMARK    3  A    between atoms: C_5  and  N_22
REMARK    4  A    between atoms: C_23  and  C_25
REMARK    5  A    between atoms: C_26  and  C_27
REMARK    6  A    between atoms: C_27  and  N_28
REMARK    7  A    between atoms: O_32  and  C_34
REMARK                            x       y       z     vdW  Elec       q    Type
REMARK                         _______ _______ _______ _____ _____    ______ ____
ROOT
ATOM      1  N   UNL     1      31.183 -10.557 -19.715  0.00  0.00    -0.248 NA
ATOM      2  N   UNL     1      32.245 -12.638 -23.131  0.00  0.00    -0.301 N 
ATOM      3  N   UNL     1      31.690 -12.625 -20.844  0.00  0.00    -0.233 NA
ATOM      4  C   UNL     1      31.436  -7.765 -22.070  0.00  0.00    +0.153 C 
ATOM      5  C   UNL     1      31.793  -8.422 -23.242  0.00  0.00    +0.081 C 
ATOM      6  C   UNL     1      31.234  -8.490 -20.893  0.00  0.00    +0.053 C 
ATOM      7  C   UNL     1      31.742 -10.528 -22.047  0.00  0.00    +0.117 C 
ATOM      8  C   UNL     1      31.381  -9.875 -20.856  0.00  0.00    +0.070 C 
ATOM      9  C   UNL     1      31.948  -9.804 -23.235  0.00  0.00    +0.005 C 
ATOM     10  C   UNL     1      31.881 -11.911 -21.970  0.00  0.00    +0.115 C 
ATOM     11  C   UNL     1      31.347 -11.895 -19.771  0.00  0.00    +0.251 C 
ATOM     12  H   UNL     1      31.935 -12.227 -23.970  0.00  0.00    +0.153 HD
ENDROOT
BRANCH   2  15
ATOM     13 CL   UNL     1      34.835 -16.528 -21.032  0.00  0.00    -0.080 Cl
ATOM     14  F   UNL     1      35.060 -17.345 -23.874  0.00  0.00    -0.203 F 
ATOM     15  C   UNL     1      32.959 -13.833 -23.316  0.00  0.00    +0.050 C 
ATOM     16  C   UNL     1      33.482 -14.510 -22.213  0.00  0.00    +0.028 C 
ATOM     17  C   UNL     1      33.147 -14.342 -24.600  0.00  0.00    +0.017 C 
ATOM     18  C   UNL     1      34.192 -15.697 -22.396  0.00  0.00    +0.086 C 
ATOM     19  C   UNL     1      33.857 -15.528 -24.784  0.00  0.00    +0.032 C 
ATOM     20  C   UNL     1      34.380 -16.206 -23.681  0.00  0.00    +0.151 C 
ENDBRANCH   2  15
BRANCH   5  22
ATOM     21  O   UNL     1      29.876  -6.818 -24.906  0.00  0.00    -0.270 OA
ATOM     22  N   UNL     1      31.999  -7.712 -24.428  0.00  0.00    -0.278 N 
ATOM     23  C   UNL     1      31.063  -6.977 -25.166  0.00  0.00    +0.249 C 
ATOM     24  H   UNL     1      32.916  -7.730 -24.788  0.00  0.00    +0.155 HD
BRANCH  23  25
ATOM     25  C   UNL     1      31.680  -6.361 -26.379  0.00  0.00    +0.051 C 
ATOM     26  C   UNL     1      32.916  -5.845 -26.326  0.00  0.00    -0.044 C 
BRANCH  26  27
ATOM     27  C   UNL     1      33.597  -5.221 -27.507  0.00  0.00    -0.050 C 
BRANCH  27  28
ATOM     28  N   UNL     1      33.866  -3.804 -27.284  0.00  0.00    +0.387 N 
ATOM     29  C   UNL     1      32.765  -2.985 -27.795  0.00  0.00    -0.100 C 
ATOM     30  C   UNL     1      34.078  -3.538 -25.861  0.00  0.00    -0.100 C 
ATOM     31  H   UNL     1      34.716  -3.557 -27.791  0.00  0.00    -0.079 HD
ENDBRANCH  27  28
ENDBRANCH  26  27
ENDBRANCH  23  25
ENDBRANCH   5  22
BRANCH   4  32
ATOM     32  O   UNL     1      31.278  -6.411 -22.047  0.00  0.00    -0.475 OA
BRANCH  32  34
ATOM     33  O   UNL     1      32.665  -6.018 -19.377  0.00  0.00    -0.350 OA
ATOM     34  C   UNL     1      32.419  -5.633 -21.703  0.00  0.00    +0.198 C 
ATOM     35  C   UNL     1      31.993  -4.390 -20.961  0.00  0.00    +0.078 C 
ATOM     36  C   UNL     1      33.223  -6.374 -20.654  0.00  0.00    +0.185 C 
ATOM     37  C   UNL     1      31.763  -4.919 -19.560  0.00  0.00    +0.146 C 
ENDBRANCH  32  34
ENDBRANCH   4  32
TORSDOF 7
ENDMDL
MODEL 5
REMARK VINA RESULT:      -8.5      4.010      7.505
REMARK  Name = 10184653
REMARK  7 active torsions:
REMARK  status: ('A' for Active; 'I' for Inactive)
REMARK    1  A    between atoms: N_2  and  C_15
REMARK    2  A    between atoms: C_4  and  O_32
REMARK    3  A    between atoms: C_5  and  N_22
REMARK    4  A    between atoms: C_23  and  C_25
REMARK    5  A    between atoms: C_26  and  C_27
REMARK    6  A    between atoms: C_27  and  N_28
REMARK    7  A    between atoms: O_32  and  C_34
REMARK                            x       y       z     vdW  Elec       q    Type
REMARK                         _______ _______ _______ _____ _____    ______ ____
ROOT
ATOM      1  N   UNL     1      33.458 -24.641 -12.624  0.00  0.00    -0.248 NA
ATOM      2  N   UNL     1      31.021 -22.077 -14.772  0.00  0.00    -0.301 N 
ATOM      3  N   UNL     1      31.314 -23.611 -13.013  0.00  0.00    -0.233 NA
ATOM      4  C   UNL     1      35.879 -23.429 -15.089  0.00  0.00    +0.153 C 
ATOM      5  C   UNL     1      35.098 -22.556 -15.839  0.00  0.00    +0.081 C 
ATOM      6  C   UNL     1      35.318 -24.123 -14.013  0.00  0.00    +0.053 C 
ATOM      7  C   UNL     1      33.201 -23.081 -14.427  0.00  0.00    +0.117 C 
ATOM      8  C   UNL     1      33.980 -23.965 -13.662  0.00  0.00    +0.070 C 
ATOM      9  C   UNL     1      33.758 -22.380 -15.511  0.00  0.00    +0.005 C 
ATOM     10  C   UNL     1      31.868 -22.950 -14.046  0.00  0.00    +0.115 C 
ATOM     11  C   UNL     1      32.153 -24.427 -12.355  0.00  0.00    +0.251 C 
ATOM     12  H   UNL     1      31.490 -21.308 -15.169  0.00  0.00    +0.153 HD
ENDROOT
BRANCH   2  15
ATOM     13 CL   UNL     1      27.160 -23.815 -17.656  0.00  0.00    -0.080 Cl
ATOM     14  F   UNL     1      25.581 -22.137 -15.789  0.00  0.00    -0.203 F 
ATOM     15  C   UNL     1      29.641 -22.094 -15.033  0.00  0.00    +0.050 C 
ATOM     16  C   UNL     1      29.141 -22.856 -16.090  0.00  0.00    +0.028 C 
ATOM     17  C   UNL     1      28.771 -21.352 -14.236  0.00  0.00    +0.017 C 
ATOM     18  C   UNL     1      27.771 -22.874 -16.350  0.00  0.00    +0.086 C 
ATOM     19  C   UNL     1      27.400 -21.369 -14.495  0.00  0.00    +0.032 C 
ATOM     20  C   UNL     1      26.900 -22.130 -15.553  0.00  0.00    +0.151 C 
ENDBRANCH   2  15
BRANCH   5  22
ATOM     21  O   UNL     1      34.053 -22.160 -18.626  0.00  0.00    -0.270 OA
ATOM     22  N   UNL     1      35.642 -21.855 -16.918  0.00  0.00    -0.278 N 
ATOM     23  C   UNL     1      35.109 -21.702 -18.204  0.00  0.00    +0.249 C 
ATOM     24  H   UNL     1      36.508 -21.414 -16.754  0.00  0.00    +0.155 HD
BRANCH  23  25
ATOM     25  C   UNL     1      35.999 -20.877 -19.074  0.00  0.00    +0.051 C 
ATOM     26  C   UNL     1      35.479 -19.967 -19.910  0.00  0.00    -0.044 C 
BRANCH  26  27
ATOM     27  C   UNL     1      36.315 -19.101 -20.804  0.00  0.00    -0.050 C 
BRANCH  27  28
ATOM     28  N   UNL     1      35.489 -18.318 -21.717  0.00  0.00    +0.387 N 
ATOM     29  C   UNL     1      34.432 -19.148 -22.297  0.00  0.00    -0.100 C 
ATOM     30  C   UNL     1      34.909 -17.166 -21.026  0.00  0.00    -0.100 C 
ATOM     31  H   UNL     1      36.084 -17.977 -22.472  0.00  0.00    -0.079 HD
ENDBRANCH  27  28
ENDBRANCH  26  27
ENDBRANCH  23  25
ENDBRANCH   5  22
BRANCH   4  32
ATOM     32  O   UNL     1      37.195 -23.623 -15.387  0.00  0.00    -0.475 OA
BRANCH  32  34
ATOM     33  O   UNL     1      39.391 -25.673 -14.961  0.00  0.00    -0.350 OA
ATOM     34  C   UNL     1      38.083 -23.813 -14.292  0.00  0.00    +0.198 C 
ATOM     35  C   UNL     1      37.660 -25.015 -13.484  0.00  0.00    +0.078 C 
ATOM     36  C   UNL     1      39.436 -24.242 -14.823  0.00  0.00    +0.185 C 
ATOM     37  C   UNL     1      38.213 -26.162 -14.306  0.00  0.00    +0.146 C 
ENDBRANCH  32  34
ENDBRANCH   4  32
TORSDOF 7
ENDMDL
