MODEL 1
REMARK VINA RESULT:     -11.4      0.000      0.000
REMARK  Name = 10339710
REMARK  4 active torsions:
REMARK  status: ('A' for Active; 'I' for Inactive)
REMARK    1  A    between atoms: C_5  and  N_17
REMARK    2  A    between atoms: C_7  and  C_11
REMARK    3  A    between atoms: N_17  and  C_19
REMARK    4  A    between atoms: C_19  and  C_21
REMARK                            x       y       z     vdW  Elec       q    Type
REMARK                         _______ _______ _______ _____ _____    ______ ____
ROOT
ATOM      1 BR   UNL     1      27.822 -22.852 -16.544  0.00  0.00    -0.066 Br
ATOM      2  N   UNL     1      31.508 -23.630 -15.040  0.00  0.00    -0.152 N 
ATOM      3  N   UNL     1      31.234 -22.396 -17.090  0.00  0.00    -0.388 NA
ATOM      4  N   UNL     1      30.750 -24.239 -14.085  0.00  0.00    -0.173 NA
ATOM      5  C   UNL     1      32.908 -23.537 -15.096  0.00  0.00    +0.126 C 
ATOM      6  C   UNL     1      30.703 -23.060 -16.027  0.00  0.00    +0.200 C 
ATOM      7  C   UNL     1      32.532 -22.322 -17.150  0.00  0.00    +0.135 C 
ATOM      8  C   UNL     1      33.469 -22.889 -16.132  0.00  0.00    +0.064 C 
ATOM      9  C   UNL     1      29.400 -23.323 -15.672  0.00  0.00    +0.168 C 
ATOM     10  C   UNL     1      29.493 -24.047 -14.477  0.00  0.00    +0.112 C 
ENDROOT
BRANCH   7  11
ATOM     11  C   UNL     1      33.154 -21.610 -18.298  0.00  0.00    +0.030 C 
ATOM     12  C   UNL     1      32.363 -20.834 -19.143  0.00  0.00    +0.003 C 
ATOM     13  C   UNL     1      34.523 -21.721 -18.524  0.00  0.00    +0.003 C 
ATOM     14  C   UNL     1      32.947 -20.166 -20.219  0.00  0.00    +0.000 C 
ATOM     15  C   UNL     1      35.106 -21.053 -19.600  0.00  0.00    +0.000 C 
ATOM     16  C   UNL     1      34.319 -20.275 -20.448  0.00  0.00    +0.000 C 
ENDBRANCH   7  11
BRANCH   5  17
ATOM     17  N   UNL     1      33.619 -24.109 -14.079  0.00  0.00    -0.316 N 
ATOM     18  H   UNL     1      33.253 -24.915 -13.648  0.00  0.00    +0.148 HD
BRANCH  17  19
ATOM     19  C   UNL     1      34.878 -23.595 -13.608  0.00  0.00    +0.115 C 
BRANCH  19  21
ATOM     20  N   UNL     1      38.071 -26.397 -14.182  0.00  0.00    -0.242 NA
ATOM     21  C   UNL     1      35.996 -24.577 -13.809  0.00  0.00    +0.000 C 
ATOM     22  C   UNL     1      35.844 -25.618 -14.710  0.00  0.00    +0.018 C 
ATOM     23  C   UNL     1      37.173 -24.434 -13.093  0.00  0.00    +0.018 C 
ATOM     24  C   UNL     1      36.905 -26.496 -14.859  0.00  0.00    +0.099 C 
ATOM     25  C   UNL     1      38.175 -25.365 -13.315  0.00  0.00    +0.099 C 
ENDBRANCH  19  21
ENDBRANCH  17  19
ENDBRANCH   5  17
TORSDOF 4
ENDMDL
MODEL 2
REMARK VINA RESULT:     -11.3      1.000      1.455
REMARK  Name = 10339710
REMARK  4 active torsions:
REMARK  status: ('A' for Active; 'I' for Inactive)
REMARK    1  A    between atoms: C_5  and  N_17
REMARK    2  A    between atoms: C_7  and  C_11
REMARK    3  A    between atoms: N_17  and  C_19
REMARK    4  A    between atoms: C_19  and  C_21
REMARK                            x       y       z     vdW  Elec       q    Type
REMARK                         _______ _______ _______ _____ _____    ______ ____
ROOT
ATOM      1 BR   UNL     1      27.925 -22.517 -16.305  0.00  0.00    -0.066 Br
ATOM      2  N   UNL     1      31.642 -23.597 -15.092  0.00  0.00    -0.152 N 
ATOM      3  N   UNL     1      31.316 -22.261 -17.069  0.00  0.00    -0.388 NA
ATOM      4  N   UNL     1      30.910 -24.196 -14.110  0.00  0.00    -0.173 NA
ATOM      5  C   UNL     1      33.038 -23.593 -15.241  0.00  0.00    +0.126 C 
ATOM      6  C   UNL     1      30.813 -22.934 -15.998  0.00  0.00    +0.200 C 
ATOM      7  C   UNL     1      32.609 -22.269 -17.216  0.00  0.00    +0.135 C 
ATOM      8  C   UNL     1      33.571 -22.939 -16.288  0.00  0.00    +0.064 C 
ATOM      9  C   UNL     1      29.522 -23.127 -15.564  0.00  0.00    +0.168 C 
ATOM     10  C   UNL     1      29.645 -23.905 -14.407  0.00  0.00    +0.112 C 
ENDROOT
BRANCH   7  11
ATOM     11  C   UNL     1      33.201 -21.550 -18.376  0.00  0.00    +0.030 C 
ATOM     12  C   UNL     1      32.378 -20.819 -19.231  0.00  0.00    +0.003 C 
ATOM     13  C   UNL     1      34.572 -21.611 -18.604  0.00  0.00    +0.003 C 
ATOM     14  C   UNL     1      32.932 -20.145 -20.318  0.00  0.00    +0.000 C 
ATOM     15  C   UNL     1      35.127 -20.937 -19.692  0.00  0.00    +0.000 C 
ATOM     16  C   UNL     1      34.307 -20.204 -20.549  0.00  0.00    +0.000 C 
ENDBRANCH   7  11
BRANCH   5  17
ATOM     17  N   UNL     1      33.775 -24.253 -14.299  0.00  0.00    -0.316 N 
ATOM     18  H   UNL     1      33.408 -24.331 -13.389  0.00  0.00    +0.148 HD
BRANCH  17  19
ATOM     19  C   UNL     1      35.059 -24.843 -14.570  0.00  0.00    +0.115 C 
BRANCH  19  21
ATOM     20  N   UNL     1      38.112 -23.295 -11.990  0.00  0.00    -0.242 NA
ATOM     21  C   UNL     1      36.129 -24.299 -13.666  0.00  0.00    +0.000 C 
ATOM     22  C   UNL     1      35.885 -23.159 -12.920  0.00  0.00    +0.018 C 
ATOM     23  C   UNL     1      37.352 -24.945 -13.584  0.00  0.00    +0.018 C 
ATOM     24  C   UNL     1      36.903 -22.699 -12.102  0.00  0.00    +0.099 C 
ATOM     25  C   UNL     1      38.305 -24.405 -12.735  0.00  0.00    +0.099 C 
ENDBRANCH  19  21
ENDBRANCH  17  19
ENDBRANCH   5  17
TORSDOF 4
ENDMDL
MODEL 3
REMARK VINA RESULT:     -11.1      2.908      5.716
REMARK  Name = 10339710
REMARK  4 active torsions:
REMARK  status: ('A' for Active; 'I' for Inactive)
REMARK    1  A    between atoms: C_5  and  N_17
REMARK    2  A    between atoms: C_7  and  C_11
REMARK    3  A    between atoms: N_17  and  C_19
REMARK    4  A    between atoms: C_19  and  C_21
REMARK                            x       y       z     vdW  Elec       q    Type
REMARK                         _______ _______ _______ _____ _____    ______ ____
ROOT
ATOM      1 BR   UNL     1      38.990 -24.516 -14.444  0.00  0.00    -0.066 Br
ATOM      2  N   UNL     1      35.051 -23.885 -13.705  0.00  0.00    -0.152 N 
ATOM      3  N   UNL     1      36.070 -23.137 -15.755  0.00  0.00    -0.388 NA
ATOM      4  N   UNL     1      35.388 -24.532 -12.553  0.00  0.00    -0.173 NA
ATOM      5  C   UNL     1      33.790 -23.393 -14.076  0.00  0.00    +0.126 C 
ATOM      6  C   UNL     1      36.158 -23.753 -14.545  0.00  0.00    +0.200 C 
ATOM      7  C   UNL     1      34.904 -22.669 -16.094  0.00  0.00    +0.135 C 
ATOM      8  C   UNL     1      33.664 -22.778 -15.264  0.00  0.00    +0.064 C 
ATOM      9  C   UNL     1      37.219 -24.339 -13.893  0.00  0.00    +0.168 C 
ATOM     10  C   UNL     1      36.687 -24.797 -12.681  0.00  0.00    +0.112 C 
ENDROOT
BRANCH   7  11
ATOM     11  C   UNL     1      34.763 -21.984 -17.407  0.00  0.00    +0.030 C 
ATOM     12  C   UNL     1      33.524 -21.955 -18.043  0.00  0.00    +0.003 C 
ATOM     13  C   UNL     1      35.868 -21.376 -17.995  0.00  0.00    +0.003 C 
ATOM     14  C   UNL     1      33.391 -21.313 -19.274  0.00  0.00    +0.000 C 
ATOM     15  C   UNL     1      35.735 -20.734 -19.226  0.00  0.00    +0.000 C 
ATOM     16  C   UNL     1      34.497 -20.702 -19.866  0.00  0.00    +0.000 C 
ENDBRANCH   7  11
BRANCH   5  17
ATOM     17  N   UNL     1      32.758 -23.579 -13.200  0.00  0.00    -0.316 N 
ATOM     18  H   UNL     1      32.800 -24.346 -12.585  0.00  0.00    +0.148 HD
BRANCH  17  19
ATOM     19  C   UNL     1      31.613 -22.710 -13.132  0.00  0.00    +0.115 C 
BRANCH  19  21
ATOM     20  N   UNL     1      28.254 -24.317 -15.255  0.00  0.00    -0.242 NA
ATOM     21  C   UNL     1      30.436 -23.272 -13.876  0.00  0.00    +0.000 C 
ATOM     22  C   UNL     1      29.754 -22.481 -14.785  0.00  0.00    +0.018 C 
ATOM     23  C   UNL     1      30.041 -24.580 -13.648  0.00  0.00    +0.018 C 
ATOM     24  C   UNL     1      28.676 -23.047 -15.445  0.00  0.00    +0.099 C 
ATOM     25  C   UNL     1      28.950 -25.053 -14.359  0.00  0.00    +0.099 C 
ENDBRANCH  19  21
ENDBRANCH  17  19
ENDBRANCH   5  17
TORSDOF 4
ENDMDL
MODEL 4
REMARK VINA RESULT:     -11.1      3.230      7.275
REMARK  Name = 10339710
REMARK  4 active torsions:
REMARK  status: ('A' for Active; 'I' for Inactive)
REMARK    1  A    between atoms: C_5  and  N_17
REMARK    2  A    between atoms: C_7  and  C_11
REMARK    3  A    between atoms: N_17  and  C_19
REMARK    4  A    between atoms: C_19  and  C_21
REMARK                            x       y       z     vdW  Elec       q    Type
REMARK                         _______ _______ _______ _____ _____    ______ ____
ROOT
ATOM      1 BR   UNL     1      36.298 -22.802 -13.338  0.00  0.00    -0.066 Br
ATOM      2  N   UNL     1      34.871 -22.096 -17.069  0.00  0.00    -0.152 N 
ATOM      3  N   UNL     1      33.418 -22.845 -15.300  0.00  0.00    -0.388 NA
ATOM      4  N   UNL     1      36.183 -21.788 -17.276  0.00  0.00    -0.173 NA
ATOM      5  C   UNL     1      33.821 -22.048 -17.999  0.00  0.00    +0.126 C 
ATOM      6  C   UNL     1      34.653 -22.487 -15.747  0.00  0.00    +0.200 C 
ATOM      7  C   UNL     1      32.447 -22.814 -16.166  0.00  0.00    +0.135 C 
ATOM      8  C   UNL     1      32.587 -22.396 -17.595  0.00  0.00    +0.064 C 
ATOM      9  C   UNL     1      35.871 -22.418 -15.111  0.00  0.00    +0.168 C 
ATOM     10  C   UNL     1      36.767 -21.986 -16.095  0.00  0.00    +0.112 C 
ENDROOT
BRANCH   7  11
ATOM     11  C   UNL     1      31.081 -23.203 -15.721  0.00  0.00    +0.030 C 
ATOM     12  C   UNL     1      29.971 -22.531 -16.227  0.00  0.00    +0.003 C 
ATOM     13  C   UNL     1      30.918 -24.235 -14.802  0.00  0.00    +0.003 C 
ATOM     14  C   UNL     1      28.690 -22.894 -15.811  0.00  0.00    +0.000 C 
ATOM     15  C   UNL     1      29.638 -24.599 -14.386  0.00  0.00    +0.000 C 
ATOM     16  C   UNL     1      28.524 -23.929 -14.890  0.00  0.00    +0.000 C 
ENDBRANCH   7  11
BRANCH   5  17
ATOM     17  N   UNL     1      34.120 -21.639 -19.268  0.00  0.00    -0.316 N 
ATOM     18  H   UNL     1      34.846 -22.098 -19.748  0.00  0.00    +0.148 HD
BRANCH  17  19
ATOM     19  C   UNL     1      33.426 -20.571 -19.938  0.00  0.00    +0.115 C 
BRANCH  19  21
ATOM     20  N   UNL     1      36.110 -18.030 -22.110  0.00  0.00    -0.242 NA
ATOM     21  C   UNL     1      34.367 -19.680 -20.698  0.00  0.00    +0.000 C 
ATOM     22  C   UNL     1      35.649 -19.468 -20.222  0.00  0.00    +0.018 C 
ATOM     23  C   UNL     1      33.945 -19.079 -21.873  0.00  0.00    +0.018 C 
ATOM     24  C   UNL     1      36.478 -18.639 -20.960  0.00  0.00    +0.099 C 
ATOM     25  C   UNL     1      34.850 -18.268 -22.538  0.00  0.00    +0.099 C 
ENDBRANCH  19  21
ENDBRANCH  17  19
ENDBRANCH   5  17
TORSDOF 4
ENDMDL
MODEL 5
REMARK VINA RESULT:     -10.8      2.974      5.283
REMARK  Name = 10339710
REMARK  4 active torsions:
REMARK  status: ('A' for Active; 'I' for Inactive)
REMARK    1  A    between atoms: C_5  and  N_17
REMARK    2  A    between atoms: C_7  and  C_11
REMARK    3  A    between atoms: N_17  and  C_19
REMARK    4  A    between atoms: C_19  and  C_21
REMARK                            x       y       z     vdW  Elec       q    Type
REMARK                         _______ _______ _______ _____ _____    ______ ____
ROOT
ATOM      1 BR   UNL     1      37.673 -22.323 -15.713  0.00  0.00    -0.066 Br
ATOM      2  N   UNL     1      33.804 -22.549 -16.909  0.00  0.00    -0.152 N 
ATOM      3  N   UNL     1      35.416 -21.256 -18.144  0.00  0.00    -0.388 NA
ATOM      4  N   UNL     1      33.734 -23.335 -15.797  0.00  0.00    -0.173 NA
ATOM      5  C   UNL     1      32.767 -22.226 -17.797  0.00  0.00    +0.126 C 
ATOM      6  C   UNL     1      35.099 -22.066 -17.098  0.00  0.00    +0.200 C 
ATOM      7  C   UNL     1      34.452 -20.944 -18.961  0.00  0.00    +0.135 C 
ATOM      8  C   UNL     1      33.041 -21.427 -18.843  0.00  0.00    +0.064 C 
ATOM      9  C   UNL     1      35.861 -22.570 -16.068  0.00  0.00    +0.168 C 
ATOM     10  C   UNL     1      34.972 -23.337 -15.306  0.00  0.00    +0.112 C 
ENDROOT
BRANCH   7  11
ATOM     11  C   UNL     1      34.753 -20.057 -20.116  0.00  0.00    +0.030 C 
ATOM     12  C   UNL     1      33.775 -19.819 -21.080  0.00  0.00    +0.003 C 
ATOM     13  C   UNL     1      36.009 -19.468 -20.230  0.00  0.00    +0.003 C 
ATOM     14  C   UNL     1      34.056 -18.987 -22.163  0.00  0.00    +0.000 C 
ATOM     15  C   UNL     1      36.290 -18.636 -21.314  0.00  0.00    +0.000 C 
ATOM     16  C   UNL     1      35.314 -18.395 -22.280  0.00  0.00    +0.000 C 
ENDBRANCH   7  11
BRANCH   5  17
ATOM     17  N   UNL     1      31.533 -22.755 -17.546  0.00  0.00    -0.316 N 
ATOM     18  H   UNL     1      31.285 -23.597 -17.993  0.00  0.00    +0.148 HD
BRANCH  17  19
ATOM     19  C   UNL     1      30.577 -22.146 -16.659  0.00  0.00    +0.115 C 
BRANCH  19  21
ATOM     20  N   UNL     1      30.040 -24.427 -13.070  0.00  0.00    -0.242 NA
ATOM     21  C   UNL     1      30.388 -22.945 -15.402  0.00  0.00    +0.000 C 
ATOM     22  C   UNL     1      29.811 -24.202 -15.466  0.00  0.00    +0.018 C 
ATOM     23  C   UNL     1      30.794 -22.420 -14.186  0.00  0.00    +0.018 C 
ATOM     24  C   UNL     1      29.660 -24.900 -14.279  0.00  0.00    +0.099 C 
ATOM     25  C   UNL     1      30.600 -23.196 -13.056  0.00  0.00    +0.099 C 
ENDBRANCH  19  21
ENDBRANCH  17  19
ENDBRANCH   5  17
TORSDOF 4
ENDMDL
MODEL 6
REMARK VINA RESULT:     -10.6      2.063      6.037
REMARK  Name = 10339710
REMARK  4 active torsions:
REMARK  status: ('A' for Active; 'I' for Inactive)
REMARK    1  A    between atoms: C_5  and  N_17
REMARK    2  A    between atoms: C_7  and  C_11
REMARK    3  A    between atoms: N_17  and  C_19
REMARK    4  A    between atoms: C_19  and  C_21
REMARK                            x       y       z     vdW  Elec       q    Type
REMARK                         _______ _______ _______ _____ _____    ______ ____
ROOT
ATOM      1 BR   UNL     1      30.081 -24.276 -12.878  0.00  0.00    -0.066 Br
ATOM      2  N   UNL     1      31.533 -22.635 -16.292  0.00  0.00    -0.152 N 
ATOM      3  N   UNL     1      33.001 -23.650 -14.675  0.00  0.00    -0.388 NA
ATOM      4  N   UNL     1      30.205 -22.388 -16.479  0.00  0.00    -0.173 NA
ATOM      5  C   UNL     1      32.596 -22.309 -17.148  0.00  0.00    +0.126 C 
ATOM      6  C   UNL     1      31.752 -23.297 -15.083  0.00  0.00    +0.200 C 
ATOM      7  C   UNL     1      33.989 -23.335 -15.462  0.00  0.00    +0.135 C 
ATOM      8  C   UNL     1      33.845 -22.640 -16.779  0.00  0.00    +0.064 C 
ATOM      9  C   UNL     1      30.517 -23.468 -14.500  0.00  0.00    +0.168 C 
ATOM     10  C   UNL     1      29.612 -22.892 -15.399  0.00  0.00    +0.112 C 
ENDROOT
BRANCH   7  11
ATOM     11  C   UNL     1      35.372 -23.698 -15.052  0.00  0.00    +0.030 C 
ATOM     12  C   UNL     1      35.593 -24.854 -14.307  0.00  0.00    +0.003 C 
ATOM     13  C   UNL     1      36.439 -22.881 -15.414  0.00  0.00    +0.003 C 
ATOM     14  C   UNL     1      36.890 -25.195 -13.923  0.00  0.00    +0.000 C 
ATOM     15  C   UNL     1      37.736 -23.221 -15.029  0.00  0.00    +0.000 C 
ATOM     16  C   UNL     1      37.961 -24.378 -14.284  0.00  0.00    +0.000 C 
ENDBRANCH   7  11
BRANCH   5  17
ATOM     17  N   UNL     1      32.291 -21.675 -18.320  0.00  0.00    -0.316 N 
ATOM     18  H   UNL     1      31.566 -21.009 -18.316  0.00  0.00    +0.148 HD
BRANCH  17  19
ATOM     19  C   UNL     1      32.978 -21.930 -19.558  0.00  0.00    +0.115 C 
BRANCH  19  21
ATOM     20  N   UNL     1      35.632 -18.731 -20.605  0.00  0.00    -0.242 NA
ATOM     21  C   UNL     1      33.907 -20.809 -19.926  0.00  0.00    +0.000 C 
ATOM     22  C   UNL     1      33.422 -19.710 -20.615  0.00  0.00    +0.018 C 
ATOM     23  C   UNL     1      35.245 -20.881 -19.571  0.00  0.00    +0.018 C 
ATOM     24  C   UNL     1      34.319 -18.703 -20.929  0.00  0.00    +0.099 C 
ATOM     25  C   UNL     1      36.061 -19.822 -19.932  0.00  0.00    +0.099 C 
ENDBRANCH  19  21
ENDBRANCH  17  19
ENDBRANCH   5  17
TORSDOF 4
ENDMDL
MODEL 7
REMARK VINA RESULT:     -10.4      2.683      5.983
REMARK  Name = 10339710
REMARK  4 active torsions:
REMARK  status: ('A' for Active; 'I' for Inactive)
REMARK    1  A    between atoms: C_5  and  N_17
REMARK    2  A    between atoms: C_7  and  C_11
REMARK    3  A    between atoms: N_17  and  C_19
REMARK    4  A    between atoms: C_19  and  C_21
REMARK                            x       y       z     vdW  Elec       q    Type
REMARK                         _______ _______ _______ _____ _____    ______ ____
ROOT
ATOM      1 BR   UNL     1      37.965 -22.971 -15.316  0.00  0.00    -0.066 Br
ATOM      2  N   UNL     1      33.938 -23.440 -15.444  0.00  0.00    -0.152 N 
ATOM      3  N   UNL     1      35.098 -22.166 -17.126  0.00  0.00    -0.388 NA
ATOM      4  N   UNL     1      34.204 -24.151 -14.312  0.00  0.00    -0.173 NA
ATOM      5  C   UNL     1      32.689 -23.221 -16.047  0.00  0.00    +0.126 C 
ATOM      6  C   UNL     1      35.110 -22.917 -15.991  0.00  0.00    +0.200 C 
ATOM      7  C   UNL     1      33.939 -21.951 -17.678  0.00  0.00    +0.135 C 
ATOM      8  C   UNL     1      32.637 -22.484 -17.169  0.00  0.00    +0.064 C 
ATOM      9  C   UNL     1      36.140 -23.318 -15.172  0.00  0.00    +0.168 C 
ATOM     10  C   UNL     1      35.525 -24.069 -14.163  0.00  0.00    +0.112 C 
ENDROOT
BRANCH   7  11
ATOM     11  C   UNL     1      33.879 -21.131 -18.918  0.00  0.00    +0.030 C 
ATOM     12  C   UNL     1      32.642 -20.765 -19.446  0.00  0.00    +0.003 C 
ATOM     13  C   UNL     1      35.056 -20.734 -19.546  0.00  0.00    +0.003 C 
ATOM     14  C   UNL     1      32.585 -19.997 -20.609  0.00  0.00    +0.000 C 
ATOM     15  C   UNL     1      34.998 -19.966 -20.708  0.00  0.00    +0.000 C 
ATOM     16  C   UNL     1      33.763 -19.597 -21.240  0.00  0.00    +0.000 C 
ENDBRANCH   7  11
BRANCH   5  17
ATOM     17  N   UNL     1      31.595 -23.784 -15.453  0.00  0.00    -0.316 N 
ATOM     18  H   UNL     1      31.415 -24.738 -15.613  0.00  0.00    +0.148 HD
BRANCH  17  19
ATOM     19  C   UNL     1      30.692 -23.052 -14.603  0.00  0.00    +0.115 C 
BRANCH  19  21
ATOM     20  N   UNL     1      26.818 -22.614 -16.386  0.00  0.00    -0.242 NA
ATOM     21  C   UNL     1      29.335 -22.898 -15.227  0.00  0.00    +0.000 C 
ATOM     22  C   UNL     1      28.503 -21.869 -14.821  0.00  0.00    +0.018 C 
ATOM     23  C   UNL     1      28.924 -23.788 -16.207  0.00  0.00    +0.018 C 
ATOM     24  C   UNL     1      27.262 -21.770 -15.427  0.00  0.00    +0.099 C 
ATOM     25  C   UNL     1      27.664 -23.603 -16.752  0.00  0.00    +0.099 C 
ENDBRANCH  19  21
ENDBRANCH  17  19
ENDBRANCH   5  17
TORSDOF 4
ENDMDL
MODEL 8
REMARK VINA RESULT:     -10.3      2.304      6.769
REMARK  Name = 10339710
REMARK  4 active torsions:
REMARK  status: ('A' for Active; 'I' for Inactive)
REMARK    1  A    between atoms: C_5  and  N_17
REMARK    2  A    between atoms: C_7  and  C_11
REMARK    3  A    between atoms: N_17  and  C_19
REMARK    4  A    between atoms: C_19  and  C_21
REMARK                            x       y       z     vdW  Elec       q    Type
REMARK                         _______ _______ _______ _____ _____    ______ ____
ROOT
ATOM      1 BR   UNL     1      30.144 -23.487 -14.138  0.00  0.00    -0.066 Br
ATOM      2  N   UNL     1      32.881 -22.320 -16.895  0.00  0.00    -0.152 N 
ATOM      3  N   UNL     1      33.560 -23.161 -14.743  0.00  0.00    -0.388 NA
ATOM      4  N   UNL     1      31.741 -22.066 -17.599  0.00  0.00    -0.173 NA
ATOM      5  C   UNL     1      34.207 -22.129 -17.311  0.00  0.00    +0.126 C 
ATOM      6  C   UNL     1      32.583 -22.832 -15.631  0.00  0.00    +0.200 C 
ATOM      7  C   UNL     1      34.790 -22.971 -15.123  0.00  0.00    +0.135 C 
ATOM      8  C   UNL     1      35.200 -22.442 -16.461  0.00  0.00    +0.064 C 
ATOM      9  C   UNL     1      31.211 -22.899 -15.547  0.00  0.00    +0.168 C 
ATOM     10  C   UNL     1      30.752 -22.417 -16.779  0.00  0.00    +0.112 C 
ENDROOT
BRANCH   7  11
ATOM     11  C   UNL     1      35.890 -23.312 -14.182  0.00  0.00    +0.030 C 
ATOM     12  C   UNL     1      35.869 -22.812 -12.881  0.00  0.00    +0.003 C 
ATOM     13  C   UNL     1      36.936 -24.129 -14.603  0.00  0.00    +0.003 C 
ATOM     14  C   UNL     1      36.900 -23.132 -11.998  0.00  0.00    +0.000 C 
ATOM     15  C   UNL     1      37.967 -24.449 -13.720  0.00  0.00    +0.000 C 
ATOM     16  C   UNL     1      37.949 -23.951 -12.418  0.00  0.00    +0.000 C 
ENDBRANCH   7  11
BRANCH   5  17
ATOM     17  N   UNL     1      34.409 -21.639 -18.571  0.00  0.00    -0.316 N 
ATOM     18  H   UNL     1      33.671 -21.701 -19.220  0.00  0.00    +0.148 HD
BRANCH  17  19
ATOM     19  C   UNL     1      35.644 -21.036 -18.996  0.00  0.00    +0.115 C 
BRANCH  19  21
ATOM     20  N   UNL     1      35.022 -18.106 -22.063  0.00  0.00    -0.242 NA
ATOM     21  C   UNL     1      35.427 -20.008 -20.070  0.00  0.00    +0.000 C 
ATOM     22  C   UNL     1      36.438 -19.117 -20.385  0.00  0.00    +0.018 C 
ATOM     23  C   UNL     1      34.215 -19.962 -20.740  0.00  0.00    +0.018 C 
ATOM     24  C   UNL     1      36.188 -18.190 -21.383  0.00  0.00    +0.099 C 
ATOM     25  C   UNL     1      34.064 -18.997 -21.723  0.00  0.00    +0.099 C 
ENDBRANCH  19  21
ENDBRANCH  17  19
ENDBRANCH   5  17
TORSDOF 4
ENDMDL
MODEL 9
REMARK VINA RESULT:     -10.3      2.402      4.917
REMARK  Name = 10339710
REMARK  4 active torsions:
REMARK  status: ('A' for Active; 'I' for Inactive)
REMARK    1  A    between atoms: C_5  and  N_17
REMARK    2  A    between atoms: C_7  and  C_11
REMARK    3  A    between atoms: N_17  and  C_19
REMARK    4  A    between atoms: C_19  and  C_21
REMARK                            x       y       z     vdW  Elec       q    Type
REMARK                         _______ _______ _______ _____ _____    ______ ____
ROOT
ATOM      1 BR   UNL     1      32.675 -20.533 -20.155  0.00  0.00    -0.066 Br
ATOM      2  N   UNL     1      34.932 -22.162 -17.204  0.00  0.00    -0.152 N 
ATOM      3  N   UNL     1      32.528 -22.311 -17.161  0.00  0.00    -0.388 NA
ATOM      4  N   UNL     1      35.927 -21.649 -17.981  0.00  0.00    -0.173 NA
ATOM      5  C   UNL     1      35.062 -22.875 -16.001  0.00  0.00    +0.126 C 
ATOM      6  C   UNL     1      33.679 -21.898 -17.759  0.00  0.00    +0.200 C 
ATOM      7  C   UNL     1      32.647 -22.959 -16.039  0.00  0.00    +0.135 C 
ATOM      8  C   UNL     1      33.947 -23.298 -15.380  0.00  0.00    +0.064 C 
ATOM      9  C   UNL     1      33.905 -21.198 -18.922  0.00  0.00    +0.168 C 
ATOM     10  C   UNL     1      35.297 -21.076 -19.004  0.00  0.00    +0.112 C 
ENDROOT
BRANCH   7  11
ATOM     11  C   UNL     1      31.415 -23.424 -15.348  0.00  0.00    +0.030 C 
ATOM     12  C   UNL     1      30.164 -23.059 -15.842  0.00  0.00    +0.003 C 
ATOM     13  C   UNL     1      31.515 -24.221 -14.212  0.00  0.00    +0.003 C 
ATOM     14  C   UNL     1      29.008 -23.494 -15.195  0.00  0.00    +0.000 C 
ATOM     15  C   UNL     1      30.359 -24.657 -13.564  0.00  0.00    +0.000 C 
ATOM     16  C   UNL     1      29.106 -24.294 -14.056  0.00  0.00    +0.000 C 
ENDBRANCH   7  11
BRANCH   5  17
ATOM     17  N   UNL     1      36.326 -23.103 -15.537  0.00  0.00    -0.316 N 
ATOM     18  H   UNL     1      36.925 -23.673 -16.071  0.00  0.00    +0.148 HD
BRANCH  17  19
ATOM     19  C   UNL     1      36.828 -22.550 -14.306  0.00  0.00    +0.115 C 
BRANCH  19  21
ATOM     20  N   UNL     1      36.259 -25.222 -11.003  0.00  0.00    -0.242 NA
ATOM     21  C   UNL     1      36.629 -23.486 -13.148  0.00  0.00    +0.000 C 
ATOM     22  C   UNL     1      35.878 -23.081 -12.057  0.00  0.00    +0.018 C 
ATOM     23  C   UNL     1      37.196 -24.749 -13.181  0.00  0.00    +0.018 C 
ATOM     24  C   UNL     1      35.723 -23.980 -11.016  0.00  0.00    +0.099 C 
ATOM     25  C   UNL     1      36.982 -25.575 -12.089  0.00  0.00    +0.099 C 
ENDBRANCH  19  21
ENDBRANCH  17  19
ENDBRANCH   5  17
TORSDOF 4
ENDMDL
