MODEL 1
REMARK VINA RESULT:     -12.0      0.000      0.000
REMARK  Name = 23725625
REMARK  4 active torsions:
REMARK  status: ('A' for Active; 'I' for Inactive)
REMARK    1  A    between atoms: C_2  and  C_17
REMARK    2  A    between atoms: C_4  and  C_21
REMARK    3  A    between atoms: C_12  and  C_18
REMARK    4  A    between atoms: C_21  and  C_25
REMARK                            x       y       z     vdW  Elec       q    Type
REMARK                         _______ _______ _______ _____ _____    ______ ____
ROOT
ATOM      1  F   UNL     1      30.563 -11.608 -21.082  0.00  0.00    -0.204 F 
ATOM      2  C   UNL     1      31.845  -9.759 -21.844  0.00  0.00    +0.081 C 
ATOM      3  C   UNL     1      32.360  -8.485 -21.621  0.00  0.00    +0.003 C 
ATOM      4  C   UNL     1      32.093  -7.829 -20.420  0.00  0.00    -0.016 C 
ATOM      5  C   UNL     1      31.064 -10.382 -20.874  0.00  0.00    +0.144 C 
ATOM      6  C   UNL     1      31.310  -8.449 -19.445  0.00  0.00    -0.002 C 
ATOM      7  C   UNL     1      30.797  -9.726 -19.672  0.00  0.00    +0.029 C 
ENDROOT
BRANCH   2  17
ATOM      8  O   UNL     1      34.297 -16.237 -24.076  0.00  0.00    -0.275 OA
ATOM      9  O   UNL     1      31.640  -9.947 -24.122  0.00  0.00    -0.270 OA
ATOM     10  N   UNL     1      33.450 -14.378 -22.960  0.00  0.00    -0.276 N 
ATOM     11  N   UNL     1      32.908 -11.605 -23.069  0.00  0.00    -0.273 N 
ATOM     12  C   UNL     1      34.145 -15.587 -23.045  0.00  0.00    +0.225 C 
ATOM     13  C   UNL     1      33.186 -13.642 -21.716  0.00  0.00    +0.115 C 
ATOM     14  C   UNL     1      32.840 -13.802 -24.162  0.00  0.00    +0.115 C 
ATOM     15  C   UNL     1      33.550 -12.167 -21.873  0.00  0.00    +0.115 C 
ATOM     16  C   UNL     1      33.202 -12.327 -24.307  0.00  0.00    +0.115 C 
ATOM     17  C   UNL     1      32.128 -10.447 -23.109  0.00  0.00    +0.251 C 
BRANCH  12  18
ATOM     18  C   UNL     1      34.747 -16.122 -21.785  0.00  0.00    +0.077 C 
ATOM     19  C   UNL     1      35.621 -17.325 -21.872  0.00  0.00    +0.010 C 
ATOM     20  C   UNL     1      34.253 -17.426 -21.264  0.00  0.00    +0.010 C 
ENDBRANCH  12  18
ENDBRANCH   2  17
BRANCH   4  21
ATOM     21  C   UNL     1      32.640  -6.463 -20.178  0.00  0.00    +0.074 C 
BRANCH  21  25
ATOM     22  O   UNL     1      29.831  -2.640 -22.959  0.00  0.00    -0.266 OA
ATOM     23  N   UNL     1      30.832  -4.925 -20.435  0.00  0.00    -0.174 NA
ATOM     24  N   UNL     1      30.148  -3.985 -21.128  0.00  0.00    -0.242 N 
ATOM     25  C   UNL     1      31.903  -5.426 -20.963  0.00  0.00    +0.083 A 
ATOM     26  C   UNL     1      32.420  -5.025 -22.287  0.00  0.00    +0.020 A 
ATOM     27  C   UNL     1      31.702  -4.056 -22.982  0.00  0.00    +0.059 A 
ATOM     28  C   UNL     1      33.578  -5.571 -22.849  0.00  0.00    +0.001 C 
ATOM     29  C   UNL     1      30.486  -3.496 -22.371  0.00  0.00    +0.273 A 
ATOM     30  C   UNL     1      32.130  -3.625 -24.242  0.00  0.00    +0.005 C 
ATOM     31  C   UNL     1      34.007  -5.141 -24.107  0.00  0.00    +0.000 C 
ATOM     32  C   UNL     1      33.285  -4.171 -24.800  0.00  0.00    +0.000 C 
ATOM     33  H   UNL     1      29.337  -3.619 -20.707  0.00  0.00    +0.192 HD
ENDBRANCH  21  25
ENDBRANCH   4  21
TORSDOF 4
ENDMDL
MODEL 2
REMARK VINA RESULT:     -11.9      5.726     13.498
REMARK  Name = 23725625
REMARK  4 active torsions:
REMARK  status: ('A' for Active; 'I' for Inactive)
REMARK    1  A    between atoms: C_2  and  C_17
REMARK    2  A    between atoms: C_4  and  C_21
REMARK    3  A    between atoms: C_12  and  C_18
REMARK    4  A    between atoms: C_21  and  C_25
REMARK                            x       y       z     vdW  Elec       q    Type
REMARK                         _______ _______ _______ _____ _____    ______ ____
ROOT
ATOM      1  F   UNL     1      36.847 -17.924 -21.632  0.00  0.00    -0.204 F 
ATOM      2  C   UNL     1      34.931 -19.328 -21.636  0.00  0.00    +0.081 C 
ATOM      3  C   UNL     1      34.164 -20.312 -21.017  0.00  0.00    +0.003 C 
ATOM      4  C   UNL     1      34.573 -20.842 -19.793  0.00  0.00    -0.016 C 
ATOM      5  C   UNL     1      36.102 -18.870 -21.041  0.00  0.00    +0.144 C 
ATOM      6  C   UNL     1      35.747 -20.386 -19.193  0.00  0.00    -0.002 C 
ATOM      7  C   UNL     1      36.511 -19.400 -19.816  0.00  0.00    +0.029 C 
ENDROOT
BRANCH   2  17
ATOM      8  O   UNL     1      33.217 -12.842 -24.456  0.00  0.00    -0.275 OA
ATOM      9  O   UNL     1      34.654 -19.495 -23.909  0.00  0.00    -0.270 OA
ATOM     10  N   UNL     1      33.952 -14.669 -23.215  0.00  0.00    -0.276 N 
ATOM     11  N   UNL     1      33.962 -17.484 -22.939  0.00  0.00    -0.273 N 
ATOM     12  C   UNL     1      33.478 -13.364 -23.376  0.00  0.00    +0.225 C 
ATOM     13  C   UNL     1      34.352 -15.270 -21.935  0.00  0.00    +0.115 C 
ATOM     14  C   UNL     1      34.169 -15.516 -24.392  0.00  0.00    +0.115 C 
ATOM     15  C   UNL     1      33.711 -16.645 -21.759  0.00  0.00    +0.115 C 
ATOM     16  C   UNL     1      33.531 -16.889 -24.205  0.00  0.00    +0.115 C 
ATOM     17  C   UNL     1      34.498 -18.773 -22.925  0.00  0.00    +0.251 C 
BRANCH  12  18
ATOM     18  C   UNL     1      33.274 -12.552 -22.137  0.00  0.00    +0.077 C 
ATOM     19  C   UNL     1      32.076 -12.831 -21.297  0.00  0.00    +0.010 C 
ATOM     20  C   UNL     1      32.153 -11.573 -22.111  0.00  0.00    +0.010 C 
ENDBRANCH  12  18
ENDBRANCH   2  17
BRANCH   4  21
ATOM     21  C   UNL     1      33.756 -21.898 -19.128  0.00  0.00    +0.074 C 
BRANCH  21  25
ATOM     22  O   UNL     1      35.455 -22.661 -13.954  0.00  0.00    -0.266 OA
ATOM     23  N   UNL     1      35.444 -22.018 -17.443  0.00  0.00    -0.174 NA
ATOM     24  N   UNL     1      35.852 -22.208 -16.167  0.00  0.00    -0.242 N 
ATOM     25  C   UNL     1      34.180 -22.111 -17.711  0.00  0.00    +0.083 A 
ATOM     26  C   UNL     1      33.155 -22.415 -16.691  0.00  0.00    +0.020 A 
ATOM     27  C   UNL     1      33.596 -22.605 -15.385  0.00  0.00    +0.059 A 
ATOM     28  C   UNL     1      31.793 -22.513 -16.988  0.00  0.00    +0.001 C 
ATOM     29  C   UNL     1      35.036 -22.498 -15.096  0.00  0.00    +0.273 A 
ATOM     30  C   UNL     1      32.684 -22.897 -14.365  0.00  0.00    +0.005 C 
ATOM     31  C   UNL     1      30.881 -22.804 -15.971  0.00  0.00    +0.000 C 
ATOM     32  C   UNL     1      31.326 -22.994 -14.663  0.00  0.00    +0.000 C 
ATOM     33  H   UNL     1      36.817 -22.132 -15.988  0.00  0.00    +0.192 HD
ENDBRANCH  21  25
ENDBRANCH   4  21
TORSDOF 4
ENDMDL
MODEL 3
REMARK VINA RESULT:     -11.7     11.142     14.860
REMARK  Name = 23725625
REMARK  4 active torsions:
REMARK  status: ('A' for Active; 'I' for Inactive)
REMARK    1  A    between atoms: C_2  and  C_17
REMARK    2  A    between atoms: C_4  and  C_21
REMARK    3  A    between atoms: C_12  and  C_18
REMARK    4  A    between atoms: C_21  and  C_25
REMARK                            x       y       z     vdW  Elec       q    Type
REMARK                         _______ _______ _______ _____ _____    ______ ____
ROOT
ATOM      1  F   UNL     1      35.639 -22.419 -12.690  0.00  0.00    -0.204 F 
ATOM      2  C   UNL     1      35.003 -23.050 -14.889  0.00  0.00    +0.081 C 
ATOM      3  C   UNL     1      35.135 -22.893 -16.266  0.00  0.00    +0.003 C 
ATOM      4  C   UNL     1      36.033 -21.955 -16.775  0.00  0.00    -0.016 C 
ATOM      5  C   UNL     1      35.762 -22.275 -14.017  0.00  0.00    +0.144 C 
ATOM      6  C   UNL     1      36.796 -21.176 -15.904  0.00  0.00    -0.002 C 
ATOM      7  C   UNL     1      36.661 -21.336 -14.526  0.00  0.00    +0.029 C 
ENDROOT
BRANCH   2  17
ATOM      8  O   UNL     1      27.840 -24.330 -15.017  0.00  0.00    -0.275 OA
ATOM      9  O   UNL     1      34.542 -25.094 -13.953  0.00  0.00    -0.270 OA
ATOM     10  N   UNL     1      30.042 -23.639 -15.328  0.00  0.00    -0.276 N 
ATOM     11  N   UNL     1      32.698 -23.717 -14.361  0.00  0.00    -0.273 N 
ATOM     12  C   UNL     1      28.654 -23.474 -15.351  0.00  0.00    +0.225 C 
ATOM     13  C   UNL     1      31.018 -22.653 -15.812  0.00  0.00    +0.115 C 
ATOM     14  C   UNL     1      30.616 -24.911 -14.878  0.00  0.00    +0.115 C 
ATOM     15  C   UNL     1      32.120 -22.432 -14.778  0.00  0.00    +0.115 C 
ATOM     16  C   UNL     1      31.721 -24.680 -13.851  0.00  0.00    +0.115 C 
ATOM     17  C   UNL     1      34.057 -24.038 -14.357  0.00  0.00    +0.251 C 
BRANCH  12  18
ATOM     18  C   UNL     1      28.130 -22.154 -15.817  0.00  0.00    +0.077 C 
ATOM     19  C   UNL     1      26.735 -21.778 -15.455  0.00  0.00    +0.010 C 
ATOM     20  C   UNL     1      27.076 -22.144 -16.870  0.00  0.00    +0.010 C 
ENDBRANCH  12  18
ENDBRANCH   2  17
BRANCH   4  21
ATOM     21  C   UNL     1      36.176 -21.782 -18.250  0.00  0.00    +0.074 C 
BRANCH  21  25
ATOM     22  O   UNL     1      31.416 -20.163 -20.476  0.00  0.00    -0.266 OA
ATOM     23  N   UNL     1      33.805 -21.897 -18.508  0.00  0.00    -0.174 NA
ATOM     24  N   UNL     1      32.639 -21.491 -19.062  0.00  0.00    -0.242 N 
ATOM     25  C   UNL     1      34.902 -21.315 -18.876  0.00  0.00    +0.083 A 
ATOM     26  C   UNL     1      34.948 -20.227 -19.875  0.00  0.00    +0.020 A 
ATOM     27  C   UNL     1      33.738 -19.824 -20.431  0.00  0.00    +0.059 A 
ATOM     28  C   UNL     1      36.137 -19.605 -20.266  0.00  0.00    +0.001 C 
ATOM     29  C   UNL     1      32.499 -20.495 -20.003  0.00  0.00    +0.273 A 
ATOM     30  C   UNL     1      33.702 -18.801 -21.383  0.00  0.00    +0.005 C 
ATOM     31  C   UNL     1      36.102 -18.581 -21.217  0.00  0.00    +0.000 C 
ATOM     32  C   UNL     1      34.888 -18.180 -21.772  0.00  0.00    +0.000 C 
ATOM     33  H   UNL     1      31.819 -21.948 -18.766  0.00  0.00    +0.192 HD
ENDBRANCH  21  25
ENDBRANCH   4  21
TORSDOF 4
ENDMDL
MODEL 4
REMARK VINA RESULT:     -11.6     12.477     15.930
REMARK  Name = 23725625
REMARK  4 active torsions:
REMARK  status: ('A' for Active; 'I' for Inactive)
REMARK    1  A    between atoms: C_2  and  C_17
REMARK    2  A    between atoms: C_4  and  C_21
REMARK    3  A    between atoms: C_12  and  C_18
REMARK    4  A    between atoms: C_21  and  C_25
REMARK                            x       y       z     vdW  Elec       q    Type
REMARK                         _______ _______ _______ _____ _____    ______ ____
ROOT
ATOM      1  F   UNL     1      30.476 -24.985 -12.519  0.00  0.00    -0.204 F 
ATOM      2  C   UNL     1      31.652 -23.360 -13.791  0.00  0.00    +0.081 C 
ATOM      3  C   UNL     1      31.821 -22.666 -14.987  0.00  0.00    +0.003 C 
ATOM      4  C   UNL     1      30.977 -22.927 -16.066  0.00  0.00    -0.016 C 
ATOM      5  C   UNL     1      30.644 -24.312 -13.666  0.00  0.00    +0.144 C 
ATOM      6  C   UNL     1      29.966 -23.881 -15.946  0.00  0.00    -0.002 C 
ATOM      7  C   UNL     1      29.800 -24.573 -14.746  0.00  0.00    +0.029 C 
ENDROOT
BRANCH   2  17
ATOM      8  O   UNL     1      38.750 -23.754 -12.235  0.00  0.00    -0.275 OA
ATOM      9  O   UNL     1      32.078 -22.382 -11.758  0.00  0.00    -0.270 OA
ATOM     10  N   UNL     1      36.619 -23.665 -13.169  0.00  0.00    -0.276 N 
ATOM     11  N   UNL     1      33.833 -23.614 -12.688  0.00  0.00    -0.273 N 
ATOM     12  C   UNL     1      37.956 -24.069 -13.117  0.00  0.00    +0.225 C 
ATOM     13  C   UNL     1      35.690 -23.962 -14.267  0.00  0.00    +0.115 C 
ATOM     14  C   UNL     1      36.077 -22.803 -12.114  0.00  0.00    +0.115 C 
ATOM     15  C   UNL     1      34.369 -24.507 -13.725  0.00  0.00    +0.115 C 
ATOM     16  C   UNL     1      34.756 -23.351 -11.584  0.00  0.00    +0.115 C 
ATOM     17  C   UNL     1      32.543 -23.082 -12.657  0.00  0.00    +0.251 C 
BRANCH  12  18
ATOM     18  C   UNL     1      38.448 -24.950 -14.221  0.00  0.00    +0.077 C 
ATOM     19  C   UNL     1      39.686 -25.747 -13.992  0.00  0.00    +0.010 C 
ATOM     20  C   UNL     1      39.706 -24.569 -14.921  0.00  0.00    +0.010 C 
ENDBRANCH  12  18
ENDBRANCH   2  17
BRANCH   4  21
ATOM     21  C   UNL     1      31.157 -22.189 -17.349  0.00  0.00    +0.074 C 
BRANCH  21  25
ATOM     22  O   UNL     1      36.507 -21.430 -18.365  0.00  0.00    -0.266 OA
ATOM     23  N   UNL     1      33.475 -22.498 -16.865  0.00  0.00    -0.174 NA
ATOM     24  N   UNL     1      34.789 -22.305 -17.123  0.00  0.00    -0.242 N 
ATOM     25  C   UNL     1      32.601 -21.961 -17.657  0.00  0.00    +0.083 A 
ATOM     26  C   UNL     1      32.966 -21.145 -18.833  0.00  0.00    +0.020 A 
ATOM     27  C   UNL     1      34.323 -20.960 -19.082  0.00  0.00    +0.059 A 
ATOM     28  C   UNL     1      32.017 -20.569 -19.683  0.00  0.00    +0.001 C 
ATOM     29  C   UNL     1      35.304 -21.576 -18.173  0.00  0.00    +0.273 A 
ATOM     30  C   UNL     1      34.745 -20.200 -20.176  0.00  0.00    +0.005 C 
ATOM     31  C   UNL     1      32.438 -19.810 -20.777  0.00  0.00    +0.000 C 
ATOM     32  C   UNL     1      33.798 -19.626 -21.023  0.00  0.00    +0.000 C 
ATOM     33  H   UNL     1      35.433 -22.723 -16.508  0.00  0.00    +0.192 HD
ENDBRANCH  21  25
ENDBRANCH   4  21
TORSDOF 4
ENDMDL
MODEL 5
REMARK VINA RESULT:     -11.3      6.255     10.715
REMARK  Name = 23725625
REMARK  4 active torsions:
REMARK  status: ('A' for Active; 'I' for Inactive)
REMARK    1  A    between atoms: C_2  and  C_17
REMARK    2  A    between atoms: C_4  and  C_21
REMARK    3  A    between atoms: C_12  and  C_18
REMARK    4  A    between atoms: C_21  and  C_25
REMARK                            x       y       z     vdW  Elec       q    Type
REMARK                         _______ _______ _______ _____ _____    ______ ____
ROOT
ATOM      1  F   UNL     1      35.914 -21.500 -20.686  0.00  0.00    -0.204 F 
ATOM      2  C   UNL     1      34.320 -19.785 -20.289  0.00  0.00    +0.081 C 
ATOM      3  C   UNL     1      33.965 -18.440 -20.355  0.00  0.00    +0.003 C 
ATOM      4  C   UNL     1      34.860 -17.511 -20.884  0.00  0.00    -0.016 C 
ATOM      5  C   UNL     1      35.564 -20.207 -20.748  0.00  0.00    +0.144 C 
ATOM      6  C   UNL     1      36.109 -17.930 -21.345  0.00  0.00    -0.002 C 
ATOM      7  C   UNL     1      36.461 -19.278 -21.277  0.00  0.00    +0.029 C 
ENDROOT
BRANCH   2  17
ATOM      8  O   UNL     1      33.846 -24.213 -14.533  0.00  0.00    -0.275 OA
ATOM      9  O   UNL     1      32.227 -20.720 -20.173  0.00  0.00    -0.270 OA
ATOM     10  N   UNL     1      34.333 -22.594 -16.134  0.00  0.00    -0.276 N 
ATOM     11  N   UNL     1      33.837 -21.638 -18.749  0.00  0.00    -0.273 N 
ATOM     12  C   UNL     1      34.648 -23.469 -15.091  0.00  0.00    +0.225 C 
ATOM     13  C   UNL     1      35.266 -21.637 -16.744  0.00  0.00    +0.115 C 
ATOM     14  C   UNL     1      32.957 -22.524 -16.636  0.00  0.00    +0.115 C 
ATOM     15  C   UNL     1      35.222 -21.735 -18.267  0.00  0.00    +0.115 C 
ATOM     16  C   UNL     1      32.924 -22.616 -18.158  0.00  0.00    +0.115 C 
ATOM     17  C   UNL     1      33.375 -20.760 -19.731  0.00  0.00    +0.251 C 
BRANCH  12  18
ATOM     18  C   UNL     1      36.069 -23.496 -14.626  0.00  0.00    +0.077 C 
ATOM     19  C   UNL     1      36.768 -24.810 -14.564  0.00  0.00    +0.010 C 
ATOM     20  C   UNL     1      36.367 -24.107 -13.301  0.00  0.00    +0.010 C 
ENDBRANCH  12  18
ENDBRANCH   2  17
BRANCH   4  21
ATOM     21  C   UNL     1      34.485 -16.069 -20.954  0.00  0.00    +0.074 C 
BRANCH  21  25
ATOM     22  O   UNL     1      33.145 -14.710 -26.111  0.00  0.00    -0.266 OA
ATOM     23  N   UNL     1      34.256 -16.542 -23.283  0.00  0.00    -0.174 NA
ATOM     24  N   UNL     1      33.924 -16.198 -24.549  0.00  0.00    -0.242 N 
ATOM     25  C   UNL     1      34.110 -15.663 -22.343  0.00  0.00    +0.083 A 
ATOM     26  C   UNL     1      33.599 -14.298 -22.580  0.00  0.00    +0.020 A 
ATOM     27  C   UNL     1      33.261 -13.965 -23.889  0.00  0.00    +0.059 A 
ATOM     28  C   UNL     1      33.444 -13.356 -21.559  0.00  0.00    +0.001 C 
ATOM     29  C   UNL     1      33.433 -14.974 -24.947  0.00  0.00    +0.273 A 
ATOM     30  C   UNL     1      32.770 -12.691 -24.191  0.00  0.00    +0.005 C 
ATOM     31  C   UNL     1      32.953 -12.083 -21.860  0.00  0.00    +0.000 C 
ATOM     32  C   UNL     1      32.617 -11.753 -23.172  0.00  0.00    +0.000 C 
ATOM     33  H   UNL     1      34.043 -16.883 -25.246  0.00  0.00    +0.192 HD
ENDBRANCH  21  25
ENDBRANCH   4  21
TORSDOF 4
ENDMDL
MODEL 6
REMARK VINA RESULT:     -10.9      2.060      2.967
REMARK  Name = 23725625
REMARK  4 active torsions:
REMARK  status: ('A' for Active; 'I' for Inactive)
REMARK    1  A    between atoms: C_2  and  C_17
REMARK    2  A    between atoms: C_4  and  C_21
REMARK    3  A    between atoms: C_12  and  C_18
REMARK    4  A    between atoms: C_21  and  C_25
REMARK                            x       y       z     vdW  Elec       q    Type
REMARK                         _______ _______ _______ _____ _____    ______ ____
ROOT
ATOM      1  F   UNL     1      31.163 -13.196 -22.320  0.00  0.00    -0.204 F 
ATOM      2  C   UNL     1      32.604 -11.859 -23.652  0.00  0.00    +0.081 C 
ATOM      3  C   UNL     1      33.225 -10.635 -23.888  0.00  0.00    +0.003 C 
ATOM      4  C   UNL     1      33.007  -9.567 -23.019  0.00  0.00    -0.016 C 
ATOM      5  C   UNL     1      31.766 -12.022 -22.553  0.00  0.00    +0.144 C 
ATOM      6  C   UNL     1      32.167  -9.725 -21.916  0.00  0.00    -0.002 C 
ATOM      7  C   UNL     1      31.547 -10.953 -21.682  0.00  0.00    +0.029 C 
ENDROOT
BRANCH   2  17
ATOM      8  O   UNL     1      34.839 -18.776 -23.317  0.00  0.00    -0.275 OA
ATOM      9  O   UNL     1      32.332 -12.884 -25.687  0.00  0.00    -0.270 OA
ATOM     10  N   UNL     1      34.067 -16.607 -22.970  0.00  0.00    -0.276 N 
ATOM     11  N   UNL     1      33.588 -14.063 -24.108  0.00  0.00    -0.273 N 
ATOM     12  C   UNL     1      34.730 -17.782 -22.605  0.00  0.00    +0.225 C 
ATOM     13  C   UNL     1      33.855 -15.449 -22.091  0.00  0.00    +0.115 C 
ATOM     14  C   UNL     1      33.438 -16.506 -24.291  0.00  0.00    +0.115 C 
ATOM     15  C   UNL     1      34.249 -14.154 -22.799  0.00  0.00    +0.115 C 
ATOM     16  C   UNL     1      33.831 -15.208 -24.987  0.00  0.00    +0.115 C 
ATOM     17  C   UNL     1      32.836 -12.981 -24.569  0.00  0.00    +0.251 C 
BRANCH  12  18
ATOM     18  C   UNL     1      35.354 -17.822 -21.246  0.00  0.00    +0.077 C 
ATOM     19  C   UNL     1      36.733 -18.368 -21.116  0.00  0.00    +0.010 C 
ATOM     20  C   UNL     1      35.559 -19.148 -20.602  0.00  0.00    +0.010 C 
ENDBRANCH  12  18
ENDBRANCH   2  17
BRANCH   4  21
ATOM     21  C   UNL     1      33.668  -8.253 -23.269  0.00  0.00    +0.074 C 
BRANCH  21  25
ATOM     22  O   UNL     1      29.988  -4.225 -23.950  0.00  0.00    -0.266 OA
ATOM     23  N   UNL     1      32.230  -6.895 -24.607  0.00  0.00    -0.174 NA
ATOM     24  N   UNL     1      31.324  -5.902 -24.764  0.00  0.00    -0.242 N 
ATOM     25  C   UNL     1      32.668  -7.152 -23.415  0.00  0.00    +0.083 A 
ATOM     26  C   UNL     1      32.231  -6.413 -22.213  0.00  0.00    +0.020 A 
ATOM     27  C   UNL     1      31.299  -5.396 -22.397  0.00  0.00    +0.059 A 
ATOM     28  C   UNL     1      32.710  -6.697 -20.931  0.00  0.00    +0.001 C 
ATOM     29  C   UNL     1      30.809  -5.116 -23.756  0.00  0.00    +0.273 A 
ATOM     30  C   UNL     1      30.838  -4.653 -21.306  0.00  0.00    +0.005 C 
ATOM     31  C   UNL     1      32.249  -5.956 -19.840  0.00  0.00    +0.000 C 
ATOM     32  C   UNL     1      31.315  -4.937 -20.027  0.00  0.00    +0.000 C 
ATOM     33  H   UNL     1      31.006  -5.726 -25.678  0.00  0.00    +0.192 HD
ENDBRANCH  21  25
ENDBRANCH   4  21
TORSDOF 4
ENDMDL
MODEL 7
REMARK VINA RESULT:     -10.7      1.482      2.017
REMARK  Name = 23725625
REMARK  4 active torsions:
REMARK  status: ('A' for Active; 'I' for Inactive)
REMARK    1  A    between atoms: C_2  and  C_17
REMARK    2  A    between atoms: C_4  and  C_21
REMARK    3  A    between atoms: C_12  and  C_18
REMARK    4  A    between atoms: C_21  and  C_25
REMARK                            x       y       z     vdW  Elec       q    Type
REMARK                         _______ _______ _______ _____ _____    ______ ____
ROOT
ATOM      1  F   UNL     1      30.806 -12.036 -21.048  0.00  0.00    -0.204 F 
ATOM      2  C   UNL     1      31.936 -10.105 -21.842  0.00  0.00    +0.081 C 
ATOM      3  C   UNL     1      32.341  -8.787 -21.645  0.00  0.00    +0.003 C 
ATOM      4  C   UNL     1      32.007  -8.128 -20.462  0.00  0.00    -0.016 C 
ATOM      5  C   UNL     1      31.201 -10.768 -20.865  0.00  0.00    +0.144 C 
ATOM      6  C   UNL     1      31.268  -8.789 -19.480  0.00  0.00    -0.002 C 
ATOM      7  C   UNL     1      30.866 -10.109 -19.681  0.00  0.00    +0.029 C 
ENDROOT
BRANCH   2  17
ATOM      8  O   UNL     1      34.484 -16.597 -23.922  0.00  0.00    -0.275 OA
ATOM      9  O   UNL     1      31.864 -10.294 -24.129  0.00  0.00    -0.270 OA
ATOM     10  N   UNL     1      33.581 -14.732 -22.859  0.00  0.00    -0.276 N 
ATOM     11  N   UNL     1      33.060 -11.956 -23.002  0.00  0.00    -0.273 N 
ATOM     12  C   UNL     1      34.275 -15.945 -22.903  0.00  0.00    +0.225 C 
ATOM     13  C   UNL     1      33.249 -13.994 -21.633  0.00  0.00    +0.115 C 
ATOM     14  C   UNL     1      33.046 -14.154 -24.095  0.00  0.00    +0.115 C 
ATOM     15  C   UNL     1      33.629 -12.520 -21.770  0.00  0.00    +0.115 C 
ATOM     16  C   UNL     1      33.423 -12.681 -24.220  0.00  0.00    +0.115 C 
ATOM     17  C   UNL     1      32.290 -10.795 -23.089  0.00  0.00    +0.251 C 
BRANCH  12  18
ATOM     18  C   UNL     1      34.799 -16.481 -21.609  0.00  0.00    +0.077 C 
ATOM     19  C   UNL     1      35.809 -17.574 -21.654  0.00  0.00    +0.010 C 
ATOM     20  C   UNL     1      34.407 -17.858 -21.204  0.00  0.00    +0.010 C 
ENDBRANCH  12  18
ENDBRANCH   2  17
BRANCH   4  21
ATOM     21  C   UNL     1      32.435  -6.715 -20.248  0.00  0.00    +0.074 C 
BRANCH  21  25
ATOM     22  O   UNL     1      34.011  -4.390 -24.975  0.00  0.00    -0.266 OA
ATOM     23  N   UNL     1      33.897  -6.499 -22.124  0.00  0.00    -0.174 NA
ATOM     24  N   UNL     1      34.276  -5.920 -23.287  0.00  0.00    -0.242 N 
ATOM     25  C   UNL     1      32.832  -6.059 -21.530  0.00  0.00    +0.083 A 
ATOM     26  C   UNL     1      32.008  -4.953 -22.058  0.00  0.00    +0.020 A 
ATOM     27  C   UNL     1      32.415  -4.372 -23.255  0.00  0.00    +0.059 A 
ATOM     28  C   UNL     1      30.861  -4.484 -21.411  0.00  0.00    +0.001 C 
ATOM     29  C   UNL     1      33.627  -4.882 -23.918  0.00  0.00    +0.273 A 
ATOM     30  C   UNL     1      31.685  -3.320 -23.816  0.00  0.00    +0.005 C 
ATOM     31  C   UNL     1      30.130  -3.434 -21.970  0.00  0.00    +0.000 C 
ATOM     32  C   UNL     1      30.541  -2.854 -23.170  0.00  0.00    +0.000 C 
ATOM     33  H   UNL     1      35.088  -6.271 -23.719  0.00  0.00    +0.192 HD
ENDBRANCH  21  25
ENDBRANCH   4  21
TORSDOF 4
ENDMDL
MODEL 8
REMARK VINA RESULT:     -10.6      6.022     13.645
REMARK  Name = 23725625
REMARK  4 active torsions:
REMARK  status: ('A' for Active; 'I' for Inactive)
REMARK    1  A    between atoms: C_2  and  C_17
REMARK    2  A    between atoms: C_4  and  C_21
REMARK    3  A    between atoms: C_12  and  C_18
REMARK    4  A    between atoms: C_21  and  C_25
REMARK                            x       y       z     vdW  Elec       q    Type
REMARK                         _______ _______ _______ _____ _____    ______ ____
ROOT
ATOM      1  F   UNL     1      36.704 -18.209 -20.415  0.00  0.00    -0.204 F 
ATOM      2  C   UNL     1      35.071 -19.851 -20.943  0.00  0.00    +0.081 C 
ATOM      3  C   UNL     1      34.384 -21.012 -20.599  0.00  0.00    +0.003 C 
ATOM      4  C   UNL     1      34.663 -21.651 -19.391  0.00  0.00    -0.016 C 
ATOM      5  C   UNL     1      36.036 -19.325 -20.089  0.00  0.00    +0.144 C 
ATOM      6  C   UNL     1      35.630 -21.127 -18.532  0.00  0.00    -0.002 C 
ATOM      7  C   UNL     1      36.316 -19.964 -18.881  0.00  0.00    +0.029 C 
ENDROOT
BRANCH   2  17
ATOM      8  O   UNL     1      33.482 -13.158 -23.317  0.00  0.00    -0.275 OA
ATOM      9  O   UNL     1      35.070 -19.798 -23.238  0.00  0.00    -0.270 OA
ATOM     10  N   UNL     1      34.128 -15.082 -22.177  0.00  0.00    -0.276 N 
ATOM     11  N   UNL     1      34.201 -17.909 -22.172  0.00  0.00    -0.273 N 
ATOM     12  C   UNL     1      33.632 -13.779 -22.268  0.00  0.00    +0.225 C 
ATOM     13  C   UNL     1      34.395 -15.797 -20.921  0.00  0.00    +0.115 C 
ATOM     14  C   UNL     1      34.511 -15.803 -23.394  0.00  0.00    +0.115 C 
ATOM     15  C   UNL     1      33.784 -17.197 -20.956  0.00  0.00    +0.115 C 
ATOM     16  C   UNL     1      33.902 -17.202 -23.417  0.00  0.00    +0.115 C 
ATOM     17  C   UNL     1      34.775 -19.181 -22.216  0.00  0.00    +0.251 C 
BRANCH  12  18
ATOM     18  C   UNL     1      33.256 -13.098 -20.991  0.00  0.00    +0.077 C 
ATOM     19  C   UNL     1      32.001 -13.518 -20.308  0.00  0.00    +0.010 C 
ATOM     20  C   UNL     1      32.078 -12.187 -20.996  0.00  0.00    +0.010 C 
ENDBRANCH  12  18
ENDBRANCH   2  17
BRANCH   4  21
ATOM     21  C   UNL     1      33.930 -22.896 -19.019  0.00  0.00    +0.074 C 
BRANCH  21  25
ATOM     22  O   UNL     1      30.202 -21.931 -15.094  0.00  0.00    -0.266 OA
ATOM     23  N   UNL     1      31.805 -22.122 -18.254  0.00  0.00    -0.174 NA
ATOM     24  N   UNL     1      30.894 -21.888 -17.281  0.00  0.00    -0.242 N 
ATOM     25  C   UNL     1      32.942 -22.648 -17.925  0.00  0.00    +0.083 A 
ATOM     26  C   UNL     1      33.299 -23.008 -16.538  0.00  0.00    +0.020 A 
ATOM     27  C   UNL     1      32.348 -22.761 -15.553  0.00  0.00    +0.059 A 
ATOM     28  C   UNL     1      34.529 -23.577 -16.193  0.00  0.00    +0.001 C 
ATOM     29  C   UNL     1      31.060 -22.162 -15.940  0.00  0.00    +0.273 A 
ATOM     30  C   UNL     1      32.614 -23.075 -14.217  0.00  0.00    +0.005 C 
ATOM     31  C   UNL     1      34.796 -23.892 -14.858  0.00  0.00    +0.000 C 
ATOM     32  C   UNL     1      33.841 -23.642 -13.874  0.00  0.00    +0.000 C 
ATOM     33  H   UNL     1      30.038 -21.488 -17.554  0.00  0.00    +0.192 HD
ENDBRANCH  21  25
ENDBRANCH   4  21
TORSDOF 4
ENDMDL
MODEL 9
REMARK VINA RESULT:     -10.4      4.791      8.537
REMARK  Name = 23725625
REMARK  4 active torsions:
REMARK  status: ('A' for Active; 'I' for Inactive)
REMARK    1  A    between atoms: C_2  and  C_17
REMARK    2  A    between atoms: C_4  and  C_21
REMARK    3  A    between atoms: C_12  and  C_18
REMARK    4  A    between atoms: C_21  and  C_25
REMARK                            x       y       z     vdW  Elec       q    Type
REMARK                         _______ _______ _______ _____ _____    ______ ____
ROOT
ATOM      1  F   UNL     1      34.206 -19.940 -23.357  0.00  0.00    -0.204 F 
ATOM      2  C   UNL     1      35.002 -17.810 -22.672  0.00  0.00    +0.081 C 
ATOM      3  C   UNL     1      34.972 -16.423 -22.795  0.00  0.00    +0.003 C 
ATOM      4  C   UNL     1      34.115 -15.827 -23.720  0.00  0.00    -0.016 C 
ATOM      5  C   UNL     1      34.181 -18.605 -23.468  0.00  0.00    +0.144 C 
ATOM      6  C   UNL     1      33.291 -16.620 -24.520  0.00  0.00    -0.002 C 
ATOM      7  C   UNL     1      33.324 -18.008 -24.393  0.00  0.00    +0.029 C 
ENDROOT
BRANCH   2  17
ATOM      8  O   UNL     1      34.640 -22.666 -17.264  0.00  0.00    -0.275 OA
ATOM      9  O   UNL     1      37.109 -18.333 -21.929  0.00  0.00    -0.270 OA
ATOM     10  N   UNL     1      34.346 -21.283 -19.114  0.00  0.00    -0.276 N 
ATOM     11  N   UNL     1      35.340 -19.096 -20.606  0.00  0.00    -0.273 N 
ATOM     12  C   UNL     1      33.907 -22.042 -18.026  0.00  0.00    +0.225 C 
ATOM     13  C   UNL     1      33.470 -20.609 -20.082  0.00  0.00    +0.115 C 
ATOM     14  C   UNL     1      35.780 -21.192 -19.407  0.00  0.00    +0.115 C 
ATOM     15  C   UNL     1      33.906 -19.160 -20.289  0.00  0.00    +0.115 C 
ATOM     16  C   UNL     1      36.205 -19.742 -19.619  0.00  0.00    +0.115 C 
ATOM     17  C   UNL     1      35.905 -18.434 -21.698  0.00  0.00    +0.251 C 
BRANCH  12  18
ATOM     18  C   UNL     1      32.433 -22.093 -17.778  0.00  0.00    +0.077 C 
ATOM     19  C   UNL     1      31.952 -22.073 -16.368  0.00  0.00    +0.010 C 
ATOM     20  C   UNL     1      31.860 -23.331 -17.181  0.00  0.00    +0.010 C 
ENDBRANCH  12  18
ENDBRANCH   2  17
BRANCH   4  21
ATOM     21  C   UNL     1      34.081 -14.342 -23.857  0.00  0.00    +0.074 C 
BRANCH  21  25
ATOM     22  O   UNL     1      31.530 -12.092 -19.536  0.00  0.00    -0.266 OA
ATOM     23  N   UNL     1      33.264 -14.387 -21.613  0.00  0.00    -0.174 NA
ATOM     24  N   UNL     1      32.634 -13.825 -20.556  0.00  0.00    -0.242 N 
ATOM     25  C   UNL     1      33.382 -13.697 -22.704  0.00  0.00    +0.083 A 
ATOM     26  C   UNL     1      32.863 -12.323 -22.855  0.00  0.00    +0.020 A 
ATOM     27  C   UNL     1      32.220 -11.763 -21.754  0.00  0.00    +0.059 A 
ATOM     28  C   UNL     1      32.995 -11.586 -24.034  0.00  0.00    +0.001 C 
ATOM     29  C   UNL     1      32.092 -12.559 -20.522  0.00  0.00    +0.273 A 
ATOM     30  C   UNL     1      31.702 -10.466 -21.822  0.00  0.00    +0.005 C 
ATOM     31  C   UNL     1      32.478 -10.289 -24.103  0.00  0.00    +0.000 C 
ATOM     32  C   UNL     1      31.834  -9.731 -22.999  0.00  0.00    +0.000 C 
ATOM     33  H   UNL     1      32.557 -14.368 -19.739  0.00  0.00    +0.192 HD
ENDBRANCH  21  25
ENDBRANCH   4  21
TORSDOF 4
ENDMDL
