MODEL 1
REMARK VINA RESULT:     -13.3      0.000      0.000
REMARK  Name = 24871491
REMARK  6 active torsions:
REMARK  status: ('A' for Active; 'I' for Inactive)
REMARK    1  A    between atoms: N_1  and  C_11
REMARK    2  A    between atoms: N_2  and  C_18
REMARK    3  A    between atoms: C_6  and  C_31
REMARK    4  A    between atoms: C_19  and  C_24
REMARK    5  A    between atoms: C_24  and  C_26
REMARK    6  A    between atoms: C_26  and  O_27
REMARK                            x       y       z     vdW  Elec       q    Type
REMARK                         _______ _______ _______ _____ _____    ______ ____
ROOT
ATOM      1  N   UNL     1      33.080 -22.999 -14.054  0.00  0.00    -0.287 N 
ATOM      2  N   UNL     1      31.513 -21.641 -18.288  0.00  0.00    -0.247 N 
ATOM      3  N   UNL     1      32.305 -22.312 -16.186  0.00  0.00    -0.322 NA
ATOM      4  N   UNL     1      29.969 -22.498 -16.748  0.00  0.00    -0.169 NA
ATOM      5  C   UNL     1      32.016 -22.828 -14.973  0.00  0.00    +0.202 C 
ATOM      6  C   UNL     1      30.746 -23.198 -14.580  0.00  0.00    +0.118 C 
ATOM      7  C   UNL     1      31.249 -22.176 -17.012  0.00  0.00    +0.150 C 
ATOM      8  C   UNL     1      29.751 -23.007 -15.517  0.00  0.00    +0.120 C 
ATOM      9  H   UNL     1      32.808 -22.920 -13.112  0.00  0.00    +0.155 HD
ATOM     10  H   UNL     1      30.714 -21.561 -18.856  0.00  0.00    +0.165 HD
ENDROOT
BRANCH   1  11
ATOM     11  C   UNL     1      34.449 -23.259 -14.228  0.00  0.00    +0.050 C 
ATOM     12  C   UNL     1      35.211 -22.452 -15.074  0.00  0.00    +0.010 C 
ATOM     13  C   UNL     1      36.571 -22.711 -15.245  0.00  0.00    -0.021 C 
ATOM     14  C   UNL     1      35.048 -24.322 -13.553  0.00  0.00    +0.015 C 
ATOM     15  C   UNL     1      37.170 -23.775 -14.571  0.00  0.00    -0.004 C 
ATOM     16  C   UNL     1      36.408 -24.581 -13.725  0.00  0.00    +0.001 C 
ATOM     17  C   UNL     1      37.385 -21.850 -16.151  0.00  0.00    +0.031 C 
ENDBRANCH   1  11
BRANCH   2  18
ATOM     18  C   UNL     1      32.698 -21.198 -18.912  0.00  0.00    +0.058 C 
ATOM     19  C   UNL     1      35.041 -20.322 -20.144  0.00  0.00    -0.011 C 
ATOM     20  C   UNL     1      33.929 -21.724 -18.522  0.00  0.00    +0.015 C 
ATOM     21  C   UNL     1      32.638 -20.234 -19.918  0.00  0.00    +0.015 C 
ATOM     22  C   UNL     1      35.102 -21.285 -19.138  0.00  0.00    -0.002 C 
ATOM     23  C   UNL     1      33.809 -19.795 -20.534  0.00  0.00    -0.002 C 
BRANCH  19  24
ATOM     24  C   UNL     1      36.295 -19.853 -20.804  0.00  0.00    +0.136 C 
BRANCH  24  26
ATOM     25  O   UNL     1      35.592 -17.544 -20.479  0.00  0.00    -0.250 OA
ATOM     26  C   UNL     1      36.348 -18.351 -21.003  0.00  0.00    +0.318 C 
BRANCH  26  27
ATOM     27  O   UNL     1      37.349 -17.988 -21.848  0.00  0.00    -0.480 OA
ATOM     28  H   UNL     1      38.214 -18.322 -21.720  0.00  0.00    +0.295 HD
ENDBRANCH  26  27
ENDBRANCH  24  26
ENDBRANCH  19  24
ENDBRANCH   2  18
BRANCH   6  31
ATOM     29  O   UNL     1      30.749 -23.162 -12.225  0.00  0.00    -0.270 OA
ATOM     30  N   UNL     1      29.746 -24.962 -13.231  0.00  0.00    -0.325 N 
ATOM     31  C   UNL     1      30.432 -23.753 -13.273  0.00  0.00    +0.248 C 
ATOM     32  H   UNL     1      29.517 -25.368 -12.363  0.00  0.00    +0.145 HD
ATOM     33  H   UNL     1      29.490 -25.412 -14.068  0.00  0.00    +0.145 HD
ENDBRANCH   6  31
TORSDOF 6
ENDMDL
MODEL 2
REMARK VINA RESULT:     -13.1      3.265      6.281
REMARK  Name = 24871491
REMARK  6 active torsions:
REMARK  status: ('A' for Active; 'I' for Inactive)
REMARK    1  A    between atoms: N_1  and  C_11
REMARK    2  A    between atoms: N_2  and  C_18
REMARK    3  A    between atoms: C_6  and  C_31
REMARK    4  A    between atoms: C_19  and  C_24
REMARK    5  A    between atoms: C_24  and  C_26
REMARK    6  A    between atoms: C_26  and  O_27
REMARK                            x       y       z     vdW  Elec       q    Type
REMARK                         _______ _______ _______ _____ _____    ______ ____
ROOT
ATOM      1  N   UNL     1      32.453 -22.901 -16.930  0.00  0.00    -0.287 N 
ATOM      2  N   UNL     1      34.099 -24.213 -12.712  0.00  0.00    -0.247 N 
ATOM      3  N   UNL     1      33.293 -23.561 -14.814  0.00  0.00    -0.322 NA
ATOM      4  N   UNL     1      31.785 -23.954 -12.977  0.00  0.00    -0.169 NA
ATOM      5  C   UNL     1      32.223 -23.261 -15.580  0.00  0.00    +0.202 C 
ATOM      6  C   UNL     1      30.922 -23.285 -15.121  0.00  0.00    +0.118 C 
ATOM      7  C   UNL     1      33.005 -23.894 -13.541  0.00  0.00    +0.150 C 
ATOM      8  C   UNL     1      30.761 -23.643 -13.798  0.00  0.00    +0.120 C 
ATOM      9  H   UNL     1      31.716 -23.140 -17.536  0.00  0.00    +0.155 HD
ATOM     10  H   UNL     1      33.842 -24.449 -11.792  0.00  0.00    +0.165 HD
ENDROOT
BRANCH   1  11
ATOM     11  C   UNL     1      33.530 -22.269 -17.572  0.00  0.00    +0.050 C 
ATOM     12  C   UNL     1      34.717 -22.036 -16.877  0.00  0.00    +0.010 C 
ATOM     13  C   UNL     1      35.787 -21.408 -17.515  0.00  0.00    -0.021 C 
ATOM     14  C   UNL     1      33.414 -21.874 -18.905  0.00  0.00    +0.015 C 
ATOM     15  C   UNL     1      35.670 -21.014 -18.848  0.00  0.00    -0.004 C 
ATOM     16  C   UNL     1      34.483 -21.245 -19.543  0.00  0.00    +0.001 C 
ATOM     17  C   UNL     1      37.056 -21.157 -16.772  0.00  0.00    +0.031 C 
ENDBRANCH   1  11
BRANCH   2  18
ATOM     18  C   UNL     1      35.490 -24.261 -12.941  0.00  0.00    +0.058 C 
ATOM     19  C   UNL     1      38.240 -24.354 -13.393  0.00  0.00    -0.011 C 
ATOM     20  C   UNL     1      36.232 -25.354 -12.497  0.00  0.00    +0.015 C 
ATOM     21  C   UNL     1      36.122 -23.213 -13.611  0.00  0.00    +0.015 C 
ATOM     22  C   UNL     1      37.608 -25.401 -12.723  0.00  0.00    -0.002 C 
ATOM     23  C   UNL     1      37.498 -23.260 -13.837  0.00  0.00    -0.002 C 
BRANCH  19  24
ATOM     24  C   UNL     1      39.711 -24.405 -13.635  0.00  0.00    +0.136 C 
BRANCH  24  26
ATOM     25  O   UNL     1      40.749 -26.594 -13.879  0.00  0.00    -0.250 OA
ATOM     26  C   UNL     1      40.160 -25.646 -14.380  0.00  0.00    +0.318 C 
BRANCH  26  27
ATOM     27  O   UNL     1      39.830 -25.593 -15.698  0.00  0.00    -0.480 OA
ATOM     28  H   UNL     1      40.272 -26.143 -16.313  0.00  0.00    +0.295 HD
ENDBRANCH  26  27
ENDBRANCH  24  26
ENDBRANCH  19  24
ENDBRANCH   2  18
BRANCH   6  31
ATOM     29  O   UNL     1      29.794 -22.024 -16.760  0.00  0.00    -0.270 OA
ATOM     30  N   UNL     1      28.632 -23.754 -15.805  0.00  0.00    -0.325 N 
ATOM     31  C   UNL     1      29.767 -22.963 -15.944  0.00  0.00    +0.248 C 
ATOM     32  H   UNL     1      27.830 -23.566 -16.345  0.00  0.00    +0.145 HD
ATOM     33  H   UNL     1      28.628 -24.502 -15.165  0.00  0.00    +0.145 HD
ENDBRANCH   6  31
TORSDOF 6
ENDMDL
MODEL 3
REMARK VINA RESULT:     -12.8      3.248      6.344
REMARK  Name = 24871491
REMARK  6 active torsions:
REMARK  status: ('A' for Active; 'I' for Inactive)
REMARK    1  A    between atoms: N_1  and  C_11
REMARK    2  A    between atoms: N_2  and  C_18
REMARK    3  A    between atoms: C_6  and  C_31
REMARK    4  A    between atoms: C_19  and  C_24
REMARK    5  A    between atoms: C_24  and  C_26
REMARK    6  A    between atoms: C_26  and  O_27
REMARK                            x       y       z     vdW  Elec       q    Type
REMARK                         _______ _______ _______ _____ _____    ______ ____
ROOT
ATOM      1  N   UNL     1      32.354 -22.829 -17.006  0.00  0.00    -0.287 N 
ATOM      2  N   UNL     1      34.067 -24.190 -12.830  0.00  0.00    -0.247 N 
ATOM      3  N   UNL     1      33.228 -23.513 -14.911  0.00  0.00    -0.322 NA
ATOM      4  N   UNL     1      31.748 -23.956 -13.063  0.00  0.00    -0.169 NA
ATOM      5  C   UNL     1      32.145 -23.214 -15.659  0.00  0.00    +0.202 C 
ATOM      6  C   UNL     1      30.850 -23.262 -15.185  0.00  0.00    +0.118 C 
ATOM      7  C   UNL     1      32.960 -23.871 -13.641  0.00  0.00    +0.150 C 
ATOM      8  C   UNL     1      30.709 -23.644 -13.867  0.00  0.00    +0.120 C 
ATOM      9  H   UNL     1      31.613 -23.067 -17.607  0.00  0.00    +0.155 HD
ATOM     10  H   UNL     1      33.824 -24.444 -11.911  0.00  0.00    +0.165 HD
ENDROOT
BRANCH   1  11
ATOM     11  C   UNL     1      33.416 -22.173 -17.650  0.00  0.00    +0.050 C 
ATOM     12  C   UNL     1      33.179 -21.442 -18.815  0.00  0.00    +0.010 C 
ATOM     13  C   UNL     1      34.234 -20.790 -19.454  0.00  0.00    -0.021 C 
ATOM     14  C   UNL     1      34.705 -22.250 -17.125  0.00  0.00    +0.015 C 
ATOM     15  C   UNL     1      35.524 -20.867 -18.929  0.00  0.00    -0.004 C 
ATOM     16  C   UNL     1      35.760 -21.599 -17.765  0.00  0.00    +0.001 C 
ATOM     17  C   UNL     1      33.982 -20.010 -20.700  0.00  0.00    +0.031 C 
ENDBRANCH   1  11
BRANCH   2  18
ATOM     18  C   UNL     1      35.456 -24.216 -13.076  0.00  0.00    +0.058 C 
ATOM     19  C   UNL     1      38.201 -24.269 -13.564  0.00  0.00    -0.011 C 
ATOM     20  C   UNL     1      35.938 -24.693 -14.294  0.00  0.00    +0.015 C 
ATOM     21  C   UNL     1      36.345 -23.765 -12.101  0.00  0.00    +0.015 C 
ATOM     22  C   UNL     1      37.312 -24.720 -14.538  0.00  0.00    -0.002 C 
ATOM     23  C   UNL     1      37.718 -23.792 -12.345  0.00  0.00    -0.002 C 
BRANCH  19  24
ATOM     24  C   UNL     1      39.670 -24.297 -13.824  0.00  0.00    +0.136 C 
BRANCH  24  26
ATOM     25  O   UNL     1      40.603 -26.544 -13.736  0.00  0.00    -0.250 OA
ATOM     26  C   UNL     1      40.158 -25.614 -14.394  0.00  0.00    +0.318 C 
BRANCH  26  27
ATOM     27  O   UNL     1      40.046 -25.652 -15.749  0.00  0.00    -0.480 OA
ATOM     28  H   UNL     1      40.672 -25.204 -16.283  0.00  0.00    +0.295 HD
ENDBRANCH  26  27
ENDBRANCH  24  26
ENDBRANCH  19  24
ENDBRANCH   2  18
BRANCH   6  31
ATOM     29  O   UNL     1      29.688 -21.991 -16.793  0.00  0.00    -0.270 OA
ATOM     30  N   UNL     1      28.556 -23.745 -15.846  0.00  0.00    -0.325 N 
ATOM     31  C   UNL     1      29.681 -22.941 -15.989  0.00  0.00    +0.248 C 
ATOM     32  H   UNL     1      27.746 -23.558 -16.373  0.00  0.00    +0.145 HD
ATOM     33  H   UNL     1      28.568 -24.502 -15.216  0.00  0.00    +0.145 HD
ENDBRANCH   6  31
TORSDOF 6
ENDMDL
MODEL 4
REMARK VINA RESULT:     -12.1      2.888      7.135
REMARK  Name = 24871491
REMARK  6 active torsions:
REMARK  status: ('A' for Active; 'I' for Inactive)
REMARK    1  A    between atoms: N_1  and  C_11
REMARK    2  A    between atoms: N_2  and  C_18
REMARK    3  A    between atoms: C_6  and  C_31
REMARK    4  A    between atoms: C_19  and  C_24
REMARK    5  A    between atoms: C_24  and  C_26
REMARK    6  A    between atoms: C_26  and  O_27
REMARK                            x       y       z     vdW  Elec       q    Type
REMARK                         _______ _______ _______ _____ _____    ______ ____
ROOT
ATOM      1  N   UNL     1      35.682 -22.141 -16.466  0.00  0.00    -0.287 N 
ATOM      2  N   UNL     1      32.809 -24.427 -13.510  0.00  0.00    -0.247 N 
ATOM      3  N   UNL     1      34.227 -23.284 -14.984  0.00  0.00    -0.322 NA
ATOM      4  N   UNL     1      35.114 -24.811 -13.346  0.00  0.00    -0.169 NA
ATOM      5  C   UNL     1      35.490 -23.053 -15.400  0.00  0.00    +0.202 C 
ATOM      6  C   UNL     1      36.601 -23.656 -14.845  0.00  0.00    +0.118 C 
ATOM      7  C   UNL     1      34.114 -24.161 -13.969  0.00  0.00    +0.150 C 
ATOM      8  C   UNL     1      36.351 -24.534 -13.811  0.00  0.00    +0.120 C 
ATOM      9  H   UNL     1      36.542 -21.663 -16.430  0.00  0.00    +0.155 HD
ATOM     10  H   UNL     1      32.775 -25.073 -12.768  0.00  0.00    +0.165 HD
ENDROOT
BRANCH   1  11
ATOM     11  C   UNL     1      34.883 -21.785 -17.564  0.00  0.00    +0.050 C 
ATOM     12  C   UNL     1      35.419 -21.012 -18.595  0.00  0.00    +0.010 C 
ATOM     13  C   UNL     1      34.624 -20.659 -19.686  0.00  0.00    -0.021 C 
ATOM     14  C   UNL     1      33.555 -22.205 -17.626  0.00  0.00    +0.015 C 
ATOM     15  C   UNL     1      33.296 -21.079 -19.748  0.00  0.00    -0.004 C 
ATOM     16  C   UNL     1      32.760 -21.851 -18.717  0.00  0.00    +0.001 C 
ATOM     17  C   UNL     1      35.196 -19.832 -20.788  0.00  0.00    +0.031 C 
ENDBRANCH   1  11
BRANCH   2  18
ATOM     18  C   UNL     1      31.542 -23.950 -13.903  0.00  0.00    +0.058 C 
ATOM     19  C   UNL     1      29.035 -23.004 -14.681  0.00  0.00    -0.011 C 
ATOM     20  C   UNL     1      31.370 -22.601 -14.212  0.00  0.00    +0.015 C 
ATOM     21  C   UNL     1      30.460 -24.827 -13.982  0.00  0.00    +0.015 C 
ATOM     22  C   UNL     1      30.117 -22.128 -14.601  0.00  0.00    -0.002 C 
ATOM     23  C   UNL     1      29.207 -24.354 -14.371  0.00  0.00    -0.002 C 
BRANCH  19  24
ATOM     24  C   UNL     1      27.695 -22.499 -15.097  0.00  0.00    +0.136 C 
BRANCH  24  26
ATOM     25  O   UNL     1      27.907 -23.208 -17.417  0.00  0.00    -0.250 OA
ATOM     26  C   UNL     1      27.535 -22.377 -16.599  0.00  0.00    +0.318 C 
BRANCH  26  27
ATOM     27  O   UNL     1      26.918 -21.217 -16.951  0.00  0.00    -0.480 OA
ATOM     28  H   UNL     1      27.292 -20.671 -17.613  0.00  0.00    +0.295 HD
ENDBRANCH  26  27
ENDBRANCH  24  26
ENDBRANCH  19  24
ENDBRANCH   2  18
BRANCH   6  31
ATOM     29  O   UNL     1      38.309 -22.298 -15.734  0.00  0.00    -0.270 OA
ATOM     30  N   UNL     1      38.878 -24.450 -15.186  0.00  0.00    -0.325 N 
ATOM     31  C   UNL     1      37.963 -23.408 -15.290  0.00  0.00    +0.248 C 
ATOM     32  H   UNL     1      39.809 -24.319 -15.478  0.00  0.00    +0.145 HD
ATOM     33  H   UNL     1      38.595 -25.319 -14.821  0.00  0.00    +0.145 HD
ENDBRANCH   6  31
TORSDOF 6
ENDMDL
MODEL 5
REMARK VINA RESULT:     -11.8      3.626      6.834
REMARK  Name = 24871491
REMARK  6 active torsions:
REMARK  status: ('A' for Active; 'I' for Inactive)
REMARK    1  A    between atoms: N_1  and  C_11
REMARK    2  A    between atoms: N_2  and  C_18
REMARK    3  A    between atoms: C_6  and  C_31
REMARK    4  A    between atoms: C_19  and  C_24
REMARK    5  A    between atoms: C_24  and  C_26
REMARK    6  A    between atoms: C_26  and  O_27
REMARK                            x       y       z     vdW  Elec       q    Type
REMARK                         _______ _______ _______ _____ _____    ______ ____
ROOT
ATOM      1  N   UNL     1      35.754 -22.171 -14.667  0.00  0.00    -0.287 N 
ATOM      2  N   UNL     1      31.933 -24.377 -13.007  0.00  0.00    -0.247 N 
ATOM      3  N   UNL     1      33.825 -23.274 -13.842  0.00  0.00    -0.322 NA
ATOM      4  N   UNL     1      33.951 -24.607 -11.838  0.00  0.00    -0.169 NA
ATOM      5  C   UNL     1      35.139 -23.003 -13.699  0.00  0.00    +0.202 C 
ATOM      6  C   UNL     1      35.915 -23.490 -12.667  0.00  0.00    +0.118 C 
ATOM      7  C   UNL     1      33.303 -24.071 -12.889  0.00  0.00    +0.150 C 
ATOM      8  C   UNL     1      35.261 -24.294 -11.756  0.00  0.00    +0.120 C 
ATOM      9  H   UNL     1      36.505 -21.641 -14.316  0.00  0.00    +0.155 HD
ATOM     10  H   UNL     1      31.596 -24.961 -12.290  0.00  0.00    +0.165 HD
ENDROOT
BRANCH   1  11
ATOM     11  C   UNL     1      35.498 -21.955 -16.031  0.00  0.00    +0.050 C 
ATOM     12  C   UNL     1      34.248 -22.269 -16.565  0.00  0.00    +0.010 C 
ATOM     13  C   UNL     1      33.995 -22.054 -17.920  0.00  0.00    -0.021 C 
ATOM     14  C   UNL     1      36.494 -21.425 -16.852  0.00  0.00    +0.015 C 
ATOM     15  C   UNL     1      34.991 -21.524 -18.740  0.00  0.00    -0.004 C 
ATOM     16  C   UNL     1      36.241 -21.211 -18.207  0.00  0.00    +0.001 C 
ATOM     17  C   UNL     1      32.660 -22.391 -18.491  0.00  0.00    +0.031 C 
ENDBRANCH   1  11
BRANCH   2  18
ATOM     18  C   UNL     1      30.949 -24.010 -13.949  0.00  0.00    +0.058 C 
ATOM     19  C   UNL     1      29.004 -23.286 -15.812  0.00  0.00    -0.011 C 
ATOM     20  C   UNL     1      29.909 -24.889 -14.248  0.00  0.00    +0.015 C 
ATOM     21  C   UNL     1      31.018 -22.769 -14.581  0.00  0.00    +0.015 C 
ATOM     22  C   UNL     1      28.936 -24.527 -15.180  0.00  0.00    -0.002 C 
ATOM     23  C   UNL     1      30.045 -22.407 -15.513  0.00  0.00    -0.002 C 
BRANCH  19  24
ATOM     24  C   UNL     1      27.964 -22.899 -16.808  0.00  0.00    +0.136 C 
BRANCH  24  26
ATOM     25  O   UNL     1      26.305 -22.190 -15.173  0.00  0.00    -0.250 OA
ATOM     26  C   UNL     1      26.882 -22.005 -16.236  0.00  0.00    +0.318 C 
BRANCH  26  27
ATOM     27  O   UNL     1      26.612 -20.951 -17.051  0.00  0.00    -0.480 OA
ATOM     28  H   UNL     1      27.269 -20.303 -17.211  0.00  0.00    +0.295 HD
ENDBRANCH  26  27
ENDBRANCH  24  26
ENDBRANCH  19  24
ENDBRANCH   2  18
BRANCH   6  31
ATOM     29  O   UNL     1      37.722 -22.106 -12.059  0.00  0.00    -0.270 OA
ATOM     30  N   UNL     1      38.240 -24.189 -12.867  0.00  0.00    -0.325 N 
ATOM     31  C   UNL     1      37.331 -23.197 -12.511  0.00  0.00    +0.248 C 
ATOM     32  H   UNL     1      39.207 -24.026 -12.775  0.00  0.00    +0.145 HD
ATOM     33  H   UNL     1      37.917 -25.052 -13.211  0.00  0.00    +0.145 HD
ENDBRANCH   6  31
TORSDOF 6
ENDMDL
MODEL 6
REMARK VINA RESULT:     -11.2      2.246      4.718
REMARK  Name = 24871491
REMARK  6 active torsions:
REMARK  status: ('A' for Active; 'I' for Inactive)
REMARK    1  A    between atoms: N_1  and  C_11
REMARK    2  A    between atoms: N_2  and  C_18
REMARK    3  A    between atoms: C_6  and  C_31
REMARK    4  A    between atoms: C_19  and  C_24
REMARK    5  A    between atoms: C_24  and  C_26
REMARK    6  A    between atoms: C_26  and  O_27
REMARK                            x       y       z     vdW  Elec       q    Type
REMARK                         _______ _______ _______ _____ _____    ______ ____
ROOT
ATOM      1  N   UNL     1      33.890 -24.299 -13.915  0.00  0.00    -0.287 N 
ATOM      2  N   UNL     1      36.841 -21.977 -16.765  0.00  0.00    -0.247 N 
ATOM      3  N   UNL     1      35.363 -23.129 -15.356  0.00  0.00    -0.322 NA
ATOM      4  N   UNL     1      37.721 -23.033 -14.867  0.00  0.00    -0.169 NA
ATOM      5  C   UNL     1      35.199 -23.868 -14.239  0.00  0.00    +0.202 C 
ATOM      6  C   UNL     1      36.233 -24.224 -13.397  0.00  0.00    +0.118 C 
ATOM      7  C   UNL     1      36.632 -22.751 -15.606  0.00  0.00    +0.150 C 
ATOM      8  C   UNL     1      37.485 -23.776 -13.765  0.00  0.00    +0.120 C 
ATOM      9  H   UNL     1      33.862 -25.153 -13.427  0.00  0.00    +0.155 HD
ATOM     10  H   UNL     1      37.781 -21.724 -16.906  0.00  0.00    +0.165 HD
ENDROOT
BRANCH   1  11
ATOM     11  C   UNL     1      32.622 -23.744 -14.156  0.00  0.00    +0.050 C 
ATOM     12  C   UNL     1      32.311 -23.239 -15.419  0.00  0.00    +0.010 C 
ATOM     13  C   UNL     1      31.051 -22.689 -15.658  0.00  0.00    -0.021 C 
ATOM     14  C   UNL     1      31.674 -23.699 -13.134  0.00  0.00    +0.015 C 
ATOM     15  C   UNL     1      30.104 -22.644 -14.636  0.00  0.00    -0.004 C 
ATOM     16  C   UNL     1      30.416 -23.148 -13.373  0.00  0.00    +0.001 C 
ATOM     17  C   UNL     1      30.718 -22.147 -17.007  0.00  0.00    +0.031 C 
ENDBRANCH   1  11
BRANCH   2  18
ATOM     18  C   UNL     1      35.968 -21.494 -17.761  0.00  0.00    +0.058 C 
ATOM     19  C   UNL     1      34.242 -20.537 -19.732  0.00  0.00    -0.011 C 
ATOM     20  C   UNL     1      36.449 -20.644 -18.756  0.00  0.00    +0.015 C 
ATOM     21  C   UNL     1      34.623 -21.864 -17.750  0.00  0.00    +0.015 C 
ATOM     22  C   UNL     1      35.586 -20.166 -19.743  0.00  0.00    -0.002 C 
ATOM     23  C   UNL     1      33.760 -21.386 -18.735  0.00  0.00    -0.002 C 
BRANCH  19  24
ATOM     24  C   UNL     1      33.318 -20.025 -20.786  0.00  0.00    +0.136 C 
BRANCH  24  26
ATOM     25  O   UNL     1      34.233 -19.310 -22.926  0.00  0.00    -0.250 OA
ATOM     26  C   UNL     1      33.980 -19.065 -21.755  0.00  0.00    +0.318 C 
BRANCH  26  27
ATOM     27  O   UNL     1      34.270 -17.873 -21.168  0.00  0.00    -0.480 OA
ATOM     28  H   UNL     1      33.620 -17.433 -20.657  0.00  0.00    +0.295 HD
ENDBRANCH  26  27
ENDBRANCH  24  26
ENDBRANCH  19  24
ENDBRANCH   2  18
BRANCH   6  31
ATOM     29  O   UNL     1      35.255 -24.687 -11.305  0.00  0.00    -0.270 OA
ATOM     30  N   UNL     1      36.809 -26.187 -12.074  0.00  0.00    -0.325 N 
ATOM     31  C   UNL     1      36.058 -25.021 -12.193  0.00  0.00    +0.248 C 
ATOM     32  H   UNL     1      36.717 -26.752 -11.273  0.00  0.00    +0.145 HD
ATOM     33  H   UNL     1      37.432 -26.447 -12.791  0.00  0.00    +0.145 HD
ENDBRANCH   6  31
TORSDOF 6
ENDMDL
MODEL 7
REMARK VINA RESULT:     -10.8      2.650      5.217
REMARK  Name = 24871491
REMARK  6 active torsions:
REMARK  status: ('A' for Active; 'I' for Inactive)
REMARK    1  A    between atoms: N_1  and  C_11
REMARK    2  A    between atoms: N_2  and  C_18
REMARK    3  A    between atoms: C_6  and  C_31
REMARK    4  A    between atoms: C_19  and  C_24
REMARK    5  A    between atoms: C_24  and  C_26
REMARK    6  A    between atoms: C_26  and  O_27
REMARK                            x       y       z     vdW  Elec       q    Type
REMARK                         _______ _______ _______ _____ _____    ______ ____
ROOT
ATOM      1  N   UNL     1      33.548 -23.998 -12.613  0.00  0.00    -0.287 N 
ATOM      2  N   UNL     1      36.763 -21.912 -15.358  0.00  0.00    -0.247 N 
ATOM      3  N   UNL     1      35.156 -22.949 -14.003  0.00  0.00    -0.322 NA
ATOM      4  N   UNL     1      37.349 -22.433 -13.150  0.00  0.00    -0.169 NA
ATOM      5  C   UNL     1      34.847 -23.464 -12.794  0.00  0.00    +0.202 C 
ATOM      6  C   UNL     1      35.724 -23.498 -11.729  0.00  0.00    +0.118 C 
ATOM      7  C   UNL     1      36.406 -22.458 -14.109  0.00  0.00    +0.150 C 
ATOM      8  C   UNL     1      36.974 -22.964 -11.967  0.00  0.00    +0.120 C 
ATOM      9  H   UNL     1      33.508 -24.732 -11.958  0.00  0.00    +0.155 HD
ATOM     10  H   UNL     1      37.683 -21.565 -15.388  0.00  0.00    +0.165 HD
ENDROOT
BRANCH   1  11
ATOM     11  C   UNL     1      32.305 -23.683 -13.186  0.00  0.00    +0.050 C 
ATOM     12  C   UNL     1      31.345 -24.681 -13.361  0.00  0.00    +0.010 C 
ATOM     13  C   UNL     1      30.111 -24.367 -13.930  0.00  0.00    -0.021 C 
ATOM     14  C   UNL     1      32.029 -22.374 -13.579  0.00  0.00    +0.015 C 
ATOM     15  C   UNL     1      29.835 -23.058 -14.323  0.00  0.00    -0.004 C 
ATOM     16  C   UNL     1      30.795 -22.061 -14.149  0.00  0.00    +0.001 C 
ATOM     17  C   UNL     1      29.085 -25.433 -14.120  0.00  0.00    +0.031 C 
ENDBRANCH   1  11
BRANCH   2  18
ATOM     18  C   UNL     1      36.061 -21.764 -16.572  0.00  0.00    +0.058 C 
ATOM     19  C   UNL     1      34.673 -21.472 -18.973  0.00  0.00    -0.011 C 
ATOM     20  C   UNL     1      34.790 -22.318 -16.714  0.00  0.00    +0.015 C 
ATOM     21  C   UNL     1      36.639 -21.063 -17.631  0.00  0.00    +0.015 C 
ATOM     22  C   UNL     1      34.095 -22.172 -17.915  0.00  0.00    -0.002 C 
ATOM     23  C   UNL     1      35.945 -20.917 -18.831  0.00  0.00    -0.002 C 
BRANCH  19  24
ATOM     24  C   UNL     1      33.930 -21.315 -20.257  0.00  0.00    +0.136 C 
BRANCH  24  26
ATOM     25  O   UNL     1      31.847 -20.115 -19.868  0.00  0.00    -0.250 OA
ATOM     26  C   UNL     1      33.001 -20.118 -20.277  0.00  0.00    +0.318 C 
BRANCH  26  27
ATOM     27  O   UNL     1      33.599 -19.021 -20.812  0.00  0.00    -0.480 OA
ATOM     28  H   UNL     1      34.089 -18.441 -20.263  0.00  0.00    +0.295 HD
ENDBRANCH  26  27
ENDBRANCH  24  26
ENDBRANCH  19  24
ENDBRANCH   2  18
BRANCH   6  31
ATOM     29  O   UNL     1      34.630 -25.028 -10.312  0.00  0.00    -0.270 OA
ATOM     30  N   UNL     1      35.977 -23.469  -9.307  0.00  0.00    -0.325 N 
ATOM     31  C   UNL     1      35.394 -24.053 -10.426  0.00  0.00    +0.248 C 
ATOM     32  H   UNL     1      35.777 -23.818  -8.408  0.00  0.00    +0.145 HD
ATOM     33  H   UNL     1      36.591 -22.706  -9.413  0.00  0.00    +0.145 HD
ENDBRANCH   6  31
TORSDOF 6
ENDMDL
MODEL 8
REMARK VINA RESULT:     -10.3      2.619      7.601
REMARK  Name = 24871491
REMARK  6 active torsions:
REMARK  status: ('A' for Active; 'I' for Inactive)
REMARK    1  A    between atoms: N_1  and  C_11
REMARK    2  A    between atoms: N_2  and  C_18
REMARK    3  A    between atoms: C_6  and  C_31
REMARK    4  A    between atoms: C_19  and  C_24
REMARK    5  A    between atoms: C_24  and  C_26
REMARK    6  A    between atoms: C_26  and  O_27
REMARK                            x       y       z     vdW  Elec       q    Type
REMARK                         _______ _______ _______ _____ _____    ______ ____
ROOT
ATOM      1  N   UNL     1      32.328 -21.841 -17.198  0.00  0.00    -0.287 N 
ATOM      2  N   UNL     1      36.910 -22.418 -16.251  0.00  0.00    -0.247 N 
ATOM      3  N   UNL     1      34.629 -22.135 -16.709  0.00  0.00    -0.322 NA
ATOM      4  N   UNL     1      36.299 -21.624 -18.369  0.00  0.00    -0.169 NA
ATOM      5  C   UNL     1      33.684 -21.766 -17.600  0.00  0.00    +0.202 C 
ATOM      6  C   UNL     1      33.966 -21.322 -18.876  0.00  0.00    +0.118 C 
ATOM      7  C   UNL     1      35.897 -22.040 -17.154  0.00  0.00    +0.150 C 
ATOM      8  C   UNL     1      35.304 -21.270 -19.209  0.00  0.00    +0.120 C 
ATOM      9  H   UNL     1      31.748 -21.176 -17.633  0.00  0.00    +0.155 HD
ATOM     10  H   UNL     1      37.819 -22.334 -16.619  0.00  0.00    +0.165 HD
ENDROOT
BRANCH   1  11
ATOM     11  C   UNL     1      31.651 -22.680 -16.298  0.00  0.00    +0.050 C 
ATOM     12  C   UNL     1      30.284 -22.911 -16.454  0.00  0.00    +0.010 C 
ATOM     13  C   UNL     1      29.612 -23.745 -15.560  0.00  0.00    -0.021 C 
ATOM     14  C   UNL     1      32.345 -23.284 -15.250  0.00  0.00    +0.015 C 
ATOM     15  C   UNL     1      30.306 -24.349 -14.511  0.00  0.00    -0.004 C 
ATOM     16  C   UNL     1      31.673 -24.117 -14.355  0.00  0.00    +0.001 C 
ATOM     17  C   UNL     1      28.151 -23.991 -15.724  0.00  0.00    +0.031 C 
ENDBRANCH   1  11
BRANCH   2  18
ATOM     18  C   UNL     1      36.878 -22.894 -14.924  0.00  0.00    +0.058 C 
ATOM     19  C   UNL     1      36.814 -23.835 -12.299  0.00  0.00    -0.011 C 
ATOM     20  C   UNL     1      37.193 -24.225 -14.653  0.00  0.00    +0.015 C 
ATOM     21  C   UNL     1      36.531 -22.033 -13.882  0.00  0.00    +0.015 C 
ATOM     22  C   UNL     1      37.161 -24.696 -13.340  0.00  0.00    -0.002 C 
ATOM     23  C   UNL     1      36.499 -22.504 -12.570  0.00  0.00    -0.002 C 
BRANCH  19  24
ATOM     24  C   UNL     1      36.781 -24.339 -10.895  0.00  0.00    +0.136 C 
BRANCH  24  26
ATOM     25  O   UNL     1      35.125 -24.112  -9.124  0.00  0.00    -0.250 OA
ATOM     26  C   UNL     1      35.390 -24.357 -10.293  0.00  0.00    +0.318 C 
BRANCH  26  27
ATOM     27  O   UNL     1      34.444 -24.685 -11.213  0.00  0.00    -0.480 OA
ATOM     28  H   UNL     1      34.301 -24.132 -11.955  0.00  0.00    +0.295 HD
ENDBRANCH  26  27
ENDBRANCH  24  26
ENDBRANCH  19  24
ENDBRANCH   2  18
BRANCH   6  31
ATOM     29  O   UNL     1      31.879 -21.548 -19.945  0.00  0.00    -0.270 OA
ATOM     30  N   UNL     1      33.204 -19.803 -20.621  0.00  0.00    -0.325 N 
ATOM     31  C   UNL     1      32.949 -20.923 -19.836  0.00  0.00    +0.248 C 
ATOM     32  H   UNL     1      32.540 -19.503 -21.282  0.00  0.00    +0.145 HD
ATOM     33  H   UNL     1      34.050 -19.310 -20.515  0.00  0.00    +0.145 HD
ENDBRANCH   6  31
TORSDOF 6
ENDMDL
