MODEL 1
REMARK VINA RESULT:     -11.4      0.000      0.000
REMARK  Name = 10320144
REMARK  6 active torsions:
REMARK  status: ('A' for Active; 'I' for Inactive)
REMARK    1  A    between atoms: C_1  and  C_2
REMARK    2  A    between atoms: C_1  and  C_19
REMARK    3  A    between atoms: C_1  and  C_22
REMARK    4  A    between atoms: C_5  and  C_11
REMARK    5  A    between atoms: C_22  and  C_30
REMARK    6  A    between atoms: C_22  and  N_31
REMARK                            x       y       z     vdW  Elec       q    Type
REMARK                         _______ _______ _______ _____ _____    ______ ____
ROOT
ATOM      1  C   UNL     1      36.257 -23.221 -14.458  0.00  0.00    +0.088 C 
ENDROOT
BRANCH   1   2
ATOM      2  C   UNL     1      35.864 -22.504 -15.746  0.00  0.00    -0.015 C 
ATOM      3  C   UNL     1      36.789 -21.686 -16.359  0.00  0.00    -0.004 C 
ATOM      4  C   UNL     1      34.598 -22.699 -16.254  0.00  0.00    -0.004 C 
ATOM      5  C   UNL     1      35.153 -21.209 -18.073  0.00  0.00    +0.001 C 
ATOM      6  C   UNL     1      36.428 -21.031 -17.537  0.00  0.00    -0.000 C 
ATOM      7  C   UNL     1      34.238 -22.044 -17.431  0.00  0.00    -0.000 C 
BRANCH   5  11
ATOM      8  N   UNL     1      35.374 -19.179 -21.195  0.00  0.00    -0.170 N 
ATOM      9  N   UNL     1      36.173 -18.454 -22.019  0.00  0.00    -0.150 NA
ATOM     10  N   UNL     1      34.039 -18.497 -22.837  0.00  0.00    -0.206 NA
ATOM     11  C   UNL     1      34.772 -20.516 -19.318  0.00  0.00    +0.017 C 
ATOM     12  C   UNL     1      35.712 -19.837 -20.011  0.00  0.00    +0.091 C 
ATOM     13  C   UNL     1      33.411 -20.535 -19.859  0.00  0.00    +0.004 C 
ATOM     14  C   UNL     1      34.080 -19.189 -21.720  0.00  0.00    +0.157 C 
ATOM     15  C   UNL     1      33.084 -19.903 -21.001  0.00  0.00    +0.036 C 
ATOM     16  C   UNL     1      35.325 -18.074 -22.974  0.00  0.00    +0.219 C 
ENDBRANCH   5  11
ENDBRANCH   1   2
BRANCH   1  19
ATOM     17  O   UNL     1      35.244 -25.227 -15.319  0.00  0.00    -0.275 OA
ATOM     18  N   UNL     1      37.153 -25.545 -14.054  0.00  0.00    -0.276 N 
ATOM     19  C   UNL     1      36.175 -24.749 -14.660  0.00  0.00    +0.228 C 
ATOM     20  C   UNL     1      38.283 -25.065 -13.262  0.00  0.00    +0.115 C 
ATOM     21  C   UNL     1      37.028 -26.997 -14.120  0.00  0.00    +0.115 C 
ENDBRANCH   1  19
BRANCH   1  22
ATOM     22  C   UNL     1      35.362 -22.751 -13.280  0.00  0.00    +0.026 C 
BRANCH  22  30
ATOM     23  F   UNL     1      31.256 -23.737 -15.631  0.00  0.00    -0.235 F 
ATOM     24  O   UNL     1      34.766 -24.782 -12.186  0.00  0.00    -0.277 OA
ATOM     25  N   UNL     1      33.088 -23.652 -13.301  0.00  0.00    -0.278 N 
ATOM     26  C   UNL     1      32.579 -22.546 -14.110  0.00  0.00    +0.128 C 
ATOM     27  C   UNL     1      32.031 -24.604 -12.990  0.00  0.00    +0.096 C 
ATOM     28  C   UNL     1      31.177 -22.982 -14.501  0.00  0.00    +0.182 C 
ATOM     29  C   UNL     1      30.745 -23.875 -13.348  0.00  0.00    +0.059 C 
ATOM     30  C   UNL     1      34.388 -23.825 -12.864  0.00  0.00    +0.206 C 
ENDBRANCH  22  30
BRANCH  22  31
ATOM     31  N   UNL     1      36.138 -22.467 -12.071  0.00  0.00    +0.388 N 
ATOM     32  H   UNL     1      35.909 -23.152 -11.352  0.00  0.00    -0.089 HD
ATOM     33  H   UNL     1      35.910 -21.532 -11.734  0.00  0.00    -0.089 HD
ATOM     34  H   UNL     1      37.133 -22.519 -12.287  0.00  0.00    -0.089 HD
ENDBRANCH  22  31
ENDBRANCH   1  22
TORSDOF 6
ENDMDL
MODEL 2
REMARK VINA RESULT:     -11.1      2.344      4.204
REMARK  Name = 10320144
REMARK  6 active torsions:
REMARK  status: ('A' for Active; 'I' for Inactive)
REMARK    1  A    between atoms: C_1  and  C_2
REMARK    2  A    between atoms: C_1  and  C_19
REMARK    3  A    between atoms: C_1  and  C_22
REMARK    4  A    between atoms: C_5  and  C_11
REMARK    5  A    between atoms: C_22  and  C_30
REMARK    6  A    between atoms: C_22  and  N_31
REMARK                            x       y       z     vdW  Elec       q    Type
REMARK                         _______ _______ _______ _____ _____    ______ ____
ROOT
ATOM      1  C   UNL     1      35.372 -23.822 -14.448  0.00  0.00    +0.088 C 
ENDROOT
BRANCH   1   2
ATOM      2  C   UNL     1      35.156 -22.988 -15.708  0.00  0.00    -0.015 C 
ATOM      3  C   UNL     1      36.217 -22.271 -16.218  0.00  0.00    -0.004 C 
ATOM      4  C   UNL     1      33.908 -22.980 -16.292  0.00  0.00    -0.004 C 
ATOM      5  C   UNL     1      34.766 -21.482 -17.982  0.00  0.00    +0.001 C 
ATOM      6  C   UNL     1      36.019 -21.509 -17.369  0.00  0.00    -0.000 C 
ATOM      7  C   UNL     1      33.710 -22.218 -17.443  0.00  0.00    -0.000 C 
BRANCH   5  11
ATOM      8  N   UNL     1      35.432 -19.273 -20.913  0.00  0.00    -0.170 N 
ATOM      9  N   UNL     1      36.358 -18.566 -21.611  0.00  0.00    -0.150 NA
ATOM     10  N   UNL     1      34.310 -18.366 -22.605  0.00  0.00    -0.206 NA
ATOM     11  C   UNL     1      34.556 -20.675 -19.199  0.00  0.00    +0.017 C 
ATOM     12  C   UNL     1      35.606 -20.036 -19.758  0.00  0.00    +0.091 C 
ATOM     13  C   UNL     1      33.252 -20.538 -19.852  0.00  0.00    +0.004 C 
ATOM     14  C   UNL     1      34.193 -19.133 -21.545  0.00  0.00    +0.157 C 
ATOM     15  C   UNL     1      33.081 -19.804 -20.967  0.00  0.00    +0.036 C 
ATOM     16  C   UNL     1      35.634 -18.050 -22.602  0.00  0.00    +0.219 C 
ENDBRANCH   5  11
ENDBRANCH   1   2
BRANCH   1  19
ATOM     17  O   UNL     1      37.280 -22.505 -13.804  0.00  0.00    -0.275 OA
ATOM     18  N   UNL     1      35.778 -22.969 -12.108  0.00  0.00    -0.276 N 
ATOM     19  C   UNL     1      36.225 -23.032 -13.433  0.00  0.00    +0.228 C 
ATOM     20  C   UNL     1      34.549 -23.561 -11.586  0.00  0.00    +0.115 C 
ATOM     21  C   UNL     1      36.627 -22.340 -11.102  0.00  0.00    +0.115 C 
ENDBRANCH   1  19
BRANCH   1  22
ATOM     22  C   UNL     1      36.025 -25.185 -14.804  0.00  0.00    +0.026 C 
BRANCH  22  30
ATOM     23  F   UNL     1      40.622 -23.776 -14.308  0.00  0.00    -0.235 F 
ATOM     24  O   UNL     1      36.475 -26.082 -12.644  0.00  0.00    -0.277 OA
ATOM     25  N   UNL     1      38.293 -25.583 -13.978  0.00  0.00    -0.278 N 
ATOM     26  C   UNL     1      38.907 -25.090 -15.211  0.00  0.00    +0.128 C 
ATOM     27  C   UNL     1      39.306 -25.997 -13.018  0.00  0.00    +0.096 C 
ATOM     28  C   UNL     1      40.386 -24.990 -14.878  0.00  0.00    +0.182 C 
ATOM     29  C   UNL     1      40.591 -26.070 -13.828  0.00  0.00    +0.059 C 
ATOM     30  C   UNL     1      36.940 -25.662 -13.704  0.00  0.00    +0.206 C 
ENDBRANCH  22  30
BRANCH  22  31
ATOM     31  N   UNL     1      35.036 -26.254 -14.953  0.00  0.00    +0.388 N 
ATOM     32  H   UNL     1      34.302 -26.138 -14.254  0.00  0.00    -0.089 HD
ATOM     33  H   UNL     1      35.490 -27.158 -14.821  0.00  0.00    -0.089 HD
ATOM     34  H   UNL     1      34.628 -26.211 -15.886  0.00  0.00    -0.089 HD
ENDBRANCH  22  31
ENDBRANCH   1  22
TORSDOF 6
ENDMDL
MODEL 3
REMARK VINA RESULT:     -10.7      2.194      3.785
REMARK  Name = 10320144
REMARK  6 active torsions:
REMARK  status: ('A' for Active; 'I' for Inactive)
REMARK    1  A    between atoms: C_1  and  C_2
REMARK    2  A    between atoms: C_1  and  C_19
REMARK    3  A    between atoms: C_1  and  C_22
REMARK    4  A    between atoms: C_5  and  C_11
REMARK    5  A    between atoms: C_22  and  C_30
REMARK    6  A    between atoms: C_22  and  N_31
REMARK                            x       y       z     vdW  Elec       q    Type
REMARK                         _______ _______ _______ _____ _____    ______ ____
ROOT
ATOM      1  C   UNL     1      35.381 -22.527 -16.503  0.00  0.00    +0.088 C 
ENDROOT
BRANCH   1   2
ATOM      2  C   UNL     1      35.166 -21.655 -17.737  0.00  0.00    -0.015 C 
ATOM      3  C   UNL     1      36.223 -20.910 -18.215  0.00  0.00    -0.004 C 
ATOM      4  C   UNL     1      33.923 -21.643 -18.331  0.00  0.00    -0.004 C 
ATOM      5  C   UNL     1      34.778 -20.081 -19.964  0.00  0.00    +0.001 C 
ATOM      6  C   UNL     1      36.026 -20.113 -19.342  0.00  0.00    -0.000 C 
ATOM      7  C   UNL     1      33.726 -20.846 -19.459  0.00  0.00    -0.000 C 
BRANCH   5  11
ATOM      8  N   UNL     1      34.496 -17.079 -22.163  0.00  0.00    -0.170 N 
ATOM      9  N   UNL     1      34.569 -15.726 -22.246  0.00  0.00    -0.150 NA
ATOM     10  N   UNL     1      34.072 -16.609 -24.294  0.00  0.00    -0.206 NA
ATOM     11  C   UNL     1      34.569 -19.237 -21.156  0.00  0.00    +0.017 C 
ATOM     12  C   UNL     1      34.683 -17.896 -21.046  0.00  0.00    +0.091 C 
ATOM     13  C   UNL     1      34.253 -19.785 -22.478  0.00  0.00    +0.004 C 
ATOM     14  C   UNL     1      34.194 -17.590 -23.428  0.00  0.00    +0.157 C 
ATOM     15  C   UNL     1      34.075 -19.000 -23.556  0.00  0.00    +0.036 C 
ATOM     16  C   UNL     1      34.308 -15.506 -23.533  0.00  0.00    +0.219 C 
ENDBRANCH   5  11
ENDBRANCH   1   2
BRANCH   1  19
ATOM     17  O   UNL     1      33.098 -22.035 -15.924  0.00  0.00    -0.275 OA
ATOM     18  N   UNL     1      33.902 -24.062 -15.152  0.00  0.00    -0.276 N 
ATOM     19  C   UNL     1      34.023 -22.853 -15.845  0.00  0.00    +0.228 C 
ATOM     20  C   UNL     1      34.941 -25.080 -15.011  0.00  0.00    +0.115 C 
ATOM     21  C   UNL     1      32.675 -24.336 -14.412  0.00  0.00    +0.115 C 
ENDBRANCH   1  19
BRANCH   1  22
ATOM     22  C   UNL     1      36.347 -21.831 -15.507  0.00  0.00    +0.026 C 
BRANCH  22  30
ATOM     23  F   UNL     1      35.695 -24.862 -11.798  0.00  0.00    -0.235 F 
ATOM     24  O   UNL     1      38.309 -23.161 -15.742  0.00  0.00    -0.277 OA
ATOM     25  N   UNL     1      37.255 -23.191 -13.687  0.00  0.00    -0.278 N 
ATOM     26  C   UNL     1      36.198 -22.787 -12.760  0.00  0.00    +0.128 C 
ATOM     27  C   UNL     1      38.184 -24.114 -13.052  0.00  0.00    +0.096 C 
ATOM     28  C   UNL     1      36.378 -23.707 -11.564  0.00  0.00    +0.182 C 
ATOM     29  C   UNL     1      37.867 -24.013 -11.567  0.00  0.00    +0.059 C 
ATOM     30  C   UNL     1      37.400 -22.785 -15.000  0.00  0.00    +0.206 C 
ENDBRANCH  22  30
BRANCH  22  31
ATOM     31  N   UNL     1      37.101 -20.744 -16.130  0.00  0.00    +0.388 N 
ATOM     32  H   UNL     1      36.543 -19.891 -16.115  0.00  0.00    -0.089 HD
ATOM     33  H   UNL     1      37.318 -20.991 -17.096  0.00  0.00    -0.089 HD
ATOM     34  H   UNL     1      37.968 -20.592 -15.614  0.00  0.00    -0.089 HD
ENDBRANCH  22  31
ENDBRANCH   1  22
TORSDOF 6
ENDMDL
MODEL 4
REMARK VINA RESULT:     -10.5      2.106      3.970
REMARK  Name = 10320144
REMARK  6 active torsions:
REMARK  status: ('A' for Active; 'I' for Inactive)
REMARK    1  A    between atoms: C_1  and  C_2
REMARK    2  A    between atoms: C_1  and  C_19
REMARK    3  A    between atoms: C_1  and  C_22
REMARK    4  A    between atoms: C_5  and  C_11
REMARK    5  A    between atoms: C_22  and  C_30
REMARK    6  A    between atoms: C_22  and  N_31
REMARK                            x       y       z     vdW  Elec       q    Type
REMARK                         _______ _______ _______ _____ _____    ______ ____
ROOT
ATOM      1  C   UNL     1      33.074 -23.379 -15.950  0.00  0.00    +0.088 C 
ENDROOT
BRANCH   1   2
ATOM      2  C   UNL     1      33.425 -22.465 -17.120  0.00  0.00    -0.015 C 
ATOM      3  C   UNL     1      34.749 -22.160 -17.350  0.00  0.00    -0.004 C 
ATOM      4  C   UNL     1      32.406 -21.976 -17.909  0.00  0.00    -0.004 C 
ATOM      5  C   UNL     1      34.059 -20.814 -19.234  0.00  0.00    +0.001 C 
ATOM      6  C   UNL     1      35.070 -21.324 -18.420  0.00  0.00    -0.000 C 
ATOM      7  C   UNL     1      32.726 -21.140 -18.979  0.00  0.00    -0.000 C 
BRANCH   5  11
ATOM      8  N   UNL     1      33.785 -18.888 -22.418  0.00  0.00    -0.170 N 
ATOM      9  N   UNL     1      33.007 -18.565 -23.482  0.00  0.00    -0.150 NA
ATOM     10  N   UNL     1      35.025 -17.505 -23.640  0.00  0.00    -0.206 NA
ATOM     11  C   UNL     1      34.398 -19.930 -20.365  0.00  0.00    +0.017 C 
ATOM     12  C   UNL     1      33.488 -19.726 -21.342  0.00  0.00    +0.091 C 
ATOM     13  C   UNL     1      35.685 -19.240 -20.482  0.00  0.00    +0.004 C 
ATOM     14  C   UNL     1      35.009 -18.225 -22.540  0.00  0.00    +0.157 C 
ATOM     15  C   UNL     1      35.973 -18.430 -21.517  0.00  0.00    +0.036 C 
ATOM     16  C   UNL     1      33.796 -17.744 -24.172  0.00  0.00    +0.219 C 
ENDBRANCH   5  11
ENDBRANCH   1   2
BRANCH   1  19
ATOM     17  O   UNL     1      30.844 -22.559 -16.336  0.00  0.00    -0.275 OA
ATOM     18  N   UNL     1      31.099 -23.899 -14.468  0.00  0.00    -0.276 N 
ATOM     19  C   UNL     1      31.573 -23.249 -15.612  0.00  0.00    +0.228 C 
ATOM     20  C   UNL     1      31.888 -24.730 -13.562  0.00  0.00    +0.115 C 
ATOM     21  C   UNL     1      29.715 -23.689 -14.054  0.00  0.00    +0.115 C 
ENDBRANCH   1  19
BRANCH   1  22
ATOM     22  C   UNL     1      33.966 -23.056 -14.721  0.00  0.00    +0.026 C 
BRANCH  22  30
ATOM     23  F   UNL     1      35.279 -24.646 -10.350  0.00  0.00    -0.235 F 
ATOM     24  O   UNL     1      35.244 -24.960 -15.368  0.00  0.00    -0.277 OA
ATOM     25  N   UNL     1      35.607 -24.116 -13.249  0.00  0.00    -0.278 N 
ATOM     26  C   UNL     1      35.355 -23.168 -12.164  0.00  0.00    +0.128 C 
ATOM     27  C   UNL     1      36.618 -25.092 -12.867  0.00  0.00    +0.096 C 
ATOM     28  C   UNL     1      36.096 -23.754 -10.975  0.00  0.00    +0.182 C 
ATOM     29  C   UNL     1      37.251 -24.513 -11.611  0.00  0.00    +0.059 C 
ATOM     30  C   UNL     1      34.996 -24.133 -14.489  0.00  0.00    +0.206 C 
ENDBRANCH  22  30
BRANCH  22  31
ATOM     31  N   UNL     1      34.746 -21.831 -14.906  0.00  0.00    +0.388 N 
ATOM     32  H   UNL     1      34.776 -21.312 -14.029  0.00  0.00    -0.089 HD
ATOM     33  H   UNL     1      34.309 -21.256 -15.626  0.00  0.00    -0.089 HD
ATOM     34  H   UNL     1      35.695 -22.073 -15.191  0.00  0.00    -0.089 HD
ENDBRANCH  22  31
ENDBRANCH   1  22
TORSDOF 6
ENDMDL
MODEL 5
REMARK VINA RESULT:     -10.2     10.325     15.346
REMARK  Name = 10320144
REMARK  6 active torsions:
REMARK  status: ('A' for Active; 'I' for Inactive)
REMARK    1  A    between atoms: C_1  and  C_2
REMARK    2  A    between atoms: C_1  and  C_19
REMARK    3  A    between atoms: C_1  and  C_22
REMARK    4  A    between atoms: C_5  and  C_11
REMARK    5  A    between atoms: C_22  and  C_30
REMARK    6  A    between atoms: C_22  and  N_31
REMARK                            x       y       z     vdW  Elec       q    Type
REMARK                         _______ _______ _______ _____ _____    ______ ____
ROOT
ATOM      1  C   UNL     1      32.050  -9.306 -23.438  0.00  0.00    +0.088 C 
ENDROOT
BRANCH   1   2
ATOM      2  C   UNL     1      32.515 -10.756 -23.336  0.00  0.00    -0.015 C 
ATOM      3  C   UNL     1      32.767 -11.286 -22.089  0.00  0.00    -0.004 C 
ATOM      4  C   UNL     1      32.667 -11.486 -24.494  0.00  0.00    -0.004 C 
ATOM      5  C   UNL     1      33.355 -13.374 -23.153  0.00  0.00    +0.001 C 
ATOM      6  C   UNL     1      33.192 -12.611 -21.996  0.00  0.00    -0.000 C 
ATOM      7  C   UNL     1      33.092 -12.812 -24.402  0.00  0.00    -0.000 C 
BRANCH   5  11
ATOM      8  N   UNL     1      34.702 -16.563 -21.760  0.00  0.00    -0.170 N 
ATOM      9  N   UNL     1      35.200 -17.200 -20.671  0.00  0.00    -0.150 NA
ATOM     10  N   UNL     1      35.116 -18.636 -22.446  0.00  0.00    -0.206 NA
ATOM     11  C   UNL     1      33.805 -14.775 -23.055  0.00  0.00    +0.017 C 
ATOM     12  C   UNL     1      34.277 -15.238 -21.877  0.00  0.00    +0.091 C 
ATOM     13  C   UNL     1      33.756 -15.711 -24.181  0.00  0.00    +0.004 C 
ATOM     14  C   UNL     1      34.661 -17.464 -22.827  0.00  0.00    +0.157 C 
ATOM     15  C   UNL     1      34.164 -16.989 -24.071  0.00  0.00    +0.036 C 
ATOM     16  C   UNL     1      35.429 -18.426 -21.139  0.00  0.00    +0.219 C 
ENDBRANCH   5  11
ENDBRANCH   1   2
BRANCH   1  19
ATOM     17  O   UNL     1      34.343  -8.658 -23.105  0.00  0.00    -0.275 OA
ATOM     18  N   UNL     1      33.086  -7.221 -24.410  0.00  0.00    -0.276 N 
ATOM     19  C   UNL     1      33.265  -8.376 -23.642  0.00  0.00    +0.228 C 
ATOM     20  C   UNL     1      31.852  -6.815 -25.077  0.00  0.00    +0.115 C 
ATOM     21  C   UNL     1      34.180  -6.260 -24.512  0.00  0.00    +0.115 C 
ENDBRANCH   1  19
BRANCH   1  22
ATOM     22  C   UNL     1      31.231  -8.908 -22.180  0.00  0.00    +0.026 C 
BRANCH  22  30
ATOM     23  F   UNL     1      32.549  -4.263 -21.970  0.00  0.00    -0.235 F 
ATOM     24  O   UNL     1      29.309  -7.914 -23.177  0.00  0.00    -0.277 OA
ATOM     25  N   UNL     1      30.659  -6.547 -21.894  0.00  0.00    -0.278 N 
ATOM     26  C   UNL     1      31.826  -6.291 -21.050  0.00  0.00    +0.128 C 
ATOM     27  C   UNL     1      29.873  -5.336 -22.082  0.00  0.00    +0.096 C 
ATOM     28  C   UNL     1      31.864  -4.779 -20.912  0.00  0.00    +0.182 C 
ATOM     29  C   UNL     1      30.404  -4.371 -21.033  0.00  0.00    +0.059 C 
ATOM     30  C   UNL     1      30.304  -7.753 -22.468  0.00  0.00    +0.206 C 
ENDBRANCH  22  30
BRANCH  22  31
ATOM     31  N   UNL     1      30.351  -9.985 -21.725  0.00  0.00    +0.388 N 
ATOM     32  H   UNL     1      29.746 -10.277 -22.493  0.00  0.00    -0.089 HD
ATOM     33  H   UNL     1      29.778  -9.652 -20.950  0.00  0.00    -0.089 HD
ATOM     34  H   UNL     1      30.915 -10.777 -21.417  0.00  0.00    -0.089 HD
ENDBRANCH  22  31
ENDBRANCH   1  22
TORSDOF 6
ENDMDL
MODEL 6
REMARK VINA RESULT:     -10.0     12.225     17.251
REMARK  Name = 10320144
REMARK  6 active torsions:
REMARK  status: ('A' for Active; 'I' for Inactive)
REMARK    1  A    between atoms: C_1  and  C_2
REMARK    2  A    between atoms: C_1  and  C_19
REMARK    3  A    between atoms: C_1  and  C_22
REMARK    4  A    between atoms: C_5  and  C_11
REMARK    5  A    between atoms: C_22  and  C_30
REMARK    6  A    between atoms: C_22  and  N_31
REMARK                            x       y       z     vdW  Elec       q    Type
REMARK                         _______ _______ _______ _____ _____    ______ ____
ROOT
ATOM      1  C   UNL     1      32.260  -6.607 -23.319  0.00  0.00    +0.088 C 
ENDROOT
BRANCH   1   2
ATOM      2  C   UNL     1      32.536  -8.106 -23.265  0.00  0.00    -0.015 C 
ATOM      3  C   UNL     1      33.791  -8.563 -23.607  0.00  0.00    -0.004 C 
ATOM      4  C   UNL     1      31.522  -8.954 -22.875  0.00  0.00    -0.004 C 
ATOM      5  C   UNL     1      33.034 -10.815 -23.166  0.00  0.00    +0.001 C 
ATOM      6  C   UNL     1      34.043  -9.934 -23.557  0.00  0.00    -0.000 C 
ATOM      7  C   UNL     1      31.773 -10.325 -22.825  0.00  0.00    -0.000 C 
BRANCH   5  11
ATOM      8  N   UNL     1      33.407 -14.378 -24.209  0.00  0.00    -0.170 N 
ATOM      9  N   UNL     1      33.315 -15.276 -25.223  0.00  0.00    -0.150 NA
ATOM     10  N   UNL     1      33.987 -16.325 -23.308  0.00  0.00    -0.206 NA
ATOM     11  C   UNL     1      33.300 -12.265 -23.114  0.00  0.00    +0.017 C 
ATOM     12  C   UNL     1      33.154 -13.005 -24.234  0.00  0.00    +0.091 C 
ATOM     13  C   UNL     1      33.735 -12.954 -21.897  0.00  0.00    +0.004 C 
ATOM     14  C   UNL     1      33.821 -15.046 -23.055  0.00  0.00    +0.157 C 
ATOM     15  C   UNL     1      33.981 -14.277 -21.871  0.00  0.00    +0.036 C 
ATOM     16  C   UNL     1      33.670 -16.413 -24.628  0.00  0.00    +0.219 C 
ENDBRANCH   5  11
ENDBRANCH   1   2
BRANCH   1  19
ATOM     17  O   UNL     1      34.176  -5.403 -24.139  0.00  0.00    -0.275 OA
ATOM     18  N   UNL     1      32.613  -5.989 -25.740  0.00  0.00    -0.276 N 
ATOM     19  C   UNL     1      33.108  -5.955 -24.432  0.00  0.00    +0.228 C 
ATOM     20  C   UNL     1      31.367  -6.617 -26.172  0.00  0.00    +0.115 C 
ATOM     21  C   UNL     1      33.329  -5.270 -26.789  0.00  0.00    +0.115 C 
ENDBRANCH   1  19
BRANCH   1  22
ATOM     22  C   UNL     1      32.532  -5.953 -21.937  0.00  0.00    +0.026 C 
BRANCH  22  30
ATOM     23  F   UNL     1      29.962  -2.689 -24.408  0.00  0.00    -0.235 F 
ATOM     24  O   UNL     1      30.636  -5.786 -20.505  0.00  0.00    -0.277 OA
ATOM     25  N   UNL     1      30.996  -4.049 -21.984  0.00  0.00    -0.278 N 
ATOM     26  C   UNL     1      31.741  -3.382 -23.051  0.00  0.00    +0.128 C 
ATOM     27  C   UNL     1      29.838  -3.264 -21.583  0.00  0.00    +0.096 C 
ATOM     28  C   UNL     1      30.841  -2.233 -23.472  0.00  0.00    +0.182 C 
ATOM     29  C   UNL     1      30.071  -1.896 -22.205  0.00  0.00    +0.059 C 
ATOM     30  C   UNL     1      31.302  -5.265 -21.401  0.00  0.00    +0.206 C 
ENDBRANCH  22  30
BRANCH  22  31
ATOM     31  N   UNL     1      32.881  -6.940 -20.914  0.00  0.00    +0.388 N 
ATOM     32  H   UNL     1      32.031  -7.374 -20.557  0.00  0.00    -0.089 HD
ATOM     33  H   UNL     1      33.373  -6.477 -20.150  0.00  0.00    -0.089 HD
ATOM     34  H   UNL     1      33.482  -7.655 -21.323  0.00  0.00    -0.089 HD
ENDBRANCH  22  31
ENDBRANCH   1  22
TORSDOF 6
ENDMDL
MODEL 7
REMARK VINA RESULT:      -9.7     12.289     17.473
REMARK  Name = 10320144
REMARK  6 active torsions:
REMARK  status: ('A' for Active; 'I' for Inactive)
REMARK    1  A    between atoms: C_1  and  C_2
REMARK    2  A    between atoms: C_1  and  C_19
REMARK    3  A    between atoms: C_1  and  C_22
REMARK    4  A    between atoms: C_5  and  C_11
REMARK    5  A    between atoms: C_22  and  C_30
REMARK    6  A    between atoms: C_22  and  N_31
REMARK                            x       y       z     vdW  Elec       q    Type
REMARK                         _______ _______ _______ _____ _____    ______ ____
ROOT
ATOM      1  C   UNL     1      31.765  -6.720 -23.276  0.00  0.00    +0.088 C 
ENDROOT
BRANCH   1   2
ATOM      2  C   UNL     1      32.129  -8.201 -23.225  0.00  0.00    -0.015 C 
ATOM      3  C   UNL     1      31.229  -9.086 -22.673  0.00  0.00    -0.004 C 
ATOM      4  C   UNL     1      33.346  -8.602 -23.732  0.00  0.00    -0.004 C 
ATOM      5  C   UNL     1      32.788 -10.875 -23.133  0.00  0.00    +0.001 C 
ATOM      6  C   UNL     1      31.563 -10.440 -22.627  0.00  0.00    -0.000 C 
ATOM      7  C   UNL     1      33.680  -9.955 -23.686  0.00  0.00    -0.000 C 
BRANCH   5  11
ATOM      8  N   UNL     1      33.400 -14.401 -24.186  0.00  0.00    -0.170 N 
ATOM      9  N   UNL     1      33.385 -15.296 -25.206  0.00  0.00    -0.150 NA
ATOM     10  N   UNL     1      34.078 -16.316 -23.282  0.00  0.00    -0.206 NA
ATOM     11  C   UNL     1      33.141 -12.306 -23.083  0.00  0.00    +0.017 C 
ATOM     12  C   UNL     1      33.064 -13.046 -24.210  0.00  0.00    +0.091 C 
ATOM     13  C   UNL     1      33.589 -12.976 -21.859  0.00  0.00    +0.004 C 
ATOM     14  C   UNL     1      33.828 -15.051 -23.026  0.00  0.00    +0.157 C 
ATOM     15  C   UNL     1      33.916 -14.281 -21.835  0.00  0.00    +0.036 C 
ATOM     16  C   UNL     1      33.796 -16.414 -24.610  0.00  0.00    +0.219 C 
ENDBRANCH   5  11
ENDBRANCH   1   2
BRANCH   1  19
ATOM     17  O   UNL     1      29.813  -6.014 -22.058  0.00  0.00    -0.275 OA
ATOM     18  N   UNL     1      31.728  -6.285 -20.791  0.00  0.00    -0.276 N 
ATOM     19  C   UNL     1      31.010  -6.318 -21.991  0.00  0.00    +0.228 C 
ATOM     20  C   UNL     1      33.138  -6.628 -20.623  0.00  0.00    +0.115 C 
ATOM     21  C   UNL     1      31.074  -5.786 -19.586  0.00  0.00    +0.115 C 
ENDBRANCH   1  19
BRANCH   1  22
ATOM     22  C   UNL     1      30.932  -6.408 -24.548  0.00  0.00    +0.026 C 
BRANCH  22  30
ATOM     23  F   UNL     1      31.983  -1.786 -23.607  0.00  0.00    -0.235 F 
ATOM     24  O   UNL     1      32.437  -5.979 -26.344  0.00  0.00    -0.277 OA
ATOM     25  N   UNL     1      31.466  -4.149 -25.321  0.00  0.00    -0.278 N 
ATOM     26  C   UNL     1      30.591  -3.524 -24.330  0.00  0.00    +0.128 C 
ATOM     27  C   UNL     1      32.121  -3.146 -26.148  0.00  0.00    +0.096 C 
ATOM     28  C   UNL     1      30.922  -2.044 -24.420  0.00  0.00    +0.182 C 
ATOM     29  C   UNL     1      31.358  -1.861 -25.865  0.00  0.00    +0.059 C 
ATOM     30  C   UNL     1      31.683  -5.504 -25.493  0.00  0.00    +0.206 C 
ENDBRANCH  22  30
BRANCH  22  31
ATOM     31  N   UNL     1      30.646  -7.609 -25.334  0.00  0.00    +0.388 N 
ATOM     32  H   UNL     1      29.679  -7.581 -25.658  0.00  0.00    -0.089 HD
ATOM     33  H   UNL     1      30.786  -8.436 -24.754  0.00  0.00    -0.089 HD
ATOM     34  H   UNL     1      31.272  -7.646 -26.138  0.00  0.00    -0.089 HD
ENDBRANCH  22  31
ENDBRANCH   1  22
TORSDOF 6
ENDMDL
MODEL 8
REMARK VINA RESULT:      -9.7      2.212      3.849
REMARK  Name = 10320144
REMARK  6 active torsions:
REMARK  status: ('A' for Active; 'I' for Inactive)
REMARK    1  A    between atoms: C_1  and  C_2
REMARK    2  A    between atoms: C_1  and  C_19
REMARK    3  A    between atoms: C_1  and  C_22
REMARK    4  A    between atoms: C_5  and  C_11
REMARK    5  A    between atoms: C_22  and  C_30
REMARK    6  A    between atoms: C_22  and  N_31
REMARK                            x       y       z     vdW  Elec       q    Type
REMARK                         _______ _______ _______ _____ _____    ______ ____
ROOT
ATOM      1  C   UNL     1      35.714 -22.734 -15.904  0.00  0.00    +0.088 C 
ENDROOT
BRANCH   1   2
ATOM      2  C   UNL     1      35.553 -21.881 -17.159  0.00  0.00    -0.015 C 
ATOM      3  C   UNL     1      36.521 -20.945 -17.453  0.00  0.00    -0.004 C 
ATOM      4  C   UNL     1      34.446 -22.077 -17.956  0.00  0.00    -0.004 C 
ATOM      5  C   UNL     1      35.263 -20.342 -19.426  0.00  0.00    +0.001 C 
ATOM      6  C   UNL     1      36.374 -20.166 -18.601  0.00  0.00    -0.000 C 
ATOM      7  C   UNL     1      34.299 -21.298 -19.104  0.00  0.00    -0.000 C 
BRANCH   5  11
ATOM      8  N   UNL     1      33.864 -18.936 -22.586  0.00  0.00    -0.170 N 
ATOM      9  N   UNL     1      32.861 -18.984 -23.500  0.00  0.00    -0.150 NA
ATOM     10  N   UNL     1      34.369 -17.368 -24.079  0.00  0.00    -0.206 NA
ATOM     11  C   UNL     1      35.107 -19.518 -20.639  0.00  0.00    +0.017 C 
ATOM     12  C   UNL     1      34.034 -19.710 -21.437  0.00  0.00    +0.091 C 
ATOM     13  C   UNL     1      36.062 -18.475 -21.025  0.00  0.00    +0.004 C 
ATOM     14  C   UNL     1      34.767 -17.940 -22.965  0.00  0.00    +0.157 C 
ATOM     15  C   UNL     1      35.898 -17.727 -22.131  0.00  0.00    +0.036 C 
ATOM     16  C   UNL     1      33.215 -18.033 -24.361  0.00  0.00    +0.219 C 
ENDBRANCH   5  11
ENDBRANCH   1   2
BRANCH   1  19
ATOM     17  O   UNL     1      34.181 -21.442 -14.571  0.00  0.00    -0.275 OA
ATOM     18  N   UNL     1      33.755 -23.714 -14.650  0.00  0.00    -0.276 N 
ATOM     19  C   UNL     1      34.479 -22.567 -14.992  0.00  0.00    +0.228 C 
ATOM     20  C   UNL     1      34.037 -25.075 -15.101  0.00  0.00    +0.115 C 
ATOM     21  C   UNL     1      32.663 -23.604 -13.688  0.00  0.00    +0.115 C 
ENDBRANCH   1  19
BRANCH   1  22
ATOM     22  C   UNL     1      37.026 -22.366 -15.160  0.00  0.00    +0.026 C 
BRANCH  22  30
ATOM     23  F   UNL     1      38.863 -26.663 -13.927  0.00  0.00    -0.235 F 
ATOM     24  O   UNL     1      36.977 -22.143 -12.789  0.00  0.00    -0.277 OA
ATOM     25  N   UNL     1      37.115 -24.284 -13.645  0.00  0.00    -0.278 N 
ATOM     26  C   UNL     1      37.190 -25.244 -14.746  0.00  0.00    +0.128 C 
ATOM     27  C   UNL     1      37.140 -24.962 -12.357  0.00  0.00    +0.096 C 
ATOM     28  C   UNL     1      37.512 -26.565 -14.069  0.00  0.00    +0.182 C 
ATOM     29  C   UNL     1      36.886 -26.424 -12.691  0.00  0.00    +0.059 C 
ATOM     30  C   UNL     1      37.034 -22.909 -13.753  0.00  0.00    +0.206 C 
ENDBRANCH  22  30
BRANCH  22  31
ATOM     31  N   UNL     1      38.207 -22.956 -15.792  0.00  0.00    +0.388 N 
ATOM     32  H   UNL     1      37.914 -23.624 -16.504  0.00  0.00    -0.089 HD
ATOM     33  H   UNL     1      38.765 -23.436 -15.086  0.00  0.00    -0.089 HD
ATOM     34  H   UNL     1      38.764 -22.220 -16.224  0.00  0.00    -0.089 HD
ENDBRANCH  22  31
ENDBRANCH   1  22
TORSDOF 6
ENDMDL
MODEL 9
REMARK VINA RESULT:      -9.5     12.031     17.376
REMARK  Name = 10320144
REMARK  6 active torsions:
REMARK  status: ('A' for Active; 'I' for Inactive)
REMARK    1  A    between atoms: C_1  and  C_2
REMARK    2  A    between atoms: C_1  and  C_19
REMARK    3  A    between atoms: C_1  and  C_22
REMARK    4  A    between atoms: C_5  and  C_11
REMARK    5  A    between atoms: C_22  and  C_30
REMARK    6  A    between atoms: C_22  and  N_31
REMARK                            x       y       z     vdW  Elec       q    Type
REMARK                         _______ _______ _______ _____ _____    ______ ____
ROOT
ATOM      1  C   UNL     1      31.847  -6.402 -23.234  0.00  0.00    +0.088 C 
ENDROOT
BRANCH   1   2
ATOM      2  C   UNL     1      32.177  -7.892 -23.210  0.00  0.00    -0.015 C 
ATOM      3  C   UNL     1      31.227  -8.775 -22.745  0.00  0.00    -0.004 C 
ATOM      4  C   UNL     1      33.415  -8.303 -23.656  0.00  0.00    -0.004 C 
ATOM      5  C   UNL     1      32.775 -10.581 -23.169  0.00  0.00    +0.001 C 
ATOM      6  C   UNL     1      31.530 -10.136 -22.724  0.00  0.00    -0.000 C 
ATOM      7  C   UNL     1      33.717  -9.665 -23.635  0.00  0.00    -0.000 C 
BRANCH   5  11
ATOM      8  N   UNL     1      33.290 -14.104 -24.285  0.00  0.00    -0.170 N 
ATOM      9  N   UNL     1      33.241 -14.982 -25.319  0.00  0.00    -0.150 NA
ATOM     10  N   UNL     1      33.936 -16.048 -23.421  0.00  0.00    -0.206 NA
ATOM     11  C   UNL     1      33.095 -12.021 -23.146  0.00  0.00    +0.017 C 
ATOM     12  C   UNL     1      32.986 -12.742 -24.283  0.00  0.00    +0.091 C 
ATOM     13  C   UNL     1      33.544 -12.721 -21.939  0.00  0.00    +0.004 C 
ATOM     14  C   UNL     1      33.719 -14.782 -23.142  0.00  0.00    +0.157 C 
ATOM     15  C   UNL     1      33.840 -14.034 -21.940  0.00  0.00    +0.036 C 
ATOM     16  C   UNL     1      33.633 -16.118 -24.746  0.00  0.00    +0.219 C 
ENDBRANCH   5  11
ENDBRANCH   1   2
BRANCH   1  19
ATOM     17  O   UNL     1      30.023  -5.638 -21.861  0.00  0.00    -0.275 OA
ATOM     18  N   UNL     1      32.024  -5.981 -20.752  0.00  0.00    -0.276 N 
ATOM     19  C   UNL     1      31.211  -5.983 -21.891  0.00  0.00    +0.228 C 
ATOM     20  C   UNL     1      33.430  -6.371 -20.698  0.00  0.00    +0.115 C 
ATOM     21  C   UNL     1      31.485  -5.467 -19.497  0.00  0.00    +0.115 C 
ENDBRANCH   1  19
BRANCH   1  22
ATOM     22  C   UNL     1      30.919  -6.069 -24.433  0.00  0.00    +0.026 C 
BRANCH  22  30
ATOM     23  F   UNL     1      35.273  -4.186 -25.358  0.00  0.00    -0.235 F 
ATOM     24  O   UNL     1      31.385  -7.163 -26.497  0.00  0.00    -0.277 OA
ATOM     25  N   UNL     1      32.586  -5.247 -26.024  0.00  0.00    -0.278 N 
ATOM     26  C   UNL     1      32.940  -4.109 -25.177  0.00  0.00    +0.128 C 
ATOM     27  C   UNL     1      33.373  -5.254 -27.249  0.00  0.00    +0.096 C 
ATOM     28  C   UNL     1      34.180  -3.527 -25.833  0.00  0.00    +0.182 C 
ATOM     29  C   UNL     1      34.004  -3.872 -27.304  0.00  0.00    +0.059 C 
ATOM     30  C   UNL     1      31.642  -6.220 -25.748  0.00  0.00    +0.206 C 
ENDBRANCH  22  30
BRANCH  22  31
ATOM     31  N   UNL     1      29.782  -6.986 -24.528  0.00  0.00    +0.388 N 
ATOM     32  H   UNL     1      30.096  -7.879 -24.908  0.00  0.00    -0.089 HD
ATOM     33  H   UNL     1      29.074  -6.586 -25.144  0.00  0.00    -0.089 HD
ATOM     34  H   UNL     1      29.385  -7.131 -23.601  0.00  0.00    -0.089 HD
ENDBRANCH  22  31
ENDBRANCH   1  22
TORSDOF 6
ENDMDL
