MODEL 1
REMARK VINA RESULT:     -11.8      0.000      0.000
REMARK  Name = 6857690
REMARK  2 active torsions:
REMARK  status: ('A' for Active; 'I' for Inactive)
REMARK    1  A    between atoms: C_4  and  C_18
REMARK    2  A    between atoms: C_21  and  O_24
REMARK                            x       y       z     vdW  Elec       q    Type
REMARK                         _______ _______ _______ _____ _____    ______ ____
ROOT
ATOM      1  O   UNL     1      36.819 -24.653 -15.304  0.00  0.00    -0.252 OA
ATOM      2  N   UNL     1      35.274 -23.083 -14.636  0.00  0.00    -0.259 N 
ATOM      3  N   UNL     1      36.173 -24.680 -13.093  0.00  0.00    -0.261 N 
ATOM      4  C   UNL     1      34.352 -22.628 -16.873  0.00  0.00    +0.064 C 
ATOM      5  C   UNL     1      35.444 -22.284 -15.845  0.00  0.00    +0.104 C 
ATOM      6  C   UNL     1      32.965 -22.622 -16.235  0.00  0.00    -0.019 C 
ATOM      7  C   UNL     1      32.825 -22.727 -14.834  0.00  0.00    -0.010 C 
ATOM      8  C   UNL     1      34.022 -22.827 -13.914  0.00  0.00    +0.121 C 
ATOM      9  C   UNL     1      31.543 -22.728 -14.263  0.00  0.00    -0.028 C 
ATOM     10  C   UNL     1      31.805 -22.599 -17.030  0.00  0.00    -0.005 C 
ATOM     11  C   UNL     1      30.405 -22.669 -15.065  0.00  0.00    -0.026 C 
ATOM     12  C   UNL     1      36.129 -24.168 -14.398  0.00  0.00    +0.308 C 
ATOM     13  C   UNL     1      30.537 -22.613 -16.449  0.00  0.00    -0.005 C 
ATOM     14  C   UNL     1      31.376 -22.800 -12.774  0.00  0.00    +0.030 C 
ATOM     15  C   UNL     1      29.036 -22.664 -14.471  0.00  0.00    +0.031 C 
ATOM     16  C   UNL     1      35.944 -23.889 -11.887  0.00  0.00    +0.117 C 
ATOM     17  C   UNL     1      36.727 -26.010 -12.873  0.00  0.00    +0.117 C 
ENDROOT
BRANCH   4  18
ATOM     18  C   UNL     1      34.502 -21.720 -18.086  0.00  0.00    -0.014 C 
ATOM     19  C   UNL     1      33.377 -21.349 -18.814  0.00  0.00    +0.033 C 
ATOM     20  C   UNL     1      35.765 -21.268 -18.456  0.00  0.00    -0.004 C 
ATOM     21  C   UNL     1      33.514 -20.517 -19.924  0.00  0.00    +0.133 C 
ATOM     22  C   UNL     1      35.902 -20.434 -19.566  0.00  0.00    +0.003 C 
ATOM     23  C   UNL     1      34.777 -20.059 -20.301  0.00  0.00    +0.037 C 
BRANCH  21  24
ATOM     24  O   UNL     1      32.417 -20.151 -20.641  0.00  0.00    -0.506 OA
ATOM     25  H   UNL     1      32.188 -20.618 -21.420  0.00  0.00    +0.292 HD
ENDBRANCH  21  24
ENDBRANCH   4  18
TORSDOF 2
ENDMDL
MODEL 2
REMARK VINA RESULT:      -9.2      1.996      5.970
REMARK  Name = 6857690
REMARK  2 active torsions:
REMARK  status: ('A' for Active; 'I' for Inactive)
REMARK    1  A    between atoms: C_4  and  C_18
REMARK    2  A    between atoms: C_21  and  O_24
REMARK                            x       y       z     vdW  Elec       q    Type
REMARK                         _______ _______ _______ _____ _____    ______ ____
ROOT
ATOM      1  O   UNL     1      36.750 -21.103 -16.967  0.00  0.00    -0.252 OA
ATOM      2  N   UNL     1      34.996 -22.585 -16.801  0.00  0.00    -0.259 N 
ATOM      3  N   UNL     1      35.261 -21.177 -18.722  0.00  0.00    -0.261 N 
ATOM      4  C   UNL     1      35.047 -22.806 -14.349  0.00  0.00    +0.064 C 
ATOM      5  C   UNL     1      35.607 -23.309 -15.692  0.00  0.00    +0.104 C 
ATOM      6  C   UNL     1      33.522 -22.743 -14.372  0.00  0.00    -0.019 C 
ATOM      7  C   UNL     1      32.828 -22.725 -15.601  0.00  0.00    -0.010 C 
ATOM      8  C   UNL     1      33.548 -22.787 -16.930  0.00  0.00    +0.121 C 
ATOM      9  C   UNL     1      31.425 -22.659 -15.606  0.00  0.00    -0.028 C 
ATOM     10  C   UNL     1      32.788 -22.616 -13.180  0.00  0.00    -0.005 C 
ATOM     11  C   UNL     1      30.713 -22.569 -14.412  0.00  0.00    -0.026 C 
ATOM     12  C   UNL     1      35.729 -21.592 -17.467  0.00  0.00    +0.308 C 
ATOM     13  C   UNL     1      31.394 -22.539 -13.200  0.00  0.00    -0.005 C 
ATOM     14  C   UNL     1      30.670 -22.678 -16.901  0.00  0.00    +0.030 C 
ATOM     15  C   UNL     1      29.222 -22.503 -14.402  0.00  0.00    +0.031 C 
ATOM     16  C   UNL     1      34.524 -22.029 -19.652  0.00  0.00    +0.117 C 
ATOM     17  C   UNL     1      35.737 -19.916 -19.275  0.00  0.00    +0.117 C 
ENDROOT
BRANCH   4  18
ATOM     18  C   UNL     1      35.637 -23.636 -13.218  0.00  0.00    -0.014 C 
ATOM     19  C   UNL     1      35.584 -23.160 -11.913  0.00  0.00    +0.033 C 
ATOM     20  C   UNL     1      36.223 -24.866 -13.499  0.00  0.00    -0.004 C 
ATOM     21  C   UNL     1      36.123 -23.920 -10.876  0.00  0.00    +0.133 C 
ATOM     22  C   UNL     1      36.762 -25.628 -12.462  0.00  0.00    +0.003 C 
ATOM     23  C   UNL     1      36.713 -25.155 -11.151  0.00  0.00    +0.037 C 
BRANCH  21  24
ATOM     24  O   UNL     1      36.075 -23.460  -9.597  0.00  0.00    -0.506 OA
ATOM     25  H   UNL     1      35.386 -22.882  -9.332  0.00  0.00    +0.292 HD
ENDBRANCH  21  24
ENDBRANCH   4  18
TORSDOF 2
ENDMDL
MODEL 3
REMARK VINA RESULT:      -9.0     15.731     18.780
REMARK  Name = 6857690
REMARK  2 active torsions:
REMARK  status: ('A' for Active; 'I' for Inactive)
REMARK    1  A    between atoms: C_4  and  C_18
REMARK    2  A    between atoms: C_21  and  O_24
REMARK                            x       y       z     vdW  Elec       q    Type
REMARK                         _______ _______ _______ _____ _____    ______ ____
ROOT
ATOM      1  O   UNL     1      31.770  -9.410 -23.625  0.00  0.00    -0.252 OA
ATOM      2  N   UNL     1      32.329  -7.390 -22.674  0.00  0.00    -0.259 N 
ATOM      3  N   UNL     1      31.272  -9.119 -21.395  0.00  0.00    -0.261 N 
ATOM      4  C   UNL     1      32.433  -6.109 -24.774  0.00  0.00    +0.064 C 
ATOM      5  C   UNL     1      33.193  -7.012 -23.787  0.00  0.00    +0.104 C 
ATOM      6  C   UNL     1      31.712  -4.976 -24.048  0.00  0.00    -0.019 C 
ATOM      7  C   UNL     1      31.452  -5.067 -22.664  0.00  0.00    -0.010 C 
ATOM      8  C   UNL     1      31.886  -6.263 -21.844  0.00  0.00    +0.121 C 
ATOM      9  C   UNL     1      30.782  -4.020 -22.012  0.00  0.00    -0.028 C 
ATOM     10  C   UNL     1      31.221  -3.864 -24.756  0.00  0.00    -0.005 C 
ATOM     11  C   UNL     1      30.333  -2.910 -22.724  0.00  0.00    -0.026 C 
ATOM     12  C   UNL     1      31.788  -8.682 -22.624  0.00  0.00    +0.308 C 
ATOM     13  C   UNL     1      30.545  -2.836 -24.097  0.00  0.00    -0.005 C 
ATOM     14  C   UNL     1      30.531  -4.083 -20.535  0.00  0.00    +0.030 C 
ATOM     15  C   UNL     1      29.623  -1.787 -22.043  0.00  0.00    +0.031 C 
ATOM     16  C   UNL     1      31.761  -8.680 -20.091  0.00  0.00    +0.117 C 
ATOM     17  C   UNL     1      30.373 -10.265 -21.372  0.00  0.00    +0.117 C 
ENDROOT
BRANCH   4  18
ATOM     18  C   UNL     1      33.381  -5.662 -25.877  0.00  0.00    -0.014 C 
ATOM     19  C   UNL     1      32.992  -5.768 -27.208  0.00  0.00    +0.033 C 
ATOM     20  C   UNL     1      34.632  -5.150 -25.545  0.00  0.00    -0.004 C 
ATOM     21  C   UNL     1      33.861  -5.358 -28.218  0.00  0.00    +0.133 C 
ATOM     22  C   UNL     1      35.501  -4.739 -26.555  0.00  0.00    +0.003 C 
ATOM     23  C   UNL     1      35.116  -4.843 -27.892  0.00  0.00    +0.037 C 
BRANCH  21  24
ATOM     24  O   UNL     1      33.485  -5.459 -29.522  0.00  0.00    -0.506 OA
ATOM     25  H   UNL     1      33.901  -4.928 -30.172  0.00  0.00    +0.292 HD
ENDBRANCH  21  24
ENDBRANCH   4  18
TORSDOF 2
ENDMDL
MODEL 4
REMARK VINA RESULT:      -9.0      2.028      4.432
REMARK  Name = 6857690
REMARK  2 active torsions:
REMARK  status: ('A' for Active; 'I' for Inactive)
REMARK    1  A    between atoms: C_4  and  C_18
REMARK    2  A    between atoms: C_21  and  O_24
REMARK                            x       y       z     vdW  Elec       q    Type
REMARK                         _______ _______ _______ _____ _____    ______ ____
ROOT
ATOM      1  O   UNL     1      31.046 -21.823 -14.796  0.00  0.00    -0.252 OA
ATOM      2  N   UNL     1      32.637 -23.379 -15.384  0.00  0.00    -0.259 N 
ATOM      3  N   UNL     1      31.235 -23.695 -13.466  0.00  0.00    -0.261 N 
ATOM      4  C   UNL     1      34.035 -21.857 -16.723  0.00  0.00    +0.064 C 
ATOM      5  C   UNL     1      32.823 -22.806 -16.712  0.00  0.00    +0.104 C 
ATOM      6  C   UNL     1      35.256 -22.508 -16.078  0.00  0.00    -0.019 C 
ATOM      7  C   UNL     1      35.103 -23.622 -15.225  0.00  0.00    -0.010 C 
ATOM      8  C   UNL     1      33.747 -24.226 -14.931  0.00  0.00    +0.121 C 
ATOM      9  C   UNL     1      36.235 -24.205 -14.634  0.00  0.00    -0.028 C 
ATOM     10  C   UNL     1      36.541 -21.962 -16.252  0.00  0.00    -0.005 C 
ATOM     11  C   UNL     1      37.504 -23.671 -14.846  0.00  0.00    -0.026 C 
ATOM     12  C   UNL     1      31.607 -22.901 -14.562  0.00  0.00    +0.308 C 
ATOM     13  C   UNL     1      37.655 -22.545 -15.648  0.00  0.00    -0.005 C 
ATOM     14  C   UNL     1      36.095 -25.413 -13.756  0.00  0.00    +0.030 C 
ATOM     15  C   UNL     1      38.717 -24.284 -14.228  0.00  0.00    +0.031 C 
ATOM     16  C   UNL     1      31.334 -25.151 -13.430  0.00  0.00    +0.117 C 
ATOM     17  C   UNL     1      30.466 -23.093 -12.385  0.00  0.00    +0.117 C 
ENDROOT
BRANCH   4  18
ATOM     18  C   UNL     1      34.256 -21.343 -18.138  0.00  0.00    -0.014 C 
ATOM     19  C   UNL     1      33.169 -20.926 -18.899  0.00  0.00    +0.033 C 
ATOM     20  C   UNL     1      35.545 -21.293 -18.660  0.00  0.00    -0.004 C 
ATOM     21  C   UNL     1      33.371 -20.454 -20.195  0.00  0.00    +0.133 C 
ATOM     22  C   UNL     1      35.748 -20.820 -19.957  0.00  0.00    +0.003 C 
ATOM     23  C   UNL     1      34.661 -20.401 -20.724  0.00  0.00    +0.037 C 
BRANCH  21  24
ATOM     24  O   UNL     1      32.311 -20.045 -20.944  0.00  0.00    -0.506 OA
ATOM     25  H   UNL     1      31.586 -20.622 -21.084  0.00  0.00    +0.292 HD
ENDBRANCH  21  24
ENDBRANCH   4  18
TORSDOF 2
ENDMDL
MODEL 5
REMARK VINA RESULT:      -8.9     15.344     18.785
REMARK  Name = 6857690
REMARK  2 active torsions:
REMARK  status: ('A' for Active; 'I' for Inactive)
REMARK    1  A    between atoms: C_4  and  C_18
REMARK    2  A    between atoms: C_21  and  O_24
REMARK                            x       y       z     vdW  Elec       q    Type
REMARK                         _______ _______ _______ _____ _____    ______ ____
ROOT
ATOM      1  O   UNL     1      34.941  -6.959 -24.976  0.00  0.00    -0.252 OA
ATOM      2  N   UNL     1      32.740  -6.294 -24.880  0.00  0.00    -0.259 N 
ATOM      3  N   UNL     1      34.213  -5.482 -26.586  0.00  0.00    -0.261 N 
ATOM      4  C   UNL     1      32.388  -6.829 -22.503  0.00  0.00    +0.064 C 
ATOM      5  C   UNL     1      32.375  -7.356 -23.949  0.00  0.00    +0.104 C 
ATOM      6  C   UNL     1      31.619  -5.516 -22.383  0.00  0.00    -0.019 C 
ATOM      7  C   UNL     1      31.356  -4.737 -23.530  0.00  0.00    -0.010 C 
ATOM      8  C   UNL     1      31.798  -5.169 -24.911  0.00  0.00    +0.121 C 
ATOM      9  C   UNL     1      30.654  -3.528 -23.403  0.00  0.00    -0.028 C 
ATOM     10  C   UNL     1      31.235  -5.018 -21.125  0.00  0.00    -0.005 C 
ATOM     11  C   UNL     1      30.251  -3.067 -22.151  0.00  0.00    -0.026 C 
ATOM     12  C   UNL     1      34.020  -6.284 -25.452  0.00  0.00    +0.308 C 
ATOM     13  C   UNL     1      30.549  -3.808 -21.012  0.00  0.00    -0.005 C 
ATOM     14  C   UNL     1      30.333  -2.706 -24.615  0.00  0.00    +0.030 C 
ATOM     15  C   UNL     1      29.500  -1.786 -22.002  0.00  0.00    +0.031 C 
ATOM     16  C   UNL     1      33.175  -5.170 -27.564  0.00  0.00    +0.117 C 
ATOM     17  C   UNL     1      35.571  -5.134 -26.984  0.00  0.00    +0.117 C 
ENDROOT
BRANCH   4  18
ATOM     18  C   UNL     1      31.922  -7.932 -21.564  0.00  0.00    -0.014 C 
ATOM     19  C   UNL     1      31.398  -9.109 -22.088  0.00  0.00    +0.033 C 
ATOM     20  C   UNL     1      32.023  -7.755 -20.188  0.00  0.00    -0.004 C 
ATOM     21  C   UNL     1      30.971 -10.120 -21.228  0.00  0.00    +0.133 C 
ATOM     22  C   UNL     1      31.597  -8.767 -19.327  0.00  0.00    +0.003 C 
ATOM     23  C   UNL     1      31.071  -9.949 -19.846  0.00  0.00    +0.037 C 
BRANCH  21  24
ATOM     24  O   UNL     1      30.457 -11.274 -21.735  0.00  0.00    -0.506 OA
ATOM     25  H   UNL     1      29.657 -11.621 -21.392  0.00  0.00    +0.292 HD
ENDBRANCH  21  24
ENDBRANCH   4  18
TORSDOF 2
ENDMDL
