MODEL 1
REMARK VINA RESULT:     -11.3      0.000      0.000
REMARK  Name = 25116064
REMARK  6 active torsions:
REMARK  status: ('A' for Active; 'I' for Inactive)
REMARK    1  A    between atoms: N_2  and  C_27
REMARK    2  A    between atoms: C_11  and  C_17
REMARK    3  A    between atoms: C_27  and  C_28
REMARK    4  A    between atoms: C_28  and  O_29
REMARK    5  A    between atoms: C_28  and  C_31
REMARK    6  A    between atoms: C_31  and  N_33
REMARK                            x       y       z     vdW  Elec       q    Type
REMARK                         _______ _______ _______ _____ _____    ______ ____
ROOT
ATOM      1  O   UNL     1      29.797  -8.122 -22.872  0.00  0.00    -0.270 OA
ATOM      2  N   UNL     1      31.529  -6.601 -22.546  0.00  0.00    -0.274 N 
ATOM      3  N   UNL     1      33.832 -10.138 -23.101  0.00  0.00    -0.357 N 
ATOM      4  C   UNL     1      32.873  -6.361 -22.009  0.00  0.00    +0.094 C 
ATOM      5  C   UNL     1      33.992  -6.519 -23.040  0.00  0.00    +0.028 C 
ATOM      6  C   UNL     1      33.911  -7.764 -23.925  0.00  0.00    +0.045 C 
ATOM      7  C   UNL     1      33.238  -8.911 -23.255  0.00  0.00    +0.038 A 
ATOM      8  C   UNL     1      31.957  -8.987 -22.734  0.00  0.00    +0.062 A 
ATOM      9  C   UNL     1      30.996  -7.892 -22.721  0.00  0.00    +0.250 C 
ATOM     10  C   UNL     1      31.767 -10.329 -22.304  0.00  0.00    -0.001 A 
ATOM     11  C   UNL     1      32.943 -11.010 -22.530  0.00  0.00    +0.053 A 
ATOM     12  C   UNL     1      30.555 -10.927 -21.706  0.00  0.00    +0.033 C 
ATOM     13  H   UNL     1      34.756 -10.358 -23.361  0.00  0.00    +0.166 HD
ENDROOT
BRANCH  11  17
ATOM     14  F   UNL     1      35.177 -17.454 -20.987  0.00  0.00    -0.204 F 
ATOM     15  O   UNL     1      32.465 -12.275 -25.155  0.00  0.00    -0.270 OA
ATOM     16  N   UNL     1      33.090 -14.554 -25.137  0.00  0.00    -0.280 N 
ATOM     17  C   UNL     1      33.373 -12.328 -22.303  0.00  0.00    +0.021 C 
ATOM     18  C   UNL     1      33.382 -13.384 -23.191  0.00  0.00    +0.056 C 
ATOM     19  C   UNL     1      33.825 -14.756 -22.968  0.00  0.00    +0.020 C 
ATOM     20  C   UNL     1      32.907 -13.271 -24.611  0.00  0.00    +0.250 C 
ATOM     21  C   UNL     1      33.627 -15.423 -24.181  0.00  0.00    +0.051 C 
ATOM     22  C   UNL     1      34.348 -15.421 -21.875  0.00  0.00    +0.031 C 
ATOM     23  C   UNL     1      33.936 -16.758 -24.350  0.00  0.00    +0.017 C 
ATOM     24  C   UNL     1      34.668 -16.775 -22.024  0.00  0.00    +0.140 C 
ATOM     25  C   UNL     1      34.464 -17.437 -23.250  0.00  0.00    +0.031 C 
ATOM     26  H   UNL     1      32.871 -14.811 -26.062  0.00  0.00    +0.155 HD
ENDBRANCH  11  17
BRANCH   2  27
ATOM     27  C   UNL     1      30.687  -5.432 -22.753  0.00  0.00    +0.121 C 
BRANCH  27  28
ATOM     28  C   UNL     1      31.475  -4.196 -23.191  0.00  0.00    +0.110 C 
BRANCH  28  29
ATOM     29  O   UNL     1      31.304  -3.182 -22.199  0.00  0.00    -0.385 OA
ATOM     30  H   UNL     1      32.167  -2.797 -21.979  0.00  0.00    +0.210 HD
ENDBRANCH  28  29
BRANCH  28  31
ATOM     31  C   UNL     1      31.074  -3.624 -24.556  0.00  0.00    -0.045 C 
BRANCH  31  33
ATOM     32  O   UNL     1      34.263  -5.433 -26.598  0.00  0.00    -0.358 OA
ATOM     33  N   UNL     1      32.039  -3.962 -25.599  0.00  0.00    +0.392 N 
ATOM     34  C   UNL     1      31.916  -5.375 -25.986  0.00  0.00    -0.045 C 
ATOM     35  C   UNL     1      33.411  -3.682 -25.150  0.00  0.00    -0.045 C 
ATOM     36  C   UNL     1      32.941  -5.708 -27.065  0.00  0.00    +0.119 C 
ATOM     37  C   UNL     1      34.401  -4.055 -26.250  0.00  0.00    +0.119 C 
ATOM     38  H   UNL     1      31.837  -3.383 -26.412  0.00  0.00    -0.079 HD
ENDBRANCH  31  33
ENDBRANCH  28  31
ENDBRANCH  27  28
ENDBRANCH   2  27
TORSDOF 6
ENDMDL
MODEL 2
REMARK VINA RESULT:     -11.3      4.132     11.107
REMARK  Name = 25116064
REMARK  6 active torsions:
REMARK  status: ('A' for Active; 'I' for Inactive)
REMARK    1  A    between atoms: N_2  and  C_27
REMARK    2  A    between atoms: C_11  and  C_17
REMARK    3  A    between atoms: C_27  and  C_28
REMARK    4  A    between atoms: C_28  and  O_29
REMARK    5  A    between atoms: C_28  and  C_31
REMARK    6  A    between atoms: C_31  and  N_33
REMARK                            x       y       z     vdW  Elec       q    Type
REMARK                         _______ _______ _______ _____ _____    ______ ____
ROOT
ATOM      1  O   UNL     1      32.547 -15.615 -25.256  0.00  0.00    -0.270 OA
ATOM      2  N   UNL     1      33.969 -16.438 -23.606  0.00  0.00    -0.274 N 
ATOM      3  N   UNL     1      33.483 -12.463 -22.160  0.00  0.00    -0.357 N 
ATOM      4  C   UNL     1      35.062 -16.155 -22.669  0.00  0.00    +0.094 C 
ATOM      5  C   UNL     1      34.594 -15.792 -21.259  0.00  0.00    +0.028 C 
ATOM      6  C   UNL     1      33.453 -14.776 -21.177  0.00  0.00    +0.045 C 
ATOM      7  C   UNL     1      33.437 -13.825 -22.322  0.00  0.00    +0.038 A 
ATOM      8  C   UNL     1      33.332 -14.092 -23.677  0.00  0.00    +0.062 A 
ATOM      9  C   UNL     1      33.242 -15.425 -24.259  0.00  0.00    +0.250 C 
ATOM     10  C   UNL     1      33.258 -12.836 -24.339  0.00  0.00    -0.001 A 
ATOM     11  C   UNL     1      33.368 -11.852 -23.381  0.00  0.00    +0.053 A 
ATOM     12  C   UNL     1      33.106 -12.582 -25.787  0.00  0.00    +0.033 C 
ATOM     13  H   UNL     1      33.584 -11.996 -21.300  0.00  0.00    +0.166 HD
ENDROOT
BRANCH  11  17
ATOM     14  F   UNL     1      33.821  -4.885 -23.775  0.00  0.00    -0.204 F 
ATOM     15  O   UNL     1      30.895 -11.173 -21.918  0.00  0.00    -0.270 OA
ATOM     16  N   UNL     1      30.593  -8.834 -21.779  0.00  0.00    -0.280 N 
ATOM     17  C   UNL     1      33.383 -10.447 -23.415  0.00  0.00    +0.021 C 
ATOM     18  C   UNL     1      32.459  -9.574 -22.879  0.00  0.00    +0.056 C 
ATOM     19  C   UNL     1      32.463  -8.116 -22.907  0.00  0.00    +0.020 C 
ATOM     20  C   UNL     1      31.233 -10.024 -22.139  0.00  0.00    +0.250 C 
ATOM     21  C   UNL     1      31.310  -7.718 -22.225  0.00  0.00    +0.051 C 
ATOM     22  C   UNL     1      33.327  -7.177 -23.439  0.00  0.00    +0.031 C 
ATOM     23  C   UNL     1      30.975  -6.389 -22.050  0.00  0.00    +0.017 C 
ATOM     24  C   UNL     1      33.007  -5.825 -23.273  0.00  0.00    +0.140 C 
ATOM     25  C   UNL     1      31.842  -5.435 -22.585  0.00  0.00    +0.031 C 
ATOM     26  H   UNL     1      29.749  -8.787 -21.275  0.00  0.00    +0.155 HD
ENDBRANCH  11  17
BRANCH   2  27
ATOM     27  C   UNL     1      33.758 -17.832 -23.966  0.00  0.00    +0.121 C 
BRANCH  27  28
ATOM     28  C   UNL     1      34.354 -18.809 -22.951  0.00  0.00    +0.110 C 
BRANCH  28  29
ATOM     29  O   UNL     1      34.598 -20.051 -23.614  0.00  0.00    -0.385 OA
ATOM     30  H   UNL     1      35.548 -20.247 -23.594  0.00  0.00    +0.210 HD
ENDBRANCH  28  29
BRANCH  28  31
ATOM     31  C   UNL     1      33.482 -19.072 -21.718  0.00  0.00    -0.045 C 
BRANCH  31  33
ATOM     32  O   UNL     1      34.827 -21.298 -18.423  0.00  0.00    -0.358 OA
ATOM     33  N   UNL     1      34.000 -20.169 -20.902  0.00  0.00    +0.392 N 
ATOM     34  C   UNL     1      33.027 -20.558 -19.872  0.00  0.00    -0.045 C 
ATOM     35  C   UNL     1      35.275 -19.795 -20.275  0.00  0.00    -0.045 C 
ATOM     36  C   UNL     1      33.594 -21.694 -19.026  0.00  0.00    +0.119 C 
ATOM     37  C   UNL     1      35.789 -20.950 -19.419  0.00  0.00    +0.119 C 
ATOM     38  H   UNL     1      34.161 -20.966 -21.517  0.00  0.00    -0.079 HD
ENDBRANCH  31  33
ENDBRANCH  28  31
ENDBRANCH  27  28
ENDBRANCH   2  27
TORSDOF 6
ENDMDL
MODEL 3
REMARK VINA RESULT:     -10.8      0.955      1.095
REMARK  Name = 25116064
REMARK  6 active torsions:
REMARK  status: ('A' for Active; 'I' for Inactive)
REMARK    1  A    between atoms: N_2  and  C_27
REMARK    2  A    between atoms: C_11  and  C_17
REMARK    3  A    between atoms: C_27  and  C_28
REMARK    4  A    between atoms: C_28  and  O_29
REMARK    5  A    between atoms: C_28  and  C_31
REMARK    6  A    between atoms: C_31  and  N_33
REMARK                            x       y       z     vdW  Elec       q    Type
REMARK                         _______ _______ _______ _____ _____    ______ ____
ROOT
ATOM      1  O   UNL     1      29.985  -9.242 -22.237  0.00  0.00    -0.270 OA
ATOM      2  N   UNL     1      31.707  -7.688 -22.437  0.00  0.00    -0.274 N 
ATOM      3  N   UNL     1      33.928 -11.252 -23.136  0.00  0.00    -0.357 N 
ATOM      4  C   UNL     1      33.128  -7.390 -22.226  0.00  0.00    +0.094 C 
ATOM      5  C   UNL     1      34.005  -7.644 -23.454  0.00  0.00    +0.028 C 
ATOM      6  C   UNL     1      33.769  -8.970 -24.178  0.00  0.00    +0.045 C 
ATOM      7  C   UNL     1      33.283 -10.049 -23.274  0.00  0.00    +0.038 A 
ATOM      8  C   UNL     1      32.145 -10.079 -22.485  0.00  0.00    +0.062 A 
ATOM      9  C   UNL     1      31.182  -8.992 -22.369  0.00  0.00    +0.250 C 
ATOM     10  C   UNL     1      32.086 -11.373 -21.899  0.00  0.00    -0.001 A 
ATOM     11  C   UNL     1      33.204 -12.067 -22.306  0.00  0.00    +0.053 A 
ATOM     12  C   UNL     1      31.045 -11.915 -21.001  0.00  0.00    +0.033 C 
ATOM     13  H   UNL     1      34.780 -11.493 -23.566  0.00  0.00    +0.166 HD
ENDROOT
BRANCH  11  17
ATOM     14  F   UNL     1      35.828 -18.334 -20.649  0.00  0.00    -0.204 F 
ATOM     15  O   UNL     1      32.536 -13.493 -24.805  0.00  0.00    -0.270 OA
ATOM     16  N   UNL     1      33.251 -15.743 -24.729  0.00  0.00    -0.280 N 
ATOM     17  C   UNL     1      33.705 -13.356 -22.053  0.00  0.00    +0.021 C 
ATOM     18  C   UNL     1      33.674 -14.458 -22.882  0.00  0.00    +0.056 C 
ATOM     19  C   UNL     1      34.190 -15.800 -22.631  0.00  0.00    +0.020 C 
ATOM     20  C   UNL     1      33.065 -14.441 -24.254  0.00  0.00    +0.250 C 
ATOM     21  C   UNL     1      33.908 -16.539 -23.783  0.00  0.00    +0.051 C 
ATOM     22  C   UNL     1      34.839 -16.384 -21.559  0.00  0.00    +0.031 C 
ATOM     23  C   UNL     1      34.253 -17.869 -23.912  0.00  0.00    +0.017 C 
ATOM     24  C   UNL     1      35.198 -17.732 -21.668  0.00  0.00    +0.140 C 
ATOM     25  C   UNL     1      34.908 -18.468 -22.833  0.00  0.00    +0.031 C 
ATOM     26  H   UNL     1      32.958 -16.059 -25.614  0.00  0.00    +0.155 HD
ENDBRANCH  11  17
BRANCH   2  27
ATOM     27  C   UNL     1      30.811  -6.549 -22.568  0.00  0.00    +0.121 C 
BRANCH  27  28
ATOM     28  C   UNL     1      31.548  -5.233 -22.825  0.00  0.00    +0.110 C 
BRANCH  28  29
ATOM     29  O   UNL     1      31.370  -4.390 -21.685  0.00  0.00    -0.385 OA
ATOM     30  H   UNL     1      30.524  -4.600 -21.257  0.00  0.00    +0.210 HD
ENDBRANCH  28  29
BRANCH  28  31
ATOM     31  C   UNL     1      31.096  -4.472 -24.076  0.00  0.00    -0.045 C 
BRANCH  31  33
ATOM     32  O   UNL     1      34.414  -5.574 -26.398  0.00  0.00    -0.358 OA
ATOM     33  N   UNL     1      32.115  -4.480 -25.122  0.00  0.00    +0.392 N 
ATOM     34  C   UNL     1      32.040  -5.716 -25.914  0.00  0.00    -0.045 C 
ATOM     35  C   UNL     1      33.458  -4.335 -24.543  0.00  0.00    -0.045 C 
ATOM     36  C   UNL     1      33.121  -5.709 -26.991  0.00  0.00    +0.119 C 
ATOM     37  C   UNL     1      34.506  -4.360 -25.653  0.00  0.00    +0.119 C 
ATOM     38  H   UNL     1      31.938  -3.688 -25.738  0.00  0.00    -0.079 HD
ENDBRANCH  31  33
ENDBRANCH  28  31
ENDBRANCH  27  28
ENDBRANCH   2  27
TORSDOF 6
ENDMDL
MODEL 4
REMARK VINA RESULT:     -10.6      6.499     11.061
REMARK  Name = 25116064
REMARK  6 active torsions:
REMARK  status: ('A' for Active; 'I' for Inactive)
REMARK    1  A    between atoms: N_2  and  C_27
REMARK    2  A    between atoms: C_11  and  C_17
REMARK    3  A    between atoms: C_27  and  C_28
REMARK    4  A    between atoms: C_28  and  O_29
REMARK    5  A    between atoms: C_28  and  C_31
REMARK    6  A    between atoms: C_31  and  N_33
REMARK                            x       y       z     vdW  Elec       q    Type
REMARK                         _______ _______ _______ _____ _____    ______ ____
ROOT
ATOM      1  O   UNL     1      32.734 -19.241 -22.911  0.00  0.00    -0.270 OA
ATOM      2  N   UNL     1      34.514 -17.764 -22.652  0.00  0.00    -0.274 N 
ATOM      3  N   UNL     1      35.491 -20.546 -19.581  0.00  0.00    -0.357 N 
ATOM      4  C   UNL     1      35.452 -17.116 -21.728  0.00  0.00    +0.094 C 
ATOM      5  C   UNL     1      36.796 -17.836 -21.600  0.00  0.00    +0.028 C 
ATOM      6  C   UNL     1      36.724 -19.353 -21.418  0.00  0.00    +0.045 C 
ATOM      7  C   UNL     1      35.480 -19.798 -20.731  0.00  0.00    +0.038 A 
ATOM      8  C   UNL     1      34.160 -19.607 -21.105  0.00  0.00    +0.062 A 
ATOM      9  C   UNL     1      33.727 -18.872 -22.287  0.00  0.00    +0.250 C 
ATOM     10  C   UNL     1      33.361 -20.317 -20.169  0.00  0.00    -0.001 A 
ATOM     11  C   UNL     1      34.206 -20.872 -19.234  0.00  0.00    +0.053 A 
ATOM     12  C   UNL     1      31.889 -20.451 -20.151  0.00  0.00    +0.033 C 
ATOM     13  H   UNL     1      36.297 -20.807 -19.081  0.00  0.00    +0.166 HD
ENDROOT
BRANCH  11  17
ATOM     14  F   UNL     1      32.878 -24.883 -13.662  0.00  0.00    -0.204 F 
ATOM     15  O   UNL     1      36.679 -20.335 -17.712  0.00  0.00    -0.270 OA
ATOM     16  N   UNL     1      36.703 -21.513 -15.665  0.00  0.00    -0.280 N 
ATOM     17  C   UNL     1      34.017 -21.653 -18.080  0.00  0.00    +0.021 C 
ATOM     18  C   UNL     1      34.864 -21.793 -17.001  0.00  0.00    +0.056 C 
ATOM     19  C   UNL     1      34.680 -22.599 -15.799  0.00  0.00    +0.020 C 
ATOM     20  C   UNL     1      36.188 -21.092 -16.896  0.00  0.00    +0.250 C 
ATOM     21  C   UNL     1      35.824 -22.393 -15.022  0.00  0.00    +0.051 C 
ATOM     22  C   UNL     1      33.671 -23.436 -15.360  0.00  0.00    +0.031 C 
ATOM     23  C   UNL     1      36.005 -23.002 -13.797  0.00  0.00    +0.017 C 
ATOM     24  C   UNL     1      33.835 -24.065 -14.121  0.00  0.00    +0.140 C 
ATOM     25  C   UNL     1      34.991 -23.850 -13.347  0.00  0.00    +0.031 C 
ATOM     26  H   UNL     1      37.569 -21.227 -15.298  0.00  0.00    +0.155 HD
ENDBRANCH  11  17
BRANCH   2  27
ATOM     27  C   UNL     1      34.305 -17.114 -23.937  0.00  0.00    +0.121 C 
BRANCH  27  28
ATOM     28  C   UNL     1      33.500 -15.817 -23.829  0.00  0.00    +0.110 C 
BRANCH  28  29
ATOM     29  O   UNL     1      32.680 -15.701 -24.993  0.00  0.00    -0.385 OA
ATOM     30  H   UNL     1      33.217 -15.383 -25.736  0.00  0.00    +0.210 HD
ENDBRANCH  28  29
BRANCH  28  31
ATOM     31  C   UNL     1      34.342 -14.544 -23.689  0.00  0.00    -0.045 C 
BRANCH  31  33
ATOM     32  O   UNL     1      31.591 -12.614 -21.175  0.00  0.00    -0.358 OA
ATOM     33  N   UNL     1      33.752 -13.595 -22.747  0.00  0.00    +0.392 N 
ATOM     34  C   UNL     1      33.322 -14.279 -21.519  0.00  0.00    -0.045 C 
ATOM     35  C   UNL     1      32.614 -12.894 -23.357  0.00  0.00    -0.045 C 
ATOM     36  C   UNL     1      32.698 -13.273 -20.557  0.00  0.00    +0.119 C 
ATOM     37  C   UNL     1      32.007 -11.920 -22.351  0.00  0.00    +0.119 C 
ATOM     38  H   UNL     1      34.466 -12.910 -22.505  0.00  0.00    -0.079 HD
ENDBRANCH  31  33
ENDBRANCH  28  31
ENDBRANCH  27  28
ENDBRANCH   2  27
TORSDOF 6
ENDMDL
MODEL 5
REMARK VINA RESULT:     -10.3      1.520      1.824
REMARK  Name = 25116064
REMARK  6 active torsions:
REMARK  status: ('A' for Active; 'I' for Inactive)
REMARK    1  A    between atoms: N_2  and  C_27
REMARK    2  A    between atoms: C_11  and  C_17
REMARK    3  A    between atoms: C_27  and  C_28
REMARK    4  A    between atoms: C_28  and  O_29
REMARK    5  A    between atoms: C_28  and  C_31
REMARK    6  A    between atoms: C_31  and  N_33
REMARK                            x       y       z     vdW  Elec       q    Type
REMARK                         _______ _______ _______ _____ _____    ______ ____
ROOT
ATOM      1  O   UNL     1      29.976  -7.906 -22.269  0.00  0.00    -0.270 OA
ATOM      2  N   UNL     1      31.866  -6.681 -21.680  0.00  0.00    -0.274 N 
ATOM      3  N   UNL     1      33.767 -10.001 -23.549  0.00  0.00    -0.357 N 
ATOM      4  C   UNL     1      33.266  -6.711 -21.244  0.00  0.00    +0.094 C 
ATOM      5  C   UNL     1      34.276  -6.606 -22.389  0.00  0.00    +0.028 C 
ATOM      6  C   UNL     1      34.003  -7.498 -23.601  0.00  0.00    +0.045 C 
ATOM      7  C   UNL     1      33.282  -8.752 -23.250  0.00  0.00    +0.038 A 
ATOM      8  C   UNL     1      32.047  -8.907 -22.642  0.00  0.00    +0.062 A 
ATOM      9  C   UNL     1      31.199  -7.813 -22.186  0.00  0.00    +0.250 C 
ATOM     10  C   UNL     1      31.767 -10.301 -22.630  0.00  0.00    -0.001 A 
ATOM     11  C   UNL     1      32.849 -10.949 -23.181  0.00  0.00    +0.053 A 
ATOM     12  C   UNL     1      30.557 -10.978 -22.118  0.00  0.00    +0.033 C 
ATOM     13  H   UNL     1      34.640 -10.186 -23.963  0.00  0.00    +0.166 HD
ENDROOT
BRANCH  11  17
ATOM     14  F   UNL     1      34.369 -17.578 -24.810  0.00  0.00    -0.204 F 
ATOM     15  O   UNL     1      33.428 -11.943 -20.461  0.00  0.00    -0.270 OA
ATOM     16  N   UNL     1      34.016 -14.232 -20.489  0.00  0.00    -0.280 N 
ATOM     17  C   UNL     1      33.169 -12.297 -23.422  0.00  0.00    +0.021 C 
ATOM     18  C   UNL     1      33.526 -13.263 -22.505  0.00  0.00    +0.056 C 
ATOM     19  C   UNL     1      33.860 -14.663 -22.742  0.00  0.00    +0.020 C 
ATOM     20  C   UNL     1      33.633 -13.000 -21.030  0.00  0.00    +0.250 C 
ATOM     21  C   UNL     1      34.148 -15.205 -21.486  0.00  0.00    +0.051 C 
ATOM     22  C   UNL     1      33.928 -15.445 -23.880  0.00  0.00    +0.031 C 
ATOM     23  C   UNL     1      34.510 -16.526 -21.316  0.00  0.00    +0.017 C 
ATOM     24  C   UNL     1      34.293 -16.787 -23.730  0.00  0.00    +0.140 C 
ATOM     25  C   UNL     1      34.582 -17.323 -22.460  0.00  0.00    +0.031 C 
ATOM     26  H   UNL     1      34.170 -14.393 -19.530  0.00  0.00    +0.155 HD
ENDBRANCH  11  17
BRANCH   2  27
ATOM     27  C   UNL     1      31.125  -5.456 -21.422  0.00  0.00    +0.121 C 
BRANCH  27  28
ATOM     28  C   UNL     1      31.407  -4.357 -22.449  0.00  0.00    +0.110 C 
BRANCH  28  29
ATOM     29  O   UNL     1      31.090  -3.097 -21.856  0.00  0.00    -0.385 OA
ATOM     30  H   UNL     1      30.317  -2.716 -22.301  0.00  0.00    +0.210 HD
ENDBRANCH  28  29
BRANCH  28  31
ATOM     31  C   UNL     1      30.635  -4.490 -23.767  0.00  0.00    -0.045 C 
BRANCH  31  33
ATOM     32  O   UNL     1      33.834  -5.356 -26.342  0.00  0.00    -0.358 OA
ATOM     33  N   UNL     1      31.523  -4.483 -24.927  0.00  0.00    +0.392 N 
ATOM     34  C   UNL     1      31.590  -5.816 -25.542  0.00  0.00    -0.045 C 
ATOM     35  C   UNL     1      32.871  -4.034 -24.550  0.00  0.00    -0.045 C 
ATOM     36  C   UNL     1      32.532  -5.788 -26.742  0.00  0.00    +0.119 C 
ATOM     37  C   UNL     1      33.782  -4.048 -25.774  0.00  0.00    +0.119 C 
ATOM     38  H   UNL     1      31.141  -3.829 -25.609  0.00  0.00    -0.079 HD
ENDBRANCH  31  33
ENDBRANCH  28  31
ENDBRANCH  27  28
ENDBRANCH   2  27
TORSDOF 6
ENDMDL
MODEL 6
REMARK VINA RESULT:     -10.1      4.428     11.172
REMARK  Name = 25116064
REMARK  6 active torsions:
REMARK  status: ('A' for Active; 'I' for Inactive)
REMARK    1  A    between atoms: N_2  and  C_27
REMARK    2  A    between atoms: C_11  and  C_17
REMARK    3  A    between atoms: C_27  and  C_28
REMARK    4  A    between atoms: C_28  and  O_29
REMARK    5  A    between atoms: C_28  and  C_31
REMARK    6  A    between atoms: C_31  and  N_33
REMARK                            x       y       z     vdW  Elec       q    Type
REMARK                         _______ _______ _______ _____ _____    ______ ____
ROOT
ATOM      1  O   UNL     1      33.512 -14.414 -24.244  0.00  0.00    -0.270 OA
ATOM      2  N   UNL     1      33.935 -14.972 -22.024  0.00  0.00    -0.274 N 
ATOM      3  N   UNL     1      31.571 -11.485 -21.406  0.00  0.00    -0.357 N 
ATOM      4  C   UNL     1      34.174 -14.493 -20.658  0.00  0.00    +0.094 C 
ATOM      5  C   UNL     1      32.915 -14.436 -19.790  0.00  0.00    +0.028 C 
ATOM      6  C   UNL     1      31.684 -13.805 -20.443  0.00  0.00    +0.045 C 
ATOM      7  C   UNL     1      32.030 -12.777 -21.463  0.00  0.00    +0.038 A 
ATOM      8  C   UNL     1      32.785 -12.913 -22.617  0.00  0.00    +0.062 A 
ATOM      9  C   UNL     1      33.436 -14.144 -23.047  0.00  0.00    +0.250 C 
ATOM     10  C   UNL     1      32.725 -11.665 -23.296  0.00  0.00    -0.001 A 
ATOM     11  C   UNL     1      31.983 -10.803 -22.520  0.00  0.00    +0.053 A 
ATOM     12  C   UNL     1      33.341 -11.308 -24.591  0.00  0.00    +0.033 C 
ATOM     13  H   UNL     1      31.029 -11.107 -20.676  0.00  0.00    +0.166 HD
ENDROOT
BRANCH  11  17
ATOM     14  F   UNL     1      29.996  -4.180 -23.568  0.00  0.00    -0.204 F 
ATOM     15  O   UNL     1      32.224  -9.832 -19.741  0.00  0.00    -0.270 OA
ATOM     16  N   UNL     1      31.635  -7.550 -19.574  0.00  0.00    -0.280 N 
ATOM     17  C   UNL     1      31.596  -9.457 -22.644  0.00  0.00    +0.021 C 
ATOM     18  C   UNL     1      31.516  -8.500 -21.653  0.00  0.00    +0.056 C 
ATOM     19  C   UNL     1      31.116  -7.103 -21.769  0.00  0.00    +0.020 C 
ATOM     20  C   UNL     1      31.851  -8.774 -20.215  0.00  0.00    +0.250 C 
ATOM     21  C   UNL     1      31.207  -6.572 -20.479  0.00  0.00    +0.051 C 
ATOM     22  C   UNL     1      30.709  -6.314 -22.829  0.00  0.00    +0.031 C 
ATOM     23  C   UNL     1      30.900  -5.255 -20.197  0.00  0.00    +0.017 C 
ATOM     24  C   UNL     1      30.394  -4.977 -22.566  0.00  0.00    +0.140 C 
ATOM     25  C   UNL     1      30.488  -4.452 -21.262  0.00  0.00    +0.031 C 
ATOM     26  H   UNL     1      31.769  -7.396 -18.611  0.00  0.00    +0.155 HD
ENDBRANCH  11  17
BRANCH   2  27
ATOM     27  C   UNL     1      34.386 -16.320 -22.335  0.00  0.00    +0.121 C 
BRANCH  27  28
ATOM     28  C   UNL     1      34.348 -17.258 -21.127  0.00  0.00    +0.110 C 
BRANCH  28  29
ATOM     29  O   UNL     1      35.630 -17.230 -20.498  0.00  0.00    -0.385 OA
ATOM     30  H   UNL     1      36.322 -17.166 -21.176  0.00  0.00    +0.210 HD
ENDBRANCH  28  29
BRANCH  28  31
ATOM     31  C   UNL     1      33.988 -18.713 -21.449  0.00  0.00    -0.045 C 
BRANCH  31  33
ATOM     32  O   UNL     1      33.754 -22.058 -18.925  0.00  0.00    -0.358 OA
ATOM     33  N   UNL     1      33.932 -19.543 -20.248  0.00  0.00    +0.392 N 
ATOM     34  C   UNL     1      35.072 -20.469 -20.200  0.00  0.00    -0.045 C 
ATOM     35  C   UNL     1      32.670 -20.296 -20.194  0.00  0.00    -0.045 C 
ATOM     36  C   UNL     1      34.985 -21.334 -18.946  0.00  0.00    +0.119 C 
ATOM     37  C   UNL     1      32.640 -21.165 -18.939  0.00  0.00    +0.119 C 
ATOM     38  H   UNL     1      33.978 -18.926 -19.439  0.00  0.00    -0.079 HD
ENDBRANCH  31  33
ENDBRANCH  28  31
ENDBRANCH  27  28
ENDBRANCH   2  27
TORSDOF 6
ENDMDL
MODEL 7
REMARK VINA RESULT:      -9.8      4.180     10.950
REMARK  Name = 25116064
REMARK  6 active torsions:
REMARK  status: ('A' for Active; 'I' for Inactive)
REMARK    1  A    between atoms: N_2  and  C_27
REMARK    2  A    between atoms: C_11  and  C_17
REMARK    3  A    between atoms: C_27  and  C_28
REMARK    4  A    between atoms: C_28  and  O_29
REMARK    5  A    between atoms: C_28  and  C_31
REMARK    6  A    between atoms: C_31  and  N_33
REMARK                            x       y       z     vdW  Elec       q    Type
REMARK                         _______ _______ _______ _____ _____    ______ ____
ROOT
ATOM      1  O   UNL     1      32.830 -14.683 -24.802  0.00  0.00    -0.270 OA
ATOM      2  N   UNL     1      33.891 -15.243 -22.807  0.00  0.00    -0.274 N 
ATOM      3  N   UNL     1      31.969 -11.651 -21.567  0.00  0.00    -0.357 N 
ATOM      4  C   UNL     1      34.555 -14.765 -21.589  0.00  0.00    +0.094 C 
ATOM      5  C   UNL     1      33.626 -14.646 -20.379  0.00  0.00    +0.028 C 
ATOM      6  C   UNL     1      32.281 -13.966 -20.637  0.00  0.00    +0.045 C 
ATOM      7  C   UNL     1      32.337 -12.962 -21.735  0.00  0.00    +0.038 A 
ATOM      8  C   UNL     1      32.697 -13.140 -23.061  0.00  0.00    +0.062 A 
ATOM      9  C   UNL     1      33.136 -14.401 -23.645  0.00  0.00    +0.250 C 
ATOM     10  C   UNL     1      32.480 -11.896 -23.715  0.00  0.00    -0.001 A 
ATOM     11  C   UNL     1      32.047 -10.996 -22.767  0.00  0.00    +0.053 A 
ATOM     12  C   UNL     1      32.684 -11.576 -25.143  0.00  0.00    +0.033 C 
ATOM     13  H   UNL     1      31.693 -11.244 -20.715  0.00  0.00    +0.166 HD
ENDROOT
BRANCH  11  17
ATOM     14  F   UNL     1      29.879  -4.347 -22.793  0.00  0.00    -0.204 F 
ATOM     15  O   UNL     1      34.608  -9.706 -23.473  0.00  0.00    -0.270 OA
ATOM     16  N   UNL     1      34.380  -7.358 -23.609  0.00  0.00    -0.280 N 
ATOM     17  C   UNL     1      31.694  -9.635 -22.794  0.00  0.00    +0.021 C 
ATOM     18  C   UNL     1      32.502  -8.552 -23.072  0.00  0.00    +0.056 C 
ATOM     19  C   UNL     1      32.148  -7.138 -23.102  0.00  0.00    +0.020 C 
ATOM     20  C   UNL     1      33.961  -8.677 -23.404  0.00  0.00    +0.250 C 
ATOM     21  C   UNL     1      33.324  -6.458 -23.434  0.00  0.00    +0.051 C 
ATOM     22  C   UNL     1      30.972  -6.446 -22.881  0.00  0.00    +0.031 C 
ATOM     23  C   UNL     1      33.374  -5.083 -23.556  0.00  0.00    +0.017 C 
ATOM     24  C   UNL     1      31.000  -5.053 -22.999  0.00  0.00    +0.140 C 
ATOM     25  C   UNL     1      32.190  -4.377 -23.333  0.00  0.00    +0.031 C 
ATOM     26  H   UNL     1      35.299  -7.098 -23.847  0.00  0.00    +0.155 HD
ENDBRANCH  11  17
BRANCH   2  27
ATOM     27  C   UNL     1      34.171 -16.611 -23.213  0.00  0.00    +0.121 C 
BRANCH  27  28
ATOM     28  C   UNL     1      34.665 -17.489 -22.060  0.00  0.00    +0.110 C 
BRANCH  28  29
ATOM     29  O   UNL     1      36.089 -17.573 -22.140  0.00  0.00    -0.385 OA
ATOM     30  H   UNL     1      36.338 -18.353 -22.660  0.00  0.00    +0.210 HD
ENDBRANCH  28  29
BRANCH  28  31
ATOM     31  C   UNL     1      34.088 -18.909 -22.037  0.00  0.00    -0.045 C 
BRANCH  31  33
ATOM     32  O   UNL     1      33.997 -21.672 -18.878  0.00  0.00    -0.358 OA
ATOM     33  N   UNL     1      34.085 -19.478 -20.691  0.00  0.00    +0.392 N 
ATOM     34  C   UNL     1      35.244 -20.360 -20.494  0.00  0.00    -0.045 C 
ATOM     35  C   UNL     1      32.841 -20.219 -20.440  0.00  0.00    -0.045 C 
ATOM     36  C   UNL     1      35.213 -20.953 -19.089  0.00  0.00    +0.119 C 
ATOM     37  C   UNL     1      32.867 -20.814 -19.035  0.00  0.00    +0.119 C 
ATOM     38  H   UNL     1      34.146 -18.708 -20.025  0.00  0.00    -0.079 HD
ENDBRANCH  31  33
ENDBRANCH  28  31
ENDBRANCH  27  28
ENDBRANCH   2  27
TORSDOF 6
ENDMDL
MODEL 8
REMARK VINA RESULT:      -9.7      5.250     12.147
REMARK  Name = 25116064
REMARK  6 active torsions:
REMARK  status: ('A' for Active; 'I' for Inactive)
REMARK    1  A    between atoms: N_2  and  C_27
REMARK    2  A    between atoms: C_11  and  C_17
REMARK    3  A    between atoms: C_27  and  C_28
REMARK    4  A    between atoms: C_28  and  O_29
REMARK    5  A    between atoms: C_28  and  C_31
REMARK    6  A    between atoms: C_31  and  N_33
REMARK                            x       y       z     vdW  Elec       q    Type
REMARK                         _______ _______ _______ _____ _____    ______ ____
ROOT
ATOM      1  O   UNL     1      35.434 -17.166 -20.664  0.00  0.00    -0.270 OA
ATOM      2  N   UNL     1      34.207 -18.485 -22.139  0.00  0.00    -0.274 N 
ATOM      3  N   UNL     1      33.782 -14.721 -24.083  0.00  0.00    -0.357 N 
ATOM      4  C   UNL     1      33.066 -18.570 -23.058  0.00  0.00    +0.094 C 
ATOM      5  C   UNL     1      33.424 -18.300 -24.520  0.00  0.00    +0.028 C 
ATOM      6  C   UNL     1      34.311 -17.080 -24.774  0.00  0.00    +0.045 C 
ATOM      7  C   UNL     1      34.130 -16.007 -23.757  0.00  0.00    +0.038 A 
ATOM      8  C   UNL     1      34.310 -16.067 -22.385  0.00  0.00    +0.062 A 
ATOM      9  C   UNL     1      34.701 -17.262 -21.647  0.00  0.00    +0.250 C 
ATOM     10  C   UNL     1      34.113 -14.751 -21.886  0.00  0.00    -0.001 A 
ATOM     11  C   UNL     1      33.775 -13.947 -22.952  0.00  0.00    +0.053 A 
ATOM     12  C   UNL     1      34.224 -14.285 -20.488  0.00  0.00    +0.033 C 
ATOM     13  H   UNL     1      33.569 -14.403 -24.990  0.00  0.00    +0.166 HD
ENDROOT
BRANCH  11  17
ATOM     14  F   UNL     1      32.481  -7.148 -23.950  0.00  0.00    -0.204 F 
ATOM     15  O   UNL     1      31.542 -13.645 -21.043  0.00  0.00    -0.270 OA
ATOM     16  N   UNL     1      30.728 -11.427 -21.016  0.00  0.00    -0.280 N 
ATOM     17  C   UNL     1      33.450 -12.587 -23.092  0.00  0.00    +0.021 C 
ATOM     18  C   UNL     1      32.468 -11.875 -22.436  0.00  0.00    +0.056 C 
ATOM     19  C   UNL     1      32.121 -10.465 -22.572  0.00  0.00    +0.020 C 
ATOM     20  C   UNL     1      31.549 -12.486 -21.417  0.00  0.00    +0.250 C 
ATOM     21  C   UNL     1      31.060 -10.246 -21.689  0.00  0.00    +0.051 C 
ATOM     22  C   UNL     1      32.618  -9.434 -23.347  0.00  0.00    +0.031 C 
ATOM     23  C   UNL     1      30.461  -9.010 -21.544  0.00  0.00    +0.017 C 
ATOM     24  C   UNL     1      32.026  -8.173 -23.216  0.00  0.00    +0.140 C 
ATOM     25  C   UNL     1      30.957  -7.963 -22.323  0.00  0.00    +0.031 C 
ATOM     26  H   UNL     1      30.010 -11.504 -20.347  0.00  0.00    +0.155 HD
ENDBRANCH  11  17
BRANCH   2  27
ATOM     27  C   UNL     1      34.726 -19.741 -21.619  0.00  0.00    +0.121 C 
BRANCH  27  28
ATOM     28  C   UNL     1      34.491 -19.911 -20.117  0.00  0.00    +0.110 C 
BRANCH  28  29
ATOM     29  O   UNL     1      35.746 -19.778 -19.449  0.00  0.00    -0.385 OA
ATOM     30  H   UNL     1      36.402 -19.411 -20.064  0.00  0.00    +0.210 HD
ENDBRANCH  28  29
BRANCH  28  31
ATOM     31  C   UNL     1      33.854 -21.245 -19.710  0.00  0.00    -0.045 C 
BRANCH  31  33
ATOM     32  O   UNL     1      34.582 -23.145 -16.039  0.00  0.00    -0.358 OA
ATOM     33  N   UNL     1      33.968 -21.492 -18.274  0.00  0.00    +0.392 N 
ATOM     34  C   UNL     1      35.356 -21.804 -17.907  0.00  0.00    -0.045 C 
ATOM     35  C   UNL     1      33.080 -22.587 -17.861  0.00  0.00    -0.045 C 
ATOM     36  C   UNL     1      35.449 -22.071 -16.408  0.00  0.00    +0.119 C 
ATOM     37  C   UNL     1      33.226 -22.835 -16.362  0.00  0.00    +0.119 C 
ATOM     38  H   UNL     1      33.686 -20.642 -17.787  0.00  0.00    -0.079 HD
ENDBRANCH  31  33
ENDBRANCH  28  31
ENDBRANCH  27  28
ENDBRANCH   2  27
TORSDOF 6
ENDMDL
MODEL 9
REMARK VINA RESULT:      -9.5      2.247      3.629
REMARK  Name = 25116064
REMARK  6 active torsions:
REMARK  status: ('A' for Active; 'I' for Inactive)
REMARK    1  A    between atoms: N_2  and  C_27
REMARK    2  A    between atoms: C_11  and  C_17
REMARK    3  A    between atoms: C_27  and  C_28
REMARK    4  A    between atoms: C_28  and  O_29
REMARK    5  A    between atoms: C_28  and  C_31
REMARK    6  A    between atoms: C_31  and  N_33
REMARK                            x       y       z     vdW  Elec       q    Type
REMARK                         _______ _______ _______ _____ _____    ______ ____
ROOT
ATOM      1  O   UNL     1      33.373  -9.050 -23.639  0.00  0.00    -0.270 OA
ATOM      2  N   UNL     1      31.358  -8.882 -22.486  0.00  0.00    -0.274 N 
ATOM      3  N   UNL     1      32.211 -12.990 -21.761  0.00  0.00    -0.357 N 
ATOM      4  C   UNL     1      30.113  -9.543 -22.080  0.00  0.00    +0.094 C 
ATOM      5  C   UNL     1      30.175 -10.189 -20.694  0.00  0.00    +0.028 C 
ATOM      6  C   UNL     1      31.423 -11.025 -20.405  0.00  0.00    +0.045 C 
ATOM      7  C   UNL     1      32.008 -11.639 -21.628  0.00  0.00    +0.038 A 
ATOM      8  C   UNL     1      32.478 -11.021 -22.776  0.00  0.00    +0.062 A 
ATOM      9  C   UNL     1      32.457  -9.583 -23.016  0.00  0.00    +0.250 C 
ATOM     10  C   UNL     1      33.030 -12.042 -23.596  0.00  0.00    -0.001 A 
ATOM     11  C   UNL     1      32.838 -13.244 -22.953  0.00  0.00    +0.053 A 
ATOM     12  C   UNL     1      33.686 -11.892 -24.912  0.00  0.00    +0.033 C 
ATOM     13  H   UNL     1      31.945 -13.671 -21.103  0.00  0.00    +0.166 HD
ENDROOT
BRANCH  11  17
ATOM     14  F   UNL     1      34.166 -19.833 -24.884  0.00  0.00    -0.204 F 
ATOM     15  O   UNL     1      34.123 -14.176 -20.462  0.00  0.00    -0.270 OA
ATOM     16  N   UNL     1      34.777 -16.441 -20.628  0.00  0.00    -0.280 N 
ATOM     17  C   UNL     1      33.140 -14.582 -23.260  0.00  0.00    +0.021 C 
ATOM     18  C   UNL     1      33.757 -15.521 -22.459  0.00  0.00    +0.056 C 
ATOM     19  C   UNL     1      34.076 -16.910 -22.767  0.00  0.00    +0.020 C 
ATOM     20  C   UNL     1      34.221 -15.232 -21.060  0.00  0.00    +0.250 C 
ATOM     21  C   UNL     1      34.693 -17.422 -21.622  0.00  0.00    +0.051 C 
ATOM     22  C   UNL     1      33.887 -17.706 -23.881  0.00  0.00    +0.031 C 
ATOM     23  C   UNL     1      35.140 -18.726 -21.543  0.00  0.00    +0.017 C 
ATOM     24  C   UNL     1      34.332 -19.030 -23.823  0.00  0.00    +0.140 C 
ATOM     25  C   UNL     1      34.953 -19.536 -22.665  0.00  0.00    +0.031 C 
ATOM     26  H   UNL     1      35.174 -16.582 -19.739  0.00  0.00    +0.155 HD
ENDBRANCH  11  17
BRANCH   2  27
ATOM     27  C   UNL     1      31.363  -7.427 -22.468  0.00  0.00    +0.121 C 
BRANCH  27  28
ATOM     28  C   UNL     1      32.404  -6.844 -21.511  0.00  0.00    +0.110 C 
BRANCH  28  29
ATOM     29  O   UNL     1      32.113  -7.313 -20.193  0.00  0.00    -0.385 OA
ATOM     30  H   UNL     1      32.815  -7.029 -19.586  0.00  0.00    +0.210 HD
ENDBRANCH  28  29
BRANCH  28  31
ATOM     31  C   UNL     1      32.473  -5.313 -21.485  0.00  0.00    -0.045 C 
BRANCH  31  33
ATOM     32  O   UNL     1      31.964  -2.671 -24.706  0.00  0.00    -0.358 OA
ATOM     33  N   UNL     1      31.990  -4.720 -22.730  0.00  0.00    +0.392 N 
ATOM     34  C   UNL     1      33.087  -4.571 -23.697  0.00  0.00    -0.045 C 
ATOM     35  C   UNL     1      31.360  -3.416 -22.478  0.00  0.00    -0.045 C 
ATOM     36  C   UNL     1      32.563  -3.939 -24.983  0.00  0.00    +0.119 C 
ATOM     37  C   UNL     1      30.876  -2.812 -23.793  0.00  0.00    +0.119 C 
ATOM     38  H   UNL     1      31.291  -5.349 -23.125  0.00  0.00    -0.079 HD
ENDBRANCH  31  33
ENDBRANCH  28  31
ENDBRANCH  27  28
ENDBRANCH   2  27
TORSDOF 6
ENDMDL
