MODEL 1
REMARK VINA RESULT:     -11.6      0.000      0.000
REMARK  Name = 10298385
REMARK  4 active torsions:
REMARK  status: ('A' for Active; 'I' for Inactive)
REMARK    1  A    between atoms: C_1  and  C_21
REMARK    2  A    between atoms: C_2  and  C_16
REMARK    3  A    between atoms: C_21  and  N_24
REMARK    4  A    between atoms: C_25  and  C_33
REMARK                            x       y       z     vdW  Elec       q    Type
REMARK                         _______ _______ _______ _____ _____    ______ ____
ROOT
ATOM      1  C   UNL     1      35.354 -20.102 -19.995  0.00  0.00    -0.006 C 
ATOM      2  C   UNL     1      34.599 -17.576 -20.906  0.00  0.00    +0.054 C 
ATOM      3  C   UNL     1      34.005 -19.803 -20.180  0.00  0.00    -0.024 C 
ATOM      4  C   UNL     1      33.627 -18.539 -20.634  0.00  0.00    +0.000 C 
ATOM      5  C   UNL     1      36.326 -19.138 -20.265  0.00  0.00    -0.003 C 
ATOM      6  C   UNL     1      35.948 -17.875 -20.721  0.00  0.00    +0.004 C 
ATOM      7  C   UNL     1      32.946 -20.817 -19.895  0.00  0.00    +0.031 C 
ENDROOT
BRANCH   2  16
ATOM      8  O   UNL     1      33.808 -15.473 -20.508  0.00  0.00    -0.270 OA
ATOM      9  N   UNL     1      34.266 -15.987 -22.767  0.00  0.00    -0.255 N 
ATOM     10  C   UNL     1      33.631 -17.851 -24.285  0.00  0.00    +0.022 C 
ATOM     11  C   UNL     1      32.422 -17.055 -24.763  0.00  0.00    +0.006 C 
ATOM     12  C   UNL     1      34.752 -16.974 -23.743  0.00  0.00    +0.099 C 
ATOM     13  C   UNL     1      32.805 -15.760 -25.474  0.00  0.00    +0.028 C 
ATOM     14  C   UNL     1      33.183 -14.604 -24.565  0.00  0.00    -0.008 C 
ATOM     15  C   UNL     1      33.805 -14.725 -23.298  0.00  0.00    +0.050 C 
ATOM     16  C   UNL     1      34.201 -16.245 -21.383  0.00  0.00    +0.253 C 
ATOM     17  C   UNL     1      32.851 -13.318 -25.040  0.00  0.00    -0.003 C 
ATOM     18  C   UNL     1      34.032 -13.552 -22.548  0.00  0.00    +0.015 C 
ATOM     19  C   UNL     1      33.088 -12.175 -24.282  0.00  0.00    -0.000 C 
ATOM     20  C   UNL     1      33.674 -12.293 -23.031  0.00  0.00    +0.001 C 
ENDBRANCH   2  16
BRANCH   1  21
ATOM     21  C   UNL     1      35.783 -21.447 -19.509  0.00  0.00    +0.117 C 
BRANCH  21  24
ATOM     22  O   UNL     1      36.620 -21.854 -16.834  0.00  0.00    -0.253 OA
ATOM     23  N   UNL     1      34.511 -22.573 -16.217  0.00  0.00    -0.257 N 
ATOM     24  N   UNL     1      34.956 -21.928 -18.427  0.00  0.00    -0.285 N 
ATOM     25  C   UNL     1      34.802 -22.662 -14.792  0.00  0.00    +0.153 C 
ATOM     26  C   UNL     1      33.436 -22.753 -14.123  0.00  0.00    +0.031 C 
ATOM     27  C   UNL     1      32.569 -23.439 -15.176  0.00  0.00    +0.024 C 
ATOM     28  C   UNL     1      33.110 -22.888 -16.487  0.00  0.00    +0.095 C 
ATOM     29  C   UNL     1      35.448 -22.099 -17.138  0.00  0.00    +0.305 C 
ATOM     30  H   UNL     1      34.011 -22.140 -18.607  0.00  0.00    +0.151 HD
BRANCH  25  33
ATOM     31  O   UNL     1      35.390 -24.894 -15.289  0.00  0.00    -0.273 OA
ATOM     32  N   UNL     1      36.577 -23.864 -13.576  0.00  0.00    -0.275 N 
ATOM     33  C   UNL     1      35.610 -23.908 -14.581  0.00  0.00    +0.244 C 
ATOM     34  C   UNL     1      37.431 -25.003 -13.266  0.00  0.00    +0.115 C 
ATOM     35  C   UNL     1      36.804 -22.673 -12.762  0.00  0.00    +0.115 C 
ENDBRANCH  25  33
ENDBRANCH  21  24
ENDBRANCH   1  21
TORSDOF 4
ENDMDL
MODEL 2
REMARK VINA RESULT:     -11.5      2.422     10.546
REMARK  Name = 10298385
REMARK  4 active torsions:
REMARK  status: ('A' for Active; 'I' for Inactive)
REMARK    1  A    between atoms: C_1  and  C_21
REMARK    2  A    between atoms: C_2  and  C_16
REMARK    3  A    between atoms: C_21  and  N_24
REMARK    4  A    between atoms: C_25  and  C_33
REMARK                            x       y       z     vdW  Elec       q    Type
REMARK                         _______ _______ _______ _____ _____    ______ ____
ROOT
ATOM      1  C   UNL     1      34.480 -20.589 -19.798  0.00  0.00    -0.006 C 
ATOM      2  C   UNL     1      32.528 -21.633 -18.100  0.00  0.00    +0.054 C 
ATOM      3  C   UNL     1      34.855 -21.260 -18.634  0.00  0.00    -0.024 C 
ATOM      4  C   UNL     1      33.879 -21.780 -17.784  0.00  0.00    +0.000 C 
ATOM      5  C   UNL     1      33.129 -20.440 -20.113  0.00  0.00    -0.003 C 
ATOM      6  C   UNL     1      32.153 -20.962 -19.265  0.00  0.00    +0.004 C 
ATOM      7  C   UNL     1      36.294 -21.429 -18.274  0.00  0.00    +0.031 C 
ENDROOT
BRANCH   2  16
ATOM      8  O   UNL     1      30.385 -21.672 -17.319  0.00  0.00    -0.270 OA
ATOM      9  N   UNL     1      31.878 -23.185 -16.294  0.00  0.00    -0.255 N 
ATOM     10  C   UNL     1      34.128 -22.970 -15.257  0.00  0.00    +0.022 C 
ATOM     11  C   UNL     1      33.484 -22.758 -13.892  0.00  0.00    +0.006 C 
ATOM     12  C   UNL     1      33.241 -23.736 -16.229  0.00  0.00    +0.099 C 
ATOM     13  C   UNL     1      32.680 -23.967 -13.419  0.00  0.00    +0.028 C 
ATOM     14  C   UNL     1      31.298 -24.110 -14.029  0.00  0.00    -0.008 C 
ATOM     15  C   UNL     1      30.928 -23.697 -15.333  0.00  0.00    +0.050 C 
ATOM     16  C   UNL     1      31.500 -22.180 -17.205  0.00  0.00    +0.253 C 
ATOM     17  C   UNL     1      30.316 -24.683 -13.193  0.00  0.00    -0.003 C 
ATOM     18  C   UNL     1      29.581 -23.843 -15.725  0.00  0.00    +0.015 C 
ATOM     19  C   UNL     1      28.993 -24.819 -13.605  0.00  0.00    -0.000 C 
ATOM     20  C   UNL     1      28.624 -24.393 -14.872  0.00  0.00    +0.001 C 
ENDBRANCH   2  16
BRANCH   1  21
ATOM     21  C   UNL     1      35.507 -20.022 -20.722  0.00  0.00    +0.117 C 
BRANCH  21  24
ATOM     22  O   UNL     1      35.730 -17.200 -20.607  0.00  0.00    -0.253 OA
ATOM     23  N   UNL     1      34.477 -16.960 -22.534  0.00  0.00    -0.257 N 
ATOM     24  N   UNL     1      34.937 -19.088 -21.666  0.00  0.00    -0.285 N 
ATOM     25  C   UNL     1      34.668 -15.519 -22.649  0.00  0.00    +0.153 C 
ATOM     26  C   UNL     1      34.244 -15.186 -24.075  0.00  0.00    +0.031 C 
ATOM     27  C   UNL     1      33.193 -16.246 -24.391  0.00  0.00    +0.024 C 
ATOM     28  C   UNL     1      33.710 -17.479 -23.665  0.00  0.00    +0.095 C 
ATOM     29  C   UNL     1      35.096 -17.713 -21.534  0.00  0.00    +0.305 C 
ATOM     30  H   UNL     1      34.420 -19.437 -22.428  0.00  0.00    +0.151 HD
BRANCH  25  33
ATOM     31  O   UNL     1      33.468 -15.496 -20.617  0.00  0.00    -0.273 OA
ATOM     32  N   UNL     1      33.341 -13.575 -21.921  0.00  0.00    -0.275 N 
ATOM     33  C   UNL     1      33.774 -14.871 -21.636  0.00  0.00    +0.244 C 
ATOM     34  C   UNL     1      32.470 -12.829 -21.022  0.00  0.00    +0.115 C 
ATOM     35  C   UNL     1      33.730 -12.873 -23.140  0.00  0.00    +0.115 C 
ENDBRANCH  25  33
ENDBRANCH  21  24
ENDBRANCH   1  21
TORSDOF 4
ENDMDL
MODEL 3
REMARK VINA RESULT:     -10.9      3.507      7.051
REMARK  Name = 10298385
REMARK  4 active torsions:
REMARK  status: ('A' for Active; 'I' for Inactive)
REMARK    1  A    between atoms: C_1  and  C_21
REMARK    2  A    between atoms: C_2  and  C_16
REMARK    3  A    between atoms: C_21  and  N_24
REMARK    4  A    between atoms: C_25  and  C_33
REMARK                            x       y       z     vdW  Elec       q    Type
REMARK                         _______ _______ _______ _____ _____    ______ ____
ROOT
ATOM      1  C   UNL     1      33.525 -14.885 -23.968  0.00  0.00    -0.006 C 
ATOM      2  C   UNL     1      33.266 -12.142 -23.527  0.00  0.00    +0.054 C 
ATOM      3  C   UNL     1      33.824 -14.348 -22.716  0.00  0.00    -0.024 C 
ATOM      4  C   UNL     1      33.697 -12.977 -22.495  0.00  0.00    +0.000 C 
ATOM      5  C   UNL     1      33.096 -14.049 -24.999  0.00  0.00    -0.003 C 
ATOM      6  C   UNL     1      32.966 -12.678 -24.779  0.00  0.00    +0.004 C 
ATOM      7  C   UNL     1      34.288 -15.222 -21.596  0.00  0.00    +0.031 C 
ENDROOT
BRANCH   2  16
ATOM      8  O   UNL     1      34.038 -10.008 -23.762  0.00  0.00    -0.270 OA
ATOM      9  N   UNL     1      32.028 -10.243 -22.547  0.00  0.00    -0.255 N 
ATOM     10  C   UNL     1      31.315 -11.657 -20.630  0.00  0.00    +0.022 C 
ATOM     11  C   UNL     1      31.714 -10.552 -19.660  0.00  0.00    +0.006 C 
ATOM     12  C   UNL     1      30.988 -11.144 -22.026  0.00  0.00    +0.099 C 
ATOM     13  C   UNL     1      30.898  -9.274 -19.845  0.00  0.00    +0.028 C 
ATOM     14  C   UNL     1      31.326  -8.389 -21.001  0.00  0.00    -0.008 C 
ATOM     15  C   UNL     1      31.895  -8.843 -22.217  0.00  0.00    +0.050 C 
ATOM     16  C   UNL     1      33.132 -10.697 -23.295  0.00  0.00    +0.253 C 
ATOM     17  C   UNL     1      31.152  -7.002 -20.807  0.00  0.00    -0.003 C 
ATOM     18  C   UNL     1      32.299  -7.882 -23.168  0.00  0.00    +0.015 C 
ATOM     19  C   UNL     1      31.557  -6.074 -21.763  0.00  0.00    -0.000 C 
ATOM     20  C   UNL     1      32.136  -6.515 -22.943  0.00  0.00    +0.001 C 
ENDBRANCH   2  16
BRANCH   1  21
ATOM     21  C   UNL     1      33.655 -16.349 -24.228  0.00  0.00    +0.117 C 
BRANCH  21  24
ATOM     22  O   UNL     1      32.991 -18.887 -23.159  0.00  0.00    -0.253 OA
ATOM     23  N   UNL     1      34.759 -18.794 -21.673  0.00  0.00    -0.257 N 
ATOM     24  N   UNL     1      34.360 -17.032 -23.168  0.00  0.00    -0.285 N 
ATOM     25  C   UNL     1      34.594 -20.152 -21.171  0.00  0.00    +0.153 C 
ATOM     26  C   UNL     1      35.899 -20.456 -20.443  0.00  0.00    +0.031 C 
ATOM     27  C   UNL     1      36.361 -19.086 -19.955  0.00  0.00    +0.024 C 
ATOM     28  C   UNL     1      35.926 -18.150 -21.073  0.00  0.00    +0.095 C 
ATOM     29  C   UNL     1      33.966 -18.282 -22.702  0.00  0.00    +0.305 C 
ATOM     30  H   UNL     1      35.147 -16.600 -22.763  0.00  0.00    +0.151 HD
BRANCH  25  33
ATOM     31  O   UNL     1      32.679 -19.156 -20.216  0.00  0.00    -0.273 OA
ATOM     32  N   UNL     1      33.253 -21.268 -19.432  0.00  0.00    -0.275 N 
ATOM     33  C   UNL     1      33.423 -20.140 -20.235  0.00  0.00    +0.244 C 
ATOM     34  C   UNL     1      32.156 -21.388 -18.480  0.00  0.00    +0.115 C 
ATOM     35  C   UNL     1      34.159 -22.411 -19.488  0.00  0.00    +0.115 C 
ENDBRANCH  25  33
ENDBRANCH  21  24
ENDBRANCH   1  21
TORSDOF 4
ENDMDL
MODEL 4
REMARK VINA RESULT:     -10.2      1.263      2.193
REMARK  Name = 10298385
REMARK  4 active torsions:
REMARK  status: ('A' for Active; 'I' for Inactive)
REMARK    1  A    between atoms: C_1  and  C_21
REMARK    2  A    between atoms: C_2  and  C_16
REMARK    3  A    between atoms: C_21  and  N_24
REMARK    4  A    between atoms: C_25  and  C_33
REMARK                            x       y       z     vdW  Elec       q    Type
REMARK                         _______ _______ _______ _____ _____    ______ ____
ROOT
ATOM      1  C   UNL     1      35.694 -19.675 -20.332  0.00  0.00    -0.006 C 
ATOM      2  C   UNL     1      34.915 -17.655 -22.092  0.00  0.00    +0.054 C 
ATOM      3  C   UNL     1      34.360 -19.568 -20.725  0.00  0.00    -0.024 C 
ATOM      4  C   UNL     1      33.970 -18.558 -21.603  0.00  0.00    +0.000 C 
ATOM      5  C   UNL     1      36.639 -18.771 -20.819  0.00  0.00    -0.003 C 
ATOM      6  C   UNL     1      36.250 -17.762 -21.700  0.00  0.00    +0.004 C 
ATOM      7  C   UNL     1      33.330 -20.522 -20.214  0.00  0.00    +0.031 C 
ENDROOT
BRANCH   2  16
ATOM      8  O   UNL     1      34.992 -16.663 -24.145  0.00  0.00    -0.270 OA
ATOM      9  N   UNL     1      33.645 -15.585 -22.534  0.00  0.00    -0.255 N 
ATOM     10  C   UNL     1      34.010 -14.824 -20.195  0.00  0.00    +0.022 C 
ATOM     11  C   UNL     1      34.420 -13.447 -20.702  0.00  0.00    +0.006 C 
ATOM     12  C   UNL     1      33.109 -15.579 -21.163  0.00  0.00    +0.099 C 
ATOM     13  C   UNL     1      33.293 -12.723 -21.436  0.00  0.00    +0.028 C 
ATOM     14  C   UNL     1      33.063 -13.162 -22.870  0.00  0.00    -0.008 C 
ATOM     15  C   UNL     1      33.280 -14.468 -23.375  0.00  0.00    +0.050 C 
ATOM     16  C   UNL     1      34.505 -16.590 -23.017  0.00  0.00    +0.253 C 
ATOM     17  C   UNL     1      32.618 -12.156 -23.755  0.00  0.00    -0.003 C 
ATOM     18  C   UNL     1      33.078 -14.696 -24.753  0.00  0.00    +0.015 C 
ATOM     19  C   UNL     1      32.423 -12.408 -25.110  0.00  0.00    -0.000 C 
ATOM     20  C   UNL     1      32.659 -13.680 -25.610  0.00  0.00    +0.001 C 
ENDBRANCH   2  16
BRANCH   1  21
ATOM     21  C   UNL     1      36.135 -20.747 -19.391  0.00  0.00    +0.117 C 
BRANCH  21  24
ATOM     22  O   UNL     1      36.253 -21.628 -16.702  0.00  0.00    -0.253 OA
ATOM     23  N   UNL     1      34.016 -22.208 -16.727  0.00  0.00    -0.257 N 
ATOM     24  N   UNL     1      35.036 -21.294 -18.630  0.00  0.00    -0.285 N 
ATOM     25  C   UNL     1      33.938 -22.535 -15.309  0.00  0.00    +0.153 C 
ATOM     26  C   UNL     1      32.444 -22.582 -15.005  0.00  0.00    +0.031 C 
ATOM     27  C   UNL     1      31.825 -23.012 -16.331  0.00  0.00    +0.024 C 
ATOM     28  C   UNL     1      32.708 -22.334 -17.368  0.00  0.00    +0.095 C 
ATOM     29  C   UNL     1      35.181 -21.703 -17.309  0.00  0.00    +0.305 C 
ATOM     30  H   UNL     1      34.154 -21.379 -19.061  0.00  0.00    +0.151 HD
BRANCH  25  33
ATOM     31  O   UNL     1      34.291 -24.795 -15.894  0.00  0.00    -0.273 OA
ATOM     32  N   UNL     1      35.499 -23.990 -14.078  0.00  0.00    -0.275 N 
ATOM     33  C   UNL     1      34.586 -23.875 -15.126  0.00  0.00    +0.244 C 
ATOM     34  C   UNL     1      36.201 -25.234 -13.789  0.00  0.00    +0.115 C 
ATOM     35  C   UNL     1      35.819 -22.873 -13.194  0.00  0.00    +0.115 C 
ENDBRANCH  25  33
ENDBRANCH  21  24
ENDBRANCH   1  21
TORSDOF 4
ENDMDL
MODEL 5
REMARK VINA RESULT:      -9.7      6.277     14.339
REMARK  Name = 10298385
REMARK  4 active torsions:
REMARK  status: ('A' for Active; 'I' for Inactive)
REMARK    1  A    between atoms: C_1  and  C_21
REMARK    2  A    between atoms: C_2  and  C_16
REMARK    3  A    between atoms: C_21  and  N_24
REMARK    4  A    between atoms: C_25  and  C_33
REMARK                            x       y       z     vdW  Elec       q    Type
REMARK                         _______ _______ _______ _____ _____    ______ ____
ROOT
ATOM      1  C   UNL     1      31.734  -9.730 -22.561  0.00  0.00    -0.006 C 
ATOM      2  C   UNL     1      32.998 -12.144 -21.958  0.00  0.00    +0.054 C 
ATOM      3  C   UNL     1      31.355 -10.452 -21.429  0.00  0.00    -0.024 C 
ATOM      4  C   UNL     1      31.986 -11.660 -21.128  0.00  0.00    +0.000 C 
ATOM      5  C   UNL     1      32.744 -10.216 -23.391  0.00  0.00    -0.003 C 
ATOM      6  C   UNL     1      33.377 -11.422 -23.090  0.00  0.00    +0.004 C 
ATOM      7  C   UNL     1      30.274  -9.955 -20.526  0.00  0.00    +0.031 C 
ENDROOT
BRANCH   2  16
ATOM      8  O   UNL     1      34.440 -13.374 -20.690  0.00  0.00    -0.270 OA
ATOM      9  N   UNL     1      33.386 -14.530 -22.458  0.00  0.00    -0.255 N 
ATOM     10  C   UNL     1      33.106 -14.098 -24.891  0.00  0.00    +0.022 C 
ATOM     11  C   UNL     1      34.368 -14.902 -25.183  0.00  0.00    +0.006 C 
ATOM     12  C   UNL     1      32.435 -14.487 -23.580  0.00  0.00    +0.099 C 
ATOM     13  C   UNL     1      34.244 -16.370 -24.781  0.00  0.00    +0.028 C 
ATOM     14  C   UNL     1      34.426 -16.658 -23.302  0.00  0.00    -0.008 C 
ATOM     15  C   UNL     1      34.077 -15.781 -22.245  0.00  0.00    +0.050 C 
ATOM     16  C   UNL     1      33.662 -13.415 -21.642  0.00  0.00    +0.253 C 
ATOM     17  C   UNL     1      35.016 -17.901 -22.988  0.00  0.00    -0.003 C 
ATOM     18  C   UNL     1      34.371 -16.175 -20.923  0.00  0.00    +0.015 C 
ATOM     19  C   UNL     1      35.293 -18.267 -21.674  0.00  0.00    -0.000 C 
ATOM     20  C   UNL     1      34.975 -17.400 -20.640  0.00  0.00    +0.001 C 
ENDBRANCH   2  16
BRANCH   1  21
ATOM     21  C   UNL     1      31.072  -8.437 -22.904  0.00  0.00    +0.117 C 
BRANCH  21  24
ATOM     22  O   UNL     1      31.098  -5.604 -22.888  0.00  0.00    -0.253 OA
ATOM     23  N   UNL     1      32.740  -5.548 -24.514  0.00  0.00    -0.257 N 
ATOM     24  N   UNL     1      31.912  -7.593 -23.722  0.00  0.00    -0.285 N 
ATOM     25  C   UNL     1      32.939  -4.105 -24.465  0.00  0.00    +0.153 C 
ATOM     26  C   UNL     1      34.260  -3.872 -25.190  0.00  0.00    +0.031 C 
ATOM     27  C   UNL     1      34.321  -5.018 -26.194  0.00  0.00    +0.024 C 
ATOM     28  C   UNL     1      33.674  -6.175 -25.447  0.00  0.00    +0.095 C 
ATOM     29  C   UNL     1      31.861  -6.205 -23.651  0.00  0.00    +0.305 C 
ATOM     30  H   UNL     1      32.542  -8.015 -24.351  0.00  0.00    +0.151 HD
BRANCH  25  33
ATOM     31  O   UNL     1      31.528  -3.836 -26.339  0.00  0.00    -0.273 OA
ATOM     32  N   UNL     1      31.072  -2.497 -24.494  0.00  0.00    -0.275 N 
ATOM     33  C   UNL     1      31.787  -3.473 -25.189  0.00  0.00    +0.244 C 
ATOM     34  C   UNL     1      29.931  -1.804 -25.079  0.00  0.00    +0.115 C 
ATOM     35  C   UNL     1      31.414  -2.099 -23.132  0.00  0.00    +0.115 C 
ENDBRANCH  25  33
ENDBRANCH  21  24
ENDBRANCH   1  21
TORSDOF 4
ENDMDL
MODEL 6
REMARK VINA RESULT:      -9.7      5.518     10.374
REMARK  Name = 10298385
REMARK  4 active torsions:
REMARK  status: ('A' for Active; 'I' for Inactive)
REMARK    1  A    between atoms: C_1  and  C_21
REMARK    2  A    between atoms: C_2  and  C_16
REMARK    3  A    between atoms: C_21  and  N_24
REMARK    4  A    between atoms: C_25  and  C_33
REMARK                            x       y       z     vdW  Elec       q    Type
REMARK                         _______ _______ _______ _____ _____    ______ ____
ROOT
ATOM      1  C   UNL     1      32.033 -10.828 -21.426  0.00  0.00    -0.006 C 
ATOM      2  C   UNL     1      31.408  -8.303 -22.433  0.00  0.00    +0.054 C 
ATOM      3  C   UNL     1      31.558  -9.835 -20.571  0.00  0.00    -0.024 C 
ATOM      4  C   UNL     1      31.247  -8.571 -21.073  0.00  0.00    +0.000 C 
ATOM      5  C   UNL     1      32.195 -10.559 -22.785  0.00  0.00    -0.003 C 
ATOM      6  C   UNL     1      31.882  -9.296 -23.289  0.00  0.00    +0.004 C 
ATOM      7  C   UNL     1      31.379 -10.098 -19.111  0.00  0.00    +0.031 C 
ENDROOT
BRANCH   2  16
ATOM      8  O   UNL     1      29.902  -6.812 -23.278  0.00  0.00    -0.270 OA
ATOM      9  N   UNL     1      32.124  -6.034 -23.096  0.00  0.00    -0.255 N 
ATOM     10  C   UNL     1      34.334  -6.911 -23.823  0.00  0.00    +0.022 C 
ATOM     11  C   UNL     1      34.220  -6.129 -25.127  0.00  0.00    +0.006 C 
ATOM     12  C   UNL     1      33.510  -6.315 -22.690  0.00  0.00    +0.099 C 
ATOM     13  C   UNL     1      34.176  -4.618 -24.913  0.00  0.00    +0.028 C 
ATOM     14  C   UNL     1      32.831  -4.060 -24.482  0.00  0.00    -0.008 C 
ATOM     15  C   UNL     1      31.873  -4.742 -23.692  0.00  0.00    +0.050 C 
ATOM     16  C   UNL     1      31.081  -6.972 -22.963  0.00  0.00    +0.253 C 
ATOM     17  C   UNL     1      32.531  -2.760 -24.944  0.00  0.00    -0.003 C 
ATOM     18  C   UNL     1      30.642  -4.104 -23.432  0.00  0.00    +0.015 C 
ATOM     19  C   UNL     1      31.309  -2.152 -24.672  0.00  0.00    -0.000 C 
ATOM     20  C   UNL     1      30.361  -2.828 -23.919  0.00  0.00    +0.001 C 
ENDBRANCH   2  16
BRANCH   1  21
ATOM     21  C   UNL     1      32.374 -12.187 -20.911  0.00  0.00    +0.117 C 
BRANCH  21  24
ATOM     22  O   UNL     1      33.063 -14.916 -20.591  0.00  0.00    -0.253 OA
ATOM     23  N   UNL     1      33.384 -15.167 -22.866  0.00  0.00    -0.257 N 
ATOM     24  N   UNL     1      32.734 -13.100 -21.971  0.00  0.00    -0.285 N 
ATOM     25  C   UNL     1      33.595 -16.609 -22.821  0.00  0.00    +0.153 C 
ATOM     26  C   UNL     1      33.448 -17.066 -24.268  0.00  0.00    +0.031 C 
ATOM     27  C   UNL     1      33.900 -15.851 -25.073  0.00  0.00    +0.024 C 
ATOM     28  C   UNL     1      33.405 -14.676 -24.242  0.00  0.00    +0.095 C 
ATOM     29  C   UNL     1      33.059 -14.429 -21.725  0.00  0.00    +0.305 C 
ATOM     30  H   UNL     1      32.748 -12.770 -22.899  0.00  0.00    +0.151 HD
BRANCH  25  33
ATOM     31  O   UNL     1      35.855 -15.993 -22.526  0.00  0.00    -0.273 OA
ATOM     32  N   UNL     1      35.197 -18.016 -21.587  0.00  0.00    -0.275 N 
ATOM     33  C   UNL     1      34.983 -16.838 -22.303  0.00  0.00    +0.244 C 
ATOM     34  C   UNL     1      36.497 -18.362 -21.027  0.00  0.00    +0.115 C 
ATOM     35  C   UNL     1      34.134 -18.987 -21.345  0.00  0.00    +0.115 C 
ENDBRANCH  25  33
ENDBRANCH  21  24
ENDBRANCH   1  21
TORSDOF 4
ENDMDL
MODEL 7
REMARK VINA RESULT:      -9.6      1.418      2.332
REMARK  Name = 10298385
REMARK  4 active torsions:
REMARK  status: ('A' for Active; 'I' for Inactive)
REMARK    1  A    between atoms: C_1  and  C_21
REMARK    2  A    between atoms: C_2  and  C_16
REMARK    3  A    between atoms: C_21  and  N_24
REMARK    4  A    between atoms: C_25  and  C_33
REMARK                            x       y       z     vdW  Elec       q    Type
REMARK                         _______ _______ _______ _____ _____    ______ ____
ROOT
ATOM      1  C   UNL     1      35.151 -20.161 -20.086  0.00  0.00    -0.006 C 
ATOM      2  C   UNL     1      34.476 -17.564 -20.849  0.00  0.00    +0.054 C 
ATOM      3  C   UNL     1      33.812 -19.809 -20.252  0.00  0.00    -0.024 C 
ATOM      4  C   UNL     1      33.474 -18.510 -20.632  0.00  0.00    +0.000 C 
ATOM      5  C   UNL     1      36.153 -19.214 -20.302  0.00  0.00    -0.003 C 
ATOM      6  C   UNL     1      35.815 -17.916 -20.684  0.00  0.00    +0.004 C 
ATOM      7  C   UNL     1      32.722 -20.804 -20.023  0.00  0.00    +0.031 C 
ENDROOT
BRANCH   2  16
ATOM      8  O   UNL     1      33.697 -15.480 -20.341  0.00  0.00    -0.270 OA
ATOM      9  N   UNL     1      34.255 -15.843 -22.606  0.00  0.00    -0.255 N 
ATOM     10  C   UNL     1      33.666 -17.584 -24.281  0.00  0.00    +0.022 C 
ATOM     11  C   UNL     1      32.493 -16.736 -24.757  0.00  0.00    +0.006 C 
ATOM     12  C   UNL     1      34.773 -16.768 -23.627  0.00  0.00    +0.099 C 
ATOM     13  C   UNL     1      32.928 -15.401 -25.356  0.00  0.00    +0.028 C 
ATOM     14  C   UNL     1      33.278 -14.319 -24.351  0.00  0.00    -0.008 C 
ATOM     15  C   UNL     1      33.838 -14.539 -23.068  0.00  0.00    +0.050 C 
ATOM     16  C   UNL     1      34.120 -16.196 -21.249  0.00  0.00    +0.253 C 
ATOM     17  C   UNL     1      32.988 -12.996 -24.749  0.00  0.00    -0.003 C 
ATOM     18  C   UNL     1      34.045 -13.425 -22.227  0.00  0.00    +0.015 C 
ATOM     19  C   UNL     1      33.205 -11.913 -23.900  0.00  0.00    -0.000 C 
ATOM     20  C   UNL     1      33.729 -12.129 -22.635  0.00  0.00    +0.001 C 
ENDBRANCH   2  16
BRANCH   1  21
ATOM     21  C   UNL     1      35.537 -21.544 -19.678  0.00  0.00    +0.117 C 
BRANCH  21  24
ATOM     22  O   UNL     1      33.631 -23.169 -18.356  0.00  0.00    -0.253 OA
ATOM     23  N   UNL     1      34.517 -22.635 -16.289  0.00  0.00    -0.257 N 
ATOM     24  N   UNL     1      35.438 -21.742 -18.251  0.00  0.00    -0.285 N 
ATOM     25  C   UNL     1      33.685 -23.564 -15.533  0.00  0.00    +0.153 C 
ATOM     26  C   UNL     1      34.361 -23.667 -14.171  0.00  0.00    +0.031 C 
ATOM     27  C   UNL     1      35.030 -22.306 -14.001  0.00  0.00    +0.024 C 
ATOM     28  C   UNL     1      35.469 -21.952 -15.414  0.00  0.00    +0.095 C 
ATOM     29  C   UNL     1      34.468 -22.561 -17.682  0.00  0.00    +0.305 C 
ATOM     30  H   UNL     1      36.079 -21.283 -17.661  0.00  0.00    +0.151 HD
BRANCH  25  33
ATOM     31  O   UNL     1      32.020 -22.021 -16.183  0.00  0.00    -0.273 OA
ATOM     32  N   UNL     1      31.460 -23.498 -14.478  0.00  0.00    -0.275 N 
ATOM     33  C   UNL     1      32.319 -22.954 -15.433  0.00  0.00    +0.244 C 
ATOM     34  C   UNL     1      30.105 -23.002 -14.276  0.00  0.00    +0.115 C 
ATOM     35  C   UNL     1      31.856 -24.605 -13.611  0.00  0.00    +0.115 C 
ENDBRANCH  25  33
ENDBRANCH  21  24
ENDBRANCH   1  21
TORSDOF 4
ENDMDL
