MODEL 1
REMARK VINA RESULT:     -13.7      0.000      0.000
REMARK  Name = 9808844
REMARK  5 active torsions:
REMARK  status: ('A' for Active; 'I' for Inactive)
REMARK    1  A    between atoms: N_2  and  C_13
REMARK    2  A    between atoms: C_8  and  O_19
REMARK    3  A    between atoms: O_19  and  C_20
REMARK    4  A    between atoms: C_20  and  C_22
REMARK    5  A    between atoms: C_25  and  C_29
REMARK                            x       y       z     vdW  Elec       q    Type
REMARK                         _______ _______ _______ _____ _____    ______ ____
ROOT
ATOM      1  O   UNL     1      34.941 -22.505 -17.020  0.00  0.00    -0.446 OA
ATOM      2  N   UNL     1      35.102 -19.327 -20.472  0.00  0.00    -0.296 N 
ATOM      3  N   UNL     1      33.061 -20.463 -19.964  0.00  0.00    -0.130 NA
ATOM      4  N   UNL     1      32.311 -21.374 -19.232  0.00  0.00    -0.106 NA
ATOM      5  C   UNL     1      34.977 -20.983 -18.688  0.00  0.00    +0.076 A 
ATOM      6  C   UNL     1      34.197 -21.885 -17.977  0.00  0.00    +0.202 A 
ATOM      7  C   UNL     1      34.374 -20.258 -19.711  0.00  0.00    +0.157 A 
ATOM      8  C   UNL     1      32.859 -22.095 -18.234  0.00  0.00    +0.279 A 
ATOM      9  C   UNL     1      36.276 -21.066 -18.121  0.00  0.00    +0.047 C 
ATOM     10  C   UNL     1      36.200 -22.001 -17.115  0.00  0.00    +0.180 C 
ATOM     11  H   UNL     1      36.047 -19.254 -20.207  0.00  0.00    +0.154 HD
ENDROOT
BRANCH   2  13
ATOM     12 CL   UNL     1      33.616 -15.756 -24.955  0.00  0.00    -0.082 Cl
ATOM     13  C   UNL     1      34.748 -18.476 -21.541  0.00  0.00    +0.049 C 
ATOM     14  C   UNL     1      34.234 -19.015 -22.720  0.00  0.00    +0.016 C 
ATOM     15  C   UNL     1      34.911 -17.096 -21.416  0.00  0.00    +0.016 C 
ATOM     16  C   UNL     1      33.884 -18.174 -23.776  0.00  0.00    +0.013 C 
ATOM     17  C   UNL     1      34.561 -16.255 -22.472  0.00  0.00    +0.013 C 
ATOM     18  C   UNL     1      34.047 -16.794 -23.651  0.00  0.00    +0.058 C 
ENDBRANCH   2  13
BRANCH   8  19
ATOM     19  O   UNL     1      32.082 -22.983 -17.538  0.00  0.00    -0.452 OA
BRANCH  19  20
ATOM     20  C   UNL     1      31.205 -22.437 -16.560  0.00  0.00    +0.234 C 
BRANCH  20  22
ATOM     21  N   UNL     1      31.779 -24.515 -12.855  0.00  0.00    -0.239 NA
ATOM     22  C   UNL     1      31.407 -23.165 -15.262  0.00  0.00    +0.024 C 
ATOM     23  C   UNL     1      32.621 -23.074 -14.603  0.00  0.00    +0.023 C 
ATOM     24  C   UNL     1      30.376 -23.924 -14.732  0.00  0.00    +0.020 C 
ATOM     25  C   UNL     1      32.756 -23.763 -13.408  0.00  0.00    +0.134 C 
ATOM     26  C   UNL     1      30.611 -24.576 -13.532  0.00  0.00    +0.099 C 
BRANCH  25  29
ATOM     27  O   UNL     1      34.135 -24.334 -11.599  0.00  0.00    -0.268 OA
ATOM     28  N   UNL     1      35.041 -22.948 -13.222  0.00  0.00    -0.298 N 
ATOM     29  C   UNL     1      34.004 -23.708 -12.667  0.00  0.00    +0.264 C 
ATOM     30  C   UNL     1      36.348 -22.815 -12.617  0.00  0.00    +0.111 C 
ATOM     31  H   UNL     1      34.872 -22.479 -14.070  0.00  0.00    +0.150 HD
ENDBRANCH  25  29
ENDBRANCH  20  22
ENDBRANCH  19  20
ENDBRANCH   8  19
TORSDOF 5
ENDMDL
MODEL 2
REMARK VINA RESULT:     -12.6      2.454      4.100
REMARK  Name = 9808844
REMARK  5 active torsions:
REMARK  status: ('A' for Active; 'I' for Inactive)
REMARK    1  A    between atoms: N_2  and  C_13
REMARK    2  A    between atoms: C_8  and  O_19
REMARK    3  A    between atoms: O_19  and  C_20
REMARK    4  A    between atoms: C_20  and  C_22
REMARK    5  A    between atoms: C_25  and  C_29
REMARK                            x       y       z     vdW  Elec       q    Type
REMARK                         _______ _______ _______ _____ _____    ______ ____
ROOT
ATOM      1  O   UNL     1      35.961 -22.964 -15.204  0.00  0.00    -0.446 OA
ATOM      2  N   UNL     1      35.925 -20.310 -19.076  0.00  0.00    -0.296 N 
ATOM      3  N   UNL     1      33.944 -21.440 -18.363  0.00  0.00    -0.130 NA
ATOM      4  N   UNL     1      33.246 -22.266 -17.490  0.00  0.00    -0.106 NA
ATOM      5  C   UNL     1      35.902 -21.696 -17.072  0.00  0.00    +0.076 A 
ATOM      6  C   UNL     1      35.174 -22.517 -16.221  0.00  0.00    +0.202 A 
ATOM      7  C   UNL     1      35.251 -21.149 -18.172  0.00  0.00    +0.157 A 
ATOM      8  C   UNL     1      33.842 -22.814 -16.413  0.00  0.00    +0.279 A 
ATOM      9  C   UNL     1      37.214 -21.646 -16.530  0.00  0.00    +0.047 C 
ATOM     10  C   UNL     1      37.196 -22.430 -15.399  0.00  0.00    +0.180 C 
ATOM     11  H   UNL     1      36.871 -20.163 -18.847  0.00  0.00    +0.154 HD
ENDROOT
BRANCH   2  13
ATOM     12 CL   UNL     1      34.208 -17.479 -23.984  0.00  0.00    -0.082 Cl
ATOM     13  C   UNL     1      35.516 -19.635 -20.246  0.00  0.00    +0.049 C 
ATOM     14  C   UNL     1      36.389 -18.754 -20.884  0.00  0.00    +0.016 C 
ATOM     15  C   UNL     1      34.239 -19.850 -20.764  0.00  0.00    +0.016 C 
ATOM     16  C   UNL     1      35.984 -18.088 -22.040  0.00  0.00    +0.013 C 
ATOM     17  C   UNL     1      33.834 -19.183 -21.920  0.00  0.00    +0.013 C 
ATOM     18  C   UNL     1      34.707 -18.303 -22.558  0.00  0.00    +0.058 C 
ENDBRANCH   2  13
BRANCH   8  19
ATOM     19  O   UNL     1      33.116 -23.623 -15.580  0.00  0.00    -0.452 OA
BRANCH  19  20
ATOM     20  C   UNL     1      32.303 -22.976 -14.607  0.00  0.00    +0.234 C 
BRANCH  20  22
ATOM     21  N   UNL     1      28.316 -24.527 -14.863  0.00  0.00    -0.239 NA
ATOM     22  C   UNL     1      30.906 -23.519 -14.697  0.00  0.00    +0.024 C 
ATOM     23  C   UNL     1      29.986 -22.915 -15.537  0.00  0.00    +0.023 C 
ATOM     24  C   UNL     1      30.546 -24.621 -13.937  0.00  0.00    +0.020 C 
ATOM     25  C   UNL     1      28.711 -23.455 -15.585  0.00  0.00    +0.134 C 
ATOM     26  C   UNL     1      29.246 -25.084 -14.056  0.00  0.00    +0.099 C 
BRANCH  25  29
ATOM     27  O   UNL     1      27.591 -23.230 -17.633  0.00  0.00    -0.268 OA
ATOM     28  N   UNL     1      26.851 -21.912 -15.874  0.00  0.00    -0.298 N 
ATOM     29  C   UNL     1      27.699 -22.869 -16.446  0.00  0.00    +0.264 C 
ATOM     30  C   UNL     1      25.783 -21.257 -16.594  0.00  0.00    +0.111 C 
ATOM     31  H   UNL     1      26.991 -21.672 -14.930  0.00  0.00    +0.150 HD
ENDBRANCH  25  29
ENDBRANCH  20  22
ENDBRANCH  19  20
ENDBRANCH   8  19
TORSDOF 5
ENDMDL
MODEL 3
REMARK VINA RESULT:     -12.4      4.606     10.146
REMARK  Name = 9808844
REMARK  5 active torsions:
REMARK  status: ('A' for Active; 'I' for Inactive)
REMARK    1  A    between atoms: N_2  and  C_13
REMARK    2  A    between atoms: C_8  and  O_19
REMARK    3  A    between atoms: O_19  and  C_20
REMARK    4  A    between atoms: C_20  and  C_22
REMARK    5  A    between atoms: C_25  and  C_29
REMARK                            x       y       z     vdW  Elec       q    Type
REMARK                         _______ _______ _______ _____ _____    ______ ____
ROOT
ATOM      1  O   UNL     1      32.996 -19.843 -20.871  0.00  0.00    -0.446 OA
ATOM      2  N   UNL     1      34.538 -22.114 -17.062  0.00  0.00    -0.296 N 
ATOM      3  N   UNL     1      36.058 -20.891 -18.442  0.00  0.00    -0.130 NA
ATOM      4  N   UNL     1      36.352 -20.093 -19.541  0.00  0.00    -0.106 NA
ATOM      5  C   UNL     1      33.777 -20.922 -19.047  0.00  0.00    +0.076 A 
ATOM      6  C   UNL     1      34.107 -20.125 -20.135  0.00  0.00    +0.202 A 
ATOM      7  C   UNL     1      34.798 -21.308 -18.184  0.00  0.00    +0.157 A 
ATOM      8  C   UNL     1      35.391 -19.699 -20.400  0.00  0.00    +0.279 A 
ATOM      9  C   UNL     1      32.376 -21.133 -19.134  0.00  0.00    +0.047 C 
ATOM     10  C   UNL     1      31.952 -20.458 -20.256  0.00  0.00    +0.180 C 
ATOM     11  H   UNL     1      33.590 -22.362 -16.966  0.00  0.00    +0.154 HD
ENDROOT
BRANCH   2  13
ATOM     12 CL   UNL     1      38.008 -24.314 -12.799  0.00  0.00    -0.082 Cl
ATOM     13  C   UNL     1      35.365 -22.639 -16.046  0.00  0.00    +0.049 C 
ATOM     14  C   UNL     1      34.835 -23.513 -15.098  0.00  0.00    +0.016 C 
ATOM     15  C   UNL     1      36.712 -22.282 -15.991  0.00  0.00    +0.016 C 
ATOM     16  C   UNL     1      35.652 -24.032 -14.094  0.00  0.00    +0.013 C 
ATOM     17  C   UNL     1      37.530 -22.801 -14.987  0.00  0.00    +0.013 C 
ATOM     18  C   UNL     1      36.999 -23.675 -14.039  0.00  0.00    +0.058 C 
ENDBRANCH   2  13
BRANCH   8  19
ATOM     19  O   UNL     1      35.725 -18.913 -21.471  0.00  0.00    -0.452 OA
BRANCH  19  20
ATOM     20  C   UNL     1      35.290 -17.559 -21.432  0.00  0.00    +0.234 C 
BRANCH  20  22
ATOM     21  N   UNL     1      33.064 -16.707 -24.995  0.00  0.00    -0.239 NA
ATOM     22  C   UNL     1      34.510 -17.260 -22.680  0.00  0.00    +0.024 C 
ATOM     23  C   UNL     1      34.270 -15.945 -23.044  0.00  0.00    +0.023 C 
ATOM     24  C   UNL     1      34.035 -18.302 -23.460  0.00  0.00    +0.020 C 
ATOM     25  C   UNL     1      33.546 -15.723 -24.204  0.00  0.00    +0.134 C 
ATOM     26  C   UNL     1      33.321 -17.975 -24.601  0.00  0.00    +0.099 C 
BRANCH  25  29
ATOM     27  O   UNL     1      33.002 -14.128 -25.835  0.00  0.00    -0.268 OA
ATOM     28  N   UNL     1      33.269 -13.367 -23.661  0.00  0.00    -0.298 N 
ATOM     29  C   UNL     1      33.261 -14.368 -24.641  0.00  0.00    +0.264 C 
ATOM     30  C   UNL     1      32.981 -11.977 -23.935  0.00  0.00    +0.111 C 
ATOM     31  H   UNL     1      33.481 -13.625 -22.736  0.00  0.00    +0.150 HD
ENDBRANCH  25  29
ENDBRANCH  20  22
ENDBRANCH  19  20
ENDBRANCH   8  19
TORSDOF 5
ENDMDL
MODEL 4
REMARK VINA RESULT:     -12.3      2.286      3.785
REMARK  Name = 9808844
REMARK  5 active torsions:
REMARK  status: ('A' for Active; 'I' for Inactive)
REMARK    1  A    between atoms: N_2  and  C_13
REMARK    2  A    between atoms: C_8  and  O_19
REMARK    3  A    between atoms: O_19  and  C_20
REMARK    4  A    between atoms: C_20  and  C_22
REMARK    5  A    between atoms: C_25  and  C_29
REMARK                            x       y       z     vdW  Elec       q    Type
REMARK                         _______ _______ _______ _____ _____    ______ ____
ROOT
ATOM      1  O   UNL     1      34.861 -22.074 -17.976  0.00  0.00    -0.446 OA
ATOM      2  N   UNL     1      34.925 -18.703 -21.243  0.00  0.00    -0.296 N 
ATOM      3  N   UNL     1      32.870 -19.757 -20.630  0.00  0.00    -0.130 NA
ATOM      4  N   UNL     1      32.130 -20.671 -19.890  0.00  0.00    -0.106 NA
ATOM      5  C   UNL     1      34.850 -20.456 -19.552  0.00  0.00    +0.076 A 
ATOM      6  C   UNL     1      34.079 -21.357 -18.830  0.00  0.00    +0.202 A 
ATOM      7  C   UNL     1      34.209 -19.638 -20.477  0.00  0.00    +0.157 A 
ATOM      8  C   UNL     1      32.715 -21.480 -18.985  0.00  0.00    +0.279 A 
ATOM      9  C   UNL     1      36.183 -20.643 -19.102  0.00  0.00    +0.047 C 
ATOM     10  C   UNL     1      36.135 -21.633 -18.148  0.00  0.00    +0.180 C 
ATOM     11  H   UNL     1      35.891 -18.696 -21.055  0.00  0.00    +0.154 HD
ENDROOT
BRANCH   2  13
ATOM     12 CL   UNL     1      33.289 -14.789 -25.373  0.00  0.00    -0.082 Cl
ATOM     13  C   UNL     1      34.535 -17.769 -22.227  0.00  0.00    +0.049 C 
ATOM     14  C   UNL     1      34.719 -16.405 -22.006  0.00  0.00    +0.016 C 
ATOM     15  C   UNL     1      33.967 -18.213 -23.421  0.00  0.00    +0.016 C 
ATOM     16  C   UNL     1      34.334 -15.483 -22.979  0.00  0.00    +0.013 C 
ATOM     17  C   UNL     1      33.582 -17.291 -24.394  0.00  0.00    +0.013 C 
ATOM     18  C   UNL     1      33.765 -15.926 -24.173  0.00  0.00    +0.058 C 
ENDBRANCH   2  13
BRANCH   8  19
ATOM     19  O   UNL     1      31.947 -22.367 -18.278  0.00  0.00    -0.452 OA
BRANCH  19  20
ATOM     20  C   UNL     1      32.466 -22.811 -17.029  0.00  0.00    +0.234 C 
BRANCH  20  22
ATOM     21  N   UNL     1      29.358 -22.641 -14.082  0.00  0.00    -0.239 NA
ATOM     22  C   UNL     1      31.377 -22.751 -15.997  0.00  0.00    +0.024 C 
ATOM     23  C   UNL     1      30.090 -22.405 -16.373  0.00  0.00    +0.023 C 
ATOM     24  C   UNL     1      31.667 -23.041 -14.673  0.00  0.00    +0.020 C 
ATOM     25  C   UNL     1      29.121 -22.365 -15.383  0.00  0.00    +0.134 C 
ATOM     26  C   UNL     1      30.629 -22.972 -13.759  0.00  0.00    +0.099 C 
BRANCH  25  29
ATOM     27  O   UNL     1      26.954 -21.667 -14.820  0.00  0.00    -0.268 OA
ATOM     28  N   UNL     1      27.389 -22.053 -17.064  0.00  0.00    -0.298 N 
ATOM     29  C   UNL     1      27.751 -22.011 -15.712  0.00  0.00    +0.264 C 
ATOM     30  C   UNL     1      26.074 -21.707 -17.552  0.00  0.00    +0.111 C 
ATOM     31  H   UNL     1      28.069 -22.333 -17.719  0.00  0.00    +0.150 HD
ENDBRANCH  25  29
ENDBRANCH  20  22
ENDBRANCH  19  20
ENDBRANCH   8  19
TORSDOF 5
ENDMDL
MODEL 5
REMARK VINA RESULT:     -12.3      5.893     10.943
REMARK  Name = 9808844
REMARK  5 active torsions:
REMARK  status: ('A' for Active; 'I' for Inactive)
REMARK    1  A    between atoms: N_2  and  C_13
REMARK    2  A    between atoms: C_8  and  O_19
REMARK    3  A    between atoms: O_19  and  C_20
REMARK    4  A    between atoms: C_20  and  C_22
REMARK    5  A    between atoms: C_25  and  C_29
REMARK                            x       y       z     vdW  Elec       q    Type
REMARK                         _______ _______ _______ _____ _____    ______ ____
ROOT
ATOM      1  O   UNL     1      33.875 -16.847 -24.446  0.00  0.00    -0.446 OA
ATOM      2  N   UNL     1      34.312 -20.065 -21.055  0.00  0.00    -0.296 N 
ATOM      3  N   UNL     1      34.707 -17.754 -20.591  0.00  0.00    -0.130 NA
ATOM      4  N   UNL     1      34.778 -16.418 -20.969  0.00  0.00    -0.106 NA
ATOM      5  C   UNL     1      34.095 -18.364 -22.787  0.00  0.00    +0.076 A 
ATOM      6  C   UNL     1      34.176 -17.021 -23.129  0.00  0.00    +0.202 A 
ATOM      7  C   UNL     1      34.373 -18.724 -21.473  0.00  0.00    +0.157 A 
ATOM      8  C   UNL     1      34.516 -16.031 -22.233  0.00  0.00    +0.279 A 
ATOM      9  C   UNL     1      33.722 -19.043 -23.977  0.00  0.00    +0.047 C 
ATOM     10  C   UNL     1      33.601 -18.079 -24.951  0.00  0.00    +0.180 C 
ATOM     11  H   UNL     1      34.060 -20.690 -21.773  0.00  0.00    +0.154 HD
ENDROOT
BRANCH   2  13
ATOM     12 CL   UNL     1      35.262 -22.701 -15.839  0.00  0.00    -0.082 Cl
ATOM     13  C   UNL     1      34.538 -20.693 -19.812  0.00  0.00    +0.049 C 
ATOM     14  C   UNL     1      33.485 -21.319 -19.146  0.00  0.00    +0.016 C 
ATOM     15  C   UNL     1      35.815 -20.688 -19.251  0.00  0.00    +0.016 C 
ATOM     16  C   UNL     1      33.709 -21.940 -17.917  0.00  0.00    +0.013 C 
ATOM     17  C   UNL     1      36.039 -21.309 -18.022  0.00  0.00    +0.013 C 
ATOM     18  C   UNL     1      34.986 -21.935 -17.356  0.00  0.00    +0.058 C 
ENDBRANCH   2  13
BRANCH   8  19
ATOM     19  O   UNL     1      34.598 -14.703 -22.561  0.00  0.00    -0.452 OA
BRANCH  19  20
ATOM     20  C   UNL     1      33.502 -14.153 -23.283  0.00  0.00    +0.234 C 
BRANCH  20  22
ATOM     21  N   UNL     1      31.548 -11.227 -20.835  0.00  0.00    -0.239 NA
ATOM     22  C   UNL     1      32.818 -13.127 -22.426  0.00  0.00    +0.024 C 
ATOM     23  C   UNL     1      32.548 -11.870 -22.939  0.00  0.00    +0.023 C 
ATOM     24  C   UNL     1      32.461 -13.446 -21.125  0.00  0.00    +0.020 C 
ATOM     25  C   UNL     1      31.914 -10.960 -22.108  0.00  0.00    +0.134 C 
ATOM     26  C   UNL     1      31.832 -12.466 -20.375  0.00  0.00    +0.099 C 
BRANCH  25  29
ATOM     27  O   UNL     1      30.424  -9.226 -22.629  0.00  0.00    -0.268 OA
ATOM     28  N   UNL     1      32.681  -8.816 -22.967  0.00  0.00    -0.298 N 
ATOM     29  C   UNL     1      31.602  -9.625 -22.587  0.00  0.00    +0.264 C 
ATOM     30  C   UNL     1      32.535  -7.458 -23.440  0.00  0.00    +0.111 C 
ATOM     31  H   UNL     1      33.588  -9.193 -22.908  0.00  0.00    +0.150 HD
ENDBRANCH  25  29
ENDBRANCH  20  22
ENDBRANCH  19  20
ENDBRANCH   8  19
TORSDOF 5
ENDMDL
MODEL 6
REMARK VINA RESULT:     -12.3      4.560      7.301
REMARK  Name = 9808844
REMARK  5 active torsions:
REMARK  status: ('A' for Active; 'I' for Inactive)
REMARK    1  A    between atoms: N_2  and  C_13
REMARK    2  A    between atoms: C_8  and  O_19
REMARK    3  A    between atoms: O_19  and  C_20
REMARK    4  A    between atoms: C_20  and  C_22
REMARK    5  A    between atoms: C_25  and  C_29
REMARK                            x       y       z     vdW  Elec       q    Type
REMARK                         _______ _______ _______ _____ _____    ______ ____
ROOT
ATOM      1  O   UNL     1      34.439 -17.259 -23.535  0.00  0.00    -0.446 OA
ATOM      2  N   UNL     1      32.663 -12.936 -23.089  0.00  0.00    -0.296 N 
ATOM      3  N   UNL     1      33.663 -14.035 -21.217  0.00  0.00    -0.130 NA
ATOM      4  N   UNL     1      34.302 -15.116 -20.623  0.00  0.00    -0.106 NA
ATOM      5  C   UNL     1      33.596 -15.179 -23.279  0.00  0.00    +0.076 A 
ATOM      6  C   UNL     1      34.235 -16.241 -22.654  0.00  0.00    +0.202 A 
ATOM      7  C   UNL     1      33.308 -14.049 -22.522  0.00  0.00    +0.157 A 
ATOM      8  C   UNL     1      34.598 -16.229 -21.324  0.00  0.00    +0.279 A 
ATOM      9  C   UNL     1      33.402 -15.586 -24.626  0.00  0.00    +0.047 C 
ATOM     10  C   UNL     1      33.931 -16.852 -24.728  0.00  0.00    +0.180 C 
ATOM     11  H   UNL     1      32.449 -13.049 -24.043  0.00  0.00    +0.154 HD
ENDROOT
BRANCH   2  13
ATOM     12 CL   UNL     1      30.980  -7.706 -20.884  0.00  0.00    -0.082 Cl
ATOM     13  C   UNL     1      32.262 -11.690 -22.563  0.00  0.00    +0.049 C 
ATOM     14  C   UNL     1      31.530 -11.636 -21.378  0.00  0.00    +0.016 C 
ATOM     15  C   UNL     1      32.598 -10.511 -23.230  0.00  0.00    +0.016 C 
ATOM     16  C   UNL     1      31.133 -10.405 -20.858  0.00  0.00    +0.013 C 
ATOM     17  C   UNL     1      32.202  -9.280 -22.710  0.00  0.00    +0.013 C 
ATOM     18  C   UNL     1      31.470  -9.226 -21.525  0.00  0.00    +0.058 C 
ENDBRANCH   2  13
BRANCH   8  19
ATOM     19  O   UNL     1      35.228 -17.272 -20.698  0.00  0.00    -0.452 OA
BRANCH  19  20
ATOM     20  C   UNL     1      35.213 -18.526 -21.371  0.00  0.00    +0.234 C 
BRANCH  20  22
ATOM     21  N   UNL     1      33.139 -21.389 -18.948  0.00  0.00    -0.239 NA
ATOM     22  C   UNL     1      34.488 -19.529 -20.522  0.00  0.00    +0.024 C 
ATOM     23  C   UNL     1      35.159 -20.182 -19.502  0.00  0.00    +0.023 C 
ATOM     24  C   UNL     1      33.149 -19.795 -20.765  0.00  0.00    +0.020 C 
ATOM     25  C   UNL     1      34.444 -21.098 -18.747  0.00  0.00    +0.134 C 
ATOM     26  C   UNL     1      32.524 -20.728 -19.954  0.00  0.00    +0.099 C 
BRANCH  25  29
ATOM     27  O   UNL     1      34.527 -22.787 -17.122  0.00  0.00    -0.268 OA
ATOM     28  N   UNL     1      36.364 -21.381 -17.279  0.00  0.00    -0.298 N 
ATOM     29  C   UNL     1      35.089 -21.816 -17.662  0.00  0.00    +0.264 C 
ATOM     30  C   UNL     1      37.143 -22.006 -16.235  0.00  0.00    +0.111 C 
ATOM     31  H   UNL     1      36.751 -20.607 -17.748  0.00  0.00    +0.150 HD
ENDBRANCH  25  29
ENDBRANCH  20  22
ENDBRANCH  19  20
ENDBRANCH   8  19
TORSDOF 5
ENDMDL
MODEL 7
REMARK VINA RESULT:     -12.3      7.658     12.277
REMARK  Name = 9808844
REMARK  5 active torsions:
REMARK  status: ('A' for Active; 'I' for Inactive)
REMARK    1  A    between atoms: N_2  and  C_13
REMARK    2  A    between atoms: C_8  and  O_19
REMARK    3  A    between atoms: O_19  and  C_20
REMARK    4  A    between atoms: C_20  and  C_22
REMARK    5  A    between atoms: C_25  and  C_29
REMARK                            x       y       z     vdW  Elec       q    Type
REMARK                         _______ _______ _______ _____ _____    ______ ____
ROOT
ATOM      1  O   UNL     1      33.000 -13.179 -24.562  0.00  0.00    -0.446 OA
ATOM      2  N   UNL     1      34.391 -17.213 -22.605  0.00  0.00    -0.296 N 
ATOM      3  N   UNL     1      34.094 -15.256 -21.267  0.00  0.00    -0.130 NA
ATOM      4  N   UNL     1      33.765 -13.915 -21.104  0.00  0.00    -0.106 NA
ATOM      5  C   UNL     1      33.670 -15.101 -23.583  0.00  0.00    +0.076 A 
ATOM      6  C   UNL     1      33.349 -13.765 -23.384  0.00  0.00    +0.202 A 
ATOM      7  C   UNL     1      34.052 -15.855 -22.479  0.00  0.00    +0.157 A 
ATOM      8  C   UNL     1      33.390 -13.152 -22.149  0.00  0.00    +0.279 A 
ATOM      9  C   UNL     1      33.503 -15.334 -24.973  0.00  0.00    +0.047 C 
ATOM     10  C   UNL     1      33.095 -14.139 -25.520  0.00  0.00    +0.180 C 
ATOM     11  H   UNL     1      34.328 -17.551 -23.528  0.00  0.00    +0.154 HD
ENDROOT
BRANCH   2  13
ATOM     12 CL   UNL     1      36.117 -21.311 -18.695  0.00  0.00    -0.082 Cl
ATOM     13  C   UNL     1      34.802 -18.190 -21.673  0.00  0.00    +0.049 C 
ATOM     14  C   UNL     1      36.116 -18.198 -21.206  0.00  0.00    +0.016 C 
ATOM     15  C   UNL     1      33.894 -19.146 -21.219  0.00  0.00    +0.016 C 
ATOM     16  C   UNL     1      36.523 -19.163 -20.285  0.00  0.00    +0.013 C 
ATOM     17  C   UNL     1      34.301 -20.111 -20.298  0.00  0.00    +0.013 C 
ATOM     18  C   UNL     1      35.615 -20.119 -19.831  0.00  0.00    +0.058 C 
ENDBRANCH   2  13
BRANCH   8  19
ATOM     19  O   UNL     1      33.076 -11.835 -21.944  0.00  0.00    -0.452 OA
BRANCH  19  20
ATOM     20  C   UNL     1      31.696 -11.521 -21.799  0.00  0.00    +0.234 C 
BRANCH  20  22
ATOM     21  N   UNL     1      31.306  -8.049 -19.315  0.00  0.00    -0.239 NA
ATOM     22  C   UNL     1      31.560 -10.304 -20.930  0.00  0.00    +0.024 C 
ATOM     23  C   UNL     1      31.486  -9.048 -21.509  0.00  0.00    +0.023 C 
ATOM     24  C   UNL     1      31.509 -10.446 -19.552  0.00  0.00    +0.020 C 
ATOM     25  C   UNL     1      31.360  -7.958 -20.662  0.00  0.00    +0.134 C 
ATOM     26  C   UNL     1      31.382  -9.294 -18.793  0.00  0.00    +0.099 C 
BRANCH  25  29
ATOM     27  O   UNL     1      31.692  -5.639 -20.552  0.00  0.00    -0.268 OA
ATOM     28  N   UNL     1      30.738  -6.479 -22.492  0.00  0.00    -0.298 N 
ATOM     29  C   UNL     1      31.277  -6.614 -21.206  0.00  0.00    +0.264 C 
ATOM     30  C   UNL     1      30.611  -5.213 -23.177  0.00  0.00    +0.111 C 
ATOM     31  H   UNL     1      30.430  -7.291 -22.954  0.00  0.00    +0.150 HD
ENDBRANCH  25  29
ENDBRANCH  20  22
ENDBRANCH  19  20
ENDBRANCH   8  19
TORSDOF 5
ENDMDL
MODEL 8
REMARK VINA RESULT:     -12.1      7.029     10.668
REMARK  Name = 9808844
REMARK  5 active torsions:
REMARK  status: ('A' for Active; 'I' for Inactive)
REMARK    1  A    between atoms: N_2  and  C_13
REMARK    2  A    between atoms: C_8  and  O_19
REMARK    3  A    between atoms: O_19  and  C_20
REMARK    4  A    between atoms: C_20  and  C_22
REMARK    5  A    between atoms: C_25  and  C_29
REMARK                            x       y       z     vdW  Elec       q    Type
REMARK                         _______ _______ _______ _____ _____    ______ ____
ROOT
ATOM      1  O   UNL     1      32.245 -13.767 -21.216  0.00  0.00    -0.446 OA
ATOM      2  N   UNL     1      31.805  -9.231 -22.340  0.00  0.00    -0.296 N 
ATOM      3  N   UNL     1      32.578 -10.811 -23.958  0.00  0.00    -0.130 NA
ATOM      4  N   UNL     1      32.923 -12.098 -24.353  0.00  0.00    -0.106 NA
ATOM      5  C   UNL     1      32.047 -11.594 -21.796  0.00  0.00    +0.076 A 
ATOM      6  C   UNL     1      32.400 -12.866 -22.225  0.00  0.00    +0.202 A 
ATOM      7  C   UNL     1      32.145 -10.545 -22.704  0.00  0.00    +0.157 A 
ATOM      8  C   UNL     1      32.841 -13.140 -23.502  0.00  0.00    +0.279 A 
ATOM      9  C   UNL     1      31.654 -11.739 -20.440  0.00  0.00    +0.047 C 
ATOM     10  C   UNL     1      31.791 -13.075 -20.138  0.00  0.00    +0.180 C 
ATOM     11  H   UNL     1      31.503  -9.146 -21.408  0.00  0.00    +0.154 HD
ENDROOT
BRANCH   2  13
ATOM     12 CL   UNL     1      31.826  -4.104 -25.302  0.00  0.00    -0.082 Cl
ATOM     13  C   UNL     1      31.810  -8.008 -23.046  0.00  0.00    +0.049 C 
ATOM     14  C   UNL     1      30.626  -7.515 -23.594  0.00  0.00    +0.016 C 
ATOM     15  C   UNL     1      32.999  -7.294 -23.195  0.00  0.00    +0.016 C 
ATOM     16  C   UNL     1      30.631  -6.308 -24.291  0.00  0.00    +0.013 C 
ATOM     17  C   UNL     1      33.004  -6.087 -23.893  0.00  0.00    +0.013 C 
ATOM     18  C   UNL     1      31.820  -5.594 -24.440  0.00  0.00    +0.058 C 
ENDBRANCH   2  13
BRANCH   8  19
ATOM     19  O   UNL     1      33.192 -14.392 -23.933  0.00  0.00    -0.452 OA
BRANCH  19  20
ATOM     20  C   UNL     1      34.464 -14.877 -23.522  0.00  0.00    +0.234 C 
BRANCH  20  22
ATOM     21  N   UNL     1      34.201 -19.106 -22.874  0.00  0.00    -0.239 NA
ATOM     22  C   UNL     1      34.373 -16.358 -23.294  0.00  0.00    +0.024 C 
ATOM     23  C   UNL     1      34.976 -16.923 -22.183  0.00  0.00    +0.023 C 
ATOM     24  C   UNL     1      33.685 -17.152 -24.199  0.00  0.00    +0.020 C 
ATOM     25  C   UNL     1      34.861 -18.294 -22.018  0.00  0.00    +0.134 C 
ATOM     26  C   UNL     1      33.628 -18.512 -23.945  0.00  0.00    +0.099 C 
BRANCH  25  29
ATOM     27  O   UNL     1      36.458 -18.445 -20.307  0.00  0.00    -0.268 OA
ATOM     28  N   UNL     1      34.881 -20.141 -20.433  0.00  0.00    -0.298 N 
ATOM     29  C   UNL     1      35.470 -18.948 -20.873  0.00  0.00    +0.264 C 
ATOM     30  C   UNL     1      35.356 -20.895 -19.295  0.00  0.00    +0.111 C 
ATOM     31  H   UNL     1      34.101 -20.483 -20.925  0.00  0.00    +0.150 HD
ENDBRANCH  25  29
ENDBRANCH  20  22
ENDBRANCH  19  20
ENDBRANCH   8  19
TORSDOF 5
ENDMDL
MODEL 9
REMARK VINA RESULT:     -11.9      4.491      7.394
REMARK  Name = 9808844
REMARK  5 active torsions:
REMARK  status: ('A' for Active; 'I' for Inactive)
REMARK    1  A    between atoms: N_2  and  C_13
REMARK    2  A    between atoms: C_8  and  O_19
REMARK    3  A    between atoms: O_19  and  C_20
REMARK    4  A    between atoms: C_20  and  C_22
REMARK    5  A    between atoms: C_25  and  C_29
REMARK                            x       y       z     vdW  Elec       q    Type
REMARK                         _______ _______ _______ _____ _____    ______ ____
ROOT
ATOM      1  O   UNL     1      34.355 -17.354 -23.682  0.00  0.00    -0.446 OA
ATOM      2  N   UNL     1      32.669 -13.018 -23.051  0.00  0.00    -0.296 N 
ATOM      3  N   UNL     1      33.619 -14.227 -21.222  0.00  0.00    -0.130 NA
ATOM      4  N   UNL     1      34.226 -15.351 -20.673  0.00  0.00    -0.106 NA
ATOM      5  C   UNL     1      33.555 -15.270 -23.338  0.00  0.00    +0.076 A 
ATOM      6  C   UNL     1      34.162 -16.375 -22.756  0.00  0.00    +0.202 A 
ATOM      7  C   UNL     1      33.282 -14.171 -22.531  0.00  0.00    +0.157 A 
ATOM      8  C   UNL     1      34.507 -16.435 -21.422  0.00  0.00    +0.279 A 
ATOM      9  C   UNL     1      33.371 -15.607 -24.704  0.00  0.00    +0.047 C 
ATOM     10  C   UNL     1      33.873 -16.879 -24.861  0.00  0.00    +0.180 C 
ATOM     11  H   UNL     1      32.466 -13.080 -24.012  0.00  0.00    +0.154 HD
ENDROOT
BRANCH   2  13
ATOM     12 CL   UNL     1      31.072  -7.863 -20.617  0.00  0.00    -0.082 Cl
ATOM     13  C   UNL     1      32.289 -11.789 -22.471  0.00  0.00    +0.049 C 
ATOM     14  C   UNL     1      32.563 -10.592 -23.131  0.00  0.00    +0.016 C 
ATOM     15  C   UNL     1      31.637 -11.773 -21.238  0.00  0.00    +0.016 C 
ATOM     16  C   UNL     1      32.187  -9.378 -22.558  0.00  0.00    +0.013 C 
ATOM     17  C   UNL     1      31.261 -10.559 -20.665  0.00  0.00    +0.013 C 
ATOM     18  C   UNL     1      31.536  -9.362 -21.325  0.00  0.00    +0.058 C 
ENDBRANCH   2  13
BRANCH   8  19
ATOM     19  O   UNL     1      35.105 -17.520 -20.840  0.00  0.00    -0.452 OA
BRANCH  19  20
ATOM     20  C   UNL     1      34.776 -18.797 -21.375  0.00  0.00    +0.234 C 
BRANCH  20  22
ATOM     21  N   UNL     1      34.997 -21.722 -18.249  0.00  0.00    -0.239 NA
ATOM     22  C   UNL     1      34.852 -19.821 -20.280  0.00  0.00    +0.024 C 
ATOM     23  C   UNL     1      33.688 -20.325 -19.725  0.00  0.00    +0.023 C 
ATOM     24  C   UNL     1      36.090 -20.256 -19.831  0.00  0.00    +0.020 C 
ATOM     25  C   UNL     1      33.813 -21.268 -18.718  0.00  0.00    +0.134 C 
ATOM     26  C   UNL     1      36.107 -21.202 -18.819  0.00  0.00    +0.099 C 
BRANCH  25  29
ATOM     27  O   UNL     1      31.506 -21.676 -18.605  0.00  0.00    -0.268 OA
ATOM     28  N   UNL     1      32.822 -22.581 -16.925  0.00  0.00    -0.298 N 
ATOM     29  C   UNL     1      32.630 -21.836 -18.095  0.00  0.00    +0.264 C 
ATOM     30  C   UNL     1      31.750 -23.228 -16.203  0.00  0.00    +0.111 C 
ATOM     31  H   UNL     1      33.738 -22.670 -16.575  0.00  0.00    +0.150 HD
ENDBRANCH  25  29
ENDBRANCH  20  22
ENDBRANCH  19  20
ENDBRANCH   8  19
TORSDOF 5
ENDMDL
