MODEL 1
REMARK VINA RESULT:     -12.3      0.000      0.000
REMARK  Name = 6918248
REMARK  5 active torsions:
REMARK  status: ('A' for Active; 'I' for Inactive)
REMARK    1  A    between atoms: N_1  and  C_18
REMARK    2  A    between atoms: N_2  and  C_8
REMARK    3  A    between atoms: C_11  and  C_17
REMARK    4  A    between atoms: C_18  and  C_19
REMARK    5  A    between atoms: C_19  and  N_21
REMARK                            x       y       z     vdW  Elec       q    Type
REMARK                         _______ _______ _______ _____ _____    ______ ____
ROOT
ATOM      1  N   UNL     1      32.273 -12.626 -22.309  0.00  0.00    +0.391 N 
ATOM      2  N   UNL     1      31.735  -9.826 -22.493  0.00  0.00    -0.312 N 
ATOM      3  C   UNL     1      31.709 -11.901 -21.164  0.00  0.00    -0.055 C 
ATOM      4  C   UNL     1      33.172 -11.744 -23.064  0.00  0.00    -0.055 C 
ATOM      5  C   UNL     1      30.913 -10.679 -21.625  0.00  0.00    +0.068 C 
ATOM      6  C   UNL     1      32.425 -10.516 -23.588  0.00  0.00    +0.068 C 
ATOM      7  H   UNL     1      31.511 -12.920 -22.921  0.00  0.00    -0.079 HD
ENDROOT
BRANCH   2   8
ATOM      8  C   UNL     1      31.362  -8.486 -22.642  0.00  0.00    +0.048 C 
ATOM      9  C   UNL     1      31.505  -7.571 -21.580  0.00  0.00    +0.018 C 
ATOM     10  C   UNL     1      30.834  -8.010 -23.858  0.00  0.00    +0.015 C 
ATOM     11  C   UNL     1      31.133  -6.235 -21.728  0.00  0.00    +0.073 C 
ATOM     12  C   UNL     1      30.463  -6.674 -24.008  0.00  0.00    +0.001 C 
ATOM     13  C   UNL     1      30.612  -5.786 -22.942  0.00  0.00    +0.004 C 
BRANCH  11  17
ATOM     14  F   UNL     1      30.123  -4.693 -20.203  0.00  0.00    -0.166 F 
ATOM     15  F   UNL     1      31.788  -5.866 -19.458  0.00  0.00    -0.166 F 
ATOM     16  F   UNL     1      32.144  -4.258 -20.877  0.00  0.00    -0.166 F 
ATOM     17  C   UNL     1      31.292  -5.285 -20.590  0.00  0.00    +0.419 C 
ENDBRANCH  11  17
ENDBRANCH   2   8
BRANCH   1  18
ATOM     18  C   UNL     1      32.985 -13.822 -21.860  0.00  0.00    -0.052 C 
BRANCH  18  19
ATOM     19  C   UNL     1      34.124 -14.148 -22.813  0.00  0.00    +0.088 C 
BRANCH  19  21
ATOM     20  O   UNL     1      33.146 -15.117 -25.499  0.00  0.00    -0.247 OA
ATOM     21  N   UNL     1      34.014 -15.491 -23.316  0.00  0.00    -0.282 N 
ATOM     22  N   UNL     1      33.606 -17.279 -24.658  0.00  0.00    -0.305 N 
ATOM     23  C   UNL     1      34.359 -16.658 -22.614  0.00  0.00    +0.079 A 
ATOM     24  C   UNL     1      33.537 -15.857 -24.608  0.00  0.00    +0.328 A 
ATOM     25  C   UNL     1      34.106 -17.749 -23.443  0.00  0.00    +0.076 A 
ATOM     26  C   UNL     1      34.863 -16.822 -21.340  0.00  0.00    +0.019 C 
ATOM     27  C   UNL     1      34.340 -19.048 -23.048  0.00  0.00    +0.019 C 
ATOM     28  C   UNL     1      35.109 -18.132 -20.916  0.00  0.00    +0.002 C 
ATOM     29  C   UNL     1      34.851 -19.232 -21.760  0.00  0.00    +0.002 C 
ATOM     30  H   UNL     1      33.344 -17.838 -25.425  0.00  0.00    +0.170 HD
ENDBRANCH  19  21
ENDBRANCH  18  19
ENDBRANCH   1  18
TORSDOF 5
ENDMDL
MODEL 2
REMARK VINA RESULT:     -12.0      7.352     12.178
REMARK  Name = 6918248
REMARK  5 active torsions:
REMARK  status: ('A' for Active; 'I' for Inactive)
REMARK    1  A    between atoms: N_1  and  C_18
REMARK    2  A    between atoms: N_2  and  C_8
REMARK    3  A    between atoms: C_11  and  C_17
REMARK    4  A    between atoms: C_18  and  C_19
REMARK    5  A    between atoms: C_19  and  N_21
REMARK                            x       y       z     vdW  Elec       q    Type
REMARK                         _______ _______ _______ _____ _____    ______ ____
ROOT
ATOM      1  N   UNL     1      34.241 -19.862 -21.282  0.00  0.00    +0.391 N 
ATOM      2  N   UNL     1      34.988 -20.908 -18.730  0.00  0.00    -0.312 N 
ATOM      3  C   UNL     1      35.481 -19.419 -20.632  0.00  0.00    -0.055 C 
ATOM      4  C   UNL     1      33.219 -20.146 -20.266  0.00  0.00    -0.055 C 
ATOM      5  C   UNL     1      36.022 -20.496 -19.690  0.00  0.00    +0.068 C 
ATOM      6  C   UNL     1      33.685 -21.247 -19.311  0.00  0.00    +0.068 C 
ATOM      7  H   UNL     1      34.430 -20.717 -21.806  0.00  0.00    -0.079 HD
ENDROOT
BRANCH   2   8
ATOM      8  C   UNL     1      35.401 -21.522 -17.543  0.00  0.00    +0.048 C 
ATOM      9  C   UNL     1      34.496 -22.259 -16.754  0.00  0.00    +0.018 C 
ATOM     10  C   UNL     1      36.736 -21.421 -17.100  0.00  0.00    +0.015 C 
ATOM     11  C   UNL     1      34.909 -22.871 -15.570  0.00  0.00    +0.073 C 
ATOM     12  C   UNL     1      37.148 -22.034 -15.917  0.00  0.00    +0.001 C 
ATOM     13  C   UNL     1      36.235 -22.759 -15.151  0.00  0.00    +0.004 C 
BRANCH  11  17
ATOM     14  F   UNL     1      33.830 -23.207 -13.462  0.00  0.00    -0.166 F 
ATOM     15  F   UNL     1      32.658 -23.611 -15.242  0.00  0.00    -0.166 F 
ATOM     16  F   UNL     1      34.254 -24.969 -14.663  0.00  0.00    -0.166 F 
ATOM     17  C   UNL     1      33.933 -23.646 -14.752  0.00  0.00    +0.419 C 
ENDBRANCH  11  17
ENDBRANCH   2   8
BRANCH   1  18
ATOM     18  C   UNL     1      33.763 -18.847 -22.221  0.00  0.00    -0.052 C 
BRANCH  18  19
ATOM     19  C   UNL     1      34.725 -17.669 -22.261  0.00  0.00    +0.088 C 
BRANCH  19  21
ATOM     20  O   UNL     1      33.840 -17.499 -25.142  0.00  0.00    -0.247 OA
ATOM     21  N   UNL     1      34.159 -16.560 -22.980  0.00  0.00    -0.282 N 
ATOM     22  N   UNL     1      33.268 -15.265 -24.621  0.00  0.00    -0.305 N 
ATOM     23  C   UNL     1      33.901 -15.286 -22.446  0.00  0.00    +0.079 A 
ATOM     24  C   UNL     1      33.768 -16.571 -24.350  0.00  0.00    +0.328 A 
ATOM     25  C   UNL     1      33.356 -14.499 -23.458  0.00  0.00    +0.076 A 
ATOM     26  C   UNL     1      34.106 -14.789 -21.176  0.00  0.00    +0.019 C 
ATOM     27  C   UNL     1      32.989 -13.186 -23.256  0.00  0.00    +0.019 C 
ATOM     28  C   UNL     1      33.741 -13.458 -20.947  0.00  0.00    +0.002 C 
ATOM     29  C   UNL     1      33.189 -12.665 -21.975  0.00  0.00    +0.002 C 
ATOM     30  H   UNL     1      32.918 -14.954 -25.487  0.00  0.00    +0.170 HD
ENDBRANCH  19  21
ENDBRANCH  18  19
ENDBRANCH   1  18
TORSDOF 5
ENDMDL
MODEL 3
REMARK VINA RESULT:     -11.9      1.566      2.046
REMARK  Name = 6918248
REMARK  5 active torsions:
REMARK  status: ('A' for Active; 'I' for Inactive)
REMARK    1  A    between atoms: N_1  and  C_18
REMARK    2  A    between atoms: N_2  and  C_8
REMARK    3  A    between atoms: C_11  and  C_17
REMARK    4  A    between atoms: C_18  and  C_19
REMARK    5  A    between atoms: C_19  and  N_21
REMARK                            x       y       z     vdW  Elec       q    Type
REMARK                         _______ _______ _______ _____ _____    ______ ____
ROOT
ATOM      1  N   UNL     1      31.801 -12.049 -22.246  0.00  0.00    +0.391 N 
ATOM      2  N   UNL     1      31.748  -9.216 -21.877  0.00  0.00    -0.312 N 
ATOM      3  C   UNL     1      31.549 -11.478 -20.917  0.00  0.00    -0.055 C 
ATOM      4  C   UNL     1      32.722 -11.184 -22.994  0.00  0.00    -0.055 C 
ATOM      5  C   UNL     1      30.923 -10.085 -21.028  0.00  0.00    +0.068 C 
ATOM      6  C   UNL     1      32.136  -9.782 -23.173  0.00  0.00    +0.068 C 
ATOM      7  H   UNL     1      30.918 -12.106 -22.754  0.00  0.00    -0.079 HD
ENDROOT
BRANCH   2   8
ATOM      8  C   UNL     1      31.601  -7.832 -21.739  0.00  0.00    +0.048 C 
ATOM      9  C   UNL     1      31.500  -6.996 -22.869  0.00  0.00    +0.018 C 
ATOM     10  C   UNL     1      31.549  -7.231 -20.465  0.00  0.00    +0.015 C 
ATOM     11  C   UNL     1      31.353  -5.616 -22.730  0.00  0.00    +0.073 C 
ATOM     12  C   UNL     1      31.401  -5.851 -20.326  0.00  0.00    +0.001 C 
ATOM     13  C   UNL     1      31.304  -5.043 -21.459  0.00  0.00    +0.004 C 
BRANCH  11  17
ATOM     14  F   UNL     1      30.072  -4.063 -24.023  0.00  0.00    -0.166 F 
ATOM     15  F   UNL     1      32.225  -3.799 -24.017  0.00  0.00    -0.166 F 
ATOM     16  F   UNL     1      31.339  -5.461 -25.103  0.00  0.00    -0.166 F 
ATOM     17  C   UNL     1      31.249  -4.751 -23.941  0.00  0.00    +0.419 C 
ENDBRANCH  11  17
ENDBRANCH   2   8
BRANCH   1  18
ATOM     18  C   UNL     1      32.348 -13.400 -22.128  0.00  0.00    -0.052 C 
BRANCH  18  19
ATOM     19  C   UNL     1      33.595 -13.543 -22.987  0.00  0.00    +0.088 C 
BRANCH  19  21
ATOM     20  O   UNL     1      33.049 -14.664 -25.737  0.00  0.00    -0.247 OA
ATOM     21  N   UNL     1      33.741 -14.889 -23.472  0.00  0.00    -0.282 N 
ATOM     22  N   UNL     1      33.748 -16.725 -24.812  0.00  0.00    -0.305 N 
ATOM     23  C   UNL     1      34.188 -15.986 -22.716  0.00  0.00    +0.079 A 
ATOM     24  C   UNL     1      33.457 -15.330 -24.797  0.00  0.00    +0.328 A 
ATOM     25  C   UNL     1      34.189 -17.106 -23.544  0.00  0.00    +0.076 A 
ATOM     26  C   UNL     1      34.581 -16.064 -21.396  0.00  0.00    +0.019 C 
ATOM     27  C   UNL     1      34.579 -18.352 -23.102  0.00  0.00    +0.019 C 
ATOM     28  C   UNL     1      34.981 -17.319 -20.924  0.00  0.00    +0.002 C 
ATOM     29  C   UNL     1      34.979 -18.450 -21.767  0.00  0.00    +0.002 C 
ATOM     30  H   UNL     1      33.653 -17.321 -25.589  0.00  0.00    +0.170 HD
ENDBRANCH  19  21
ENDBRANCH  18  19
ENDBRANCH   1  18
TORSDOF 5
ENDMDL
MODEL 4
REMARK VINA RESULT:     -11.9      5.843      8.995
REMARK  Name = 6918248
REMARK  5 active torsions:
REMARK  status: ('A' for Active; 'I' for Inactive)
REMARK    1  A    between atoms: N_1  and  C_18
REMARK    2  A    between atoms: N_2  and  C_8
REMARK    3  A    between atoms: C_11  and  C_17
REMARK    4  A    between atoms: C_18  and  C_19
REMARK    5  A    between atoms: C_19  and  N_21
REMARK                            x       y       z     vdW  Elec       q    Type
REMARK                         _______ _______ _______ _____ _____    ______ ____
ROOT
ATOM      1  N   UNL     1      35.592 -20.235 -20.297  0.00  0.00    +0.391 N 
ATOM      2  N   UNL     1      34.785 -17.868 -21.680  0.00  0.00    -0.312 N 
ATOM      3  C   UNL     1      34.170 -19.889 -20.411  0.00  0.00    -0.055 C 
ATOM      4  C   UNL     1      36.397 -19.010 -20.208  0.00  0.00    -0.055 C 
ATOM      5  C   UNL     1      33.907 -19.045 -21.660  0.00  0.00    +0.068 C 
ATOM      6  C   UNL     1      36.208 -18.136 -21.450  0.00  0.00    +0.068 C 
ATOM      7  H   UNL     1      35.873 -20.752 -21.131  0.00  0.00    -0.079 HD
ENDROOT
BRANCH   2   8
ATOM      8  C   UNL     1      34.402 -16.776 -22.466  0.00  0.00    +0.048 C 
ATOM      9  C   UNL     1      34.182 -15.508 -21.890  0.00  0.00    +0.018 C 
ATOM     10  C   UNL     1      34.225 -16.909 -23.858  0.00  0.00    +0.015 C 
ATOM     11  C   UNL     1      33.801 -14.420 -22.673  0.00  0.00    +0.073 C 
ATOM     12  C   UNL     1      33.844 -15.820 -24.641  0.00  0.00    +0.001 C 
ATOM     13  C   UNL     1      33.631 -14.575 -24.050  0.00  0.00    +0.004 C 
BRANCH  11  17
ATOM     14  F   UNL     1      34.220 -12.931 -20.849  0.00  0.00    -0.166 F 
ATOM     15  F   UNL     1      33.985 -12.039 -22.812  0.00  0.00    -0.166 F 
ATOM     16  F   UNL     1      32.255 -12.852 -21.776  0.00  0.00    -0.166 F 
ATOM     17  C   UNL     1      33.573 -13.089 -22.041  0.00  0.00    +0.419 C 
ENDBRANCH  11  17
ENDBRANCH   2   8
BRANCH   1  18
ATOM     18  C   UNL     1      35.822 -21.086 -19.131  0.00  0.00    -0.052 C 
BRANCH  18  19
ATOM     19  C   UNL     1      34.552 -21.840 -18.768  0.00  0.00    +0.088 C 
BRANCH  19  21
ATOM     20  O   UNL     1      36.784 -21.888 -16.737  0.00  0.00    -0.247 OA
ATOM     21  N   UNL     1      34.500 -22.126 -17.360  0.00  0.00    -0.282 N 
ATOM     22  N   UNL     1      35.090 -22.462 -15.191  0.00  0.00    -0.305 N 
ATOM     23  C   UNL     1      33.343 -22.453 -16.634  0.00  0.00    +0.079 A 
ATOM     24  C   UNL     1      35.614 -22.125 -16.472  0.00  0.00    +0.328 A 
ATOM     25  C   UNL     1      33.712 -22.657 -15.306  0.00  0.00    +0.076 A 
ATOM     26  C   UNL     1      32.032 -22.579 -17.045  0.00  0.00    +0.019 C 
ATOM     27  C   UNL     1      32.802 -22.994 -14.329  0.00  0.00    +0.019 C 
ATOM     28  C   UNL     1      31.089 -22.921 -16.071  0.00  0.00    +0.002 C 
ATOM     29  C   UNL     1      31.469 -23.126 -14.728  0.00  0.00    +0.002 C 
ATOM     30  H   UNL     1      35.612 -22.543 -14.361  0.00  0.00    +0.170 HD
ENDBRANCH  19  21
ENDBRANCH  18  19
ENDBRANCH   1  18
TORSDOF 5
ENDMDL
MODEL 5
REMARK VINA RESULT:     -11.8      7.211     11.891
REMARK  Name = 6918248
REMARK  5 active torsions:
REMARK  status: ('A' for Active; 'I' for Inactive)
REMARK    1  A    between atoms: N_1  and  C_18
REMARK    2  A    between atoms: N_2  and  C_8
REMARK    3  A    between atoms: C_11  and  C_17
REMARK    4  A    between atoms: C_18  and  C_19
REMARK    5  A    between atoms: C_19  and  N_21
REMARK                            x       y       z     vdW  Elec       q    Type
REMARK                         _______ _______ _______ _____ _____    ______ ____
ROOT
ATOM      1  N   UNL     1      35.288 -19.012 -21.747  0.00  0.00    +0.391 N 
ATOM      2  N   UNL     1      34.572 -20.545 -19.445  0.00  0.00    -0.312 N 
ATOM      3  C   UNL     1      36.198 -19.095 -20.598  0.00  0.00    -0.055 C 
ATOM      4  C   UNL     1      33.895 -19.054 -21.285  0.00  0.00    -0.055 C 
ATOM      5  C   UNL     1      35.984 -20.395 -19.821  0.00  0.00    +0.068 C 
ATOM      6  C   UNL     1      33.605 -20.353 -20.530  0.00  0.00    +0.068 C 
ATOM      7  H   UNL     1      35.455 -19.812 -22.358  0.00  0.00    -0.079 HD
ENDROOT
BRANCH   2   8
ATOM      8  C   UNL     1      34.262 -21.399 -18.381  0.00  0.00    +0.048 C 
ATOM      9  C   UNL     1      35.228 -21.727 -17.408  0.00  0.00    +0.018 C 
ATOM     10  C   UNL     1      32.974 -21.955 -18.248  0.00  0.00    +0.015 C 
ATOM     11  C   UNL     1      34.918 -22.578 -16.347  0.00  0.00    +0.073 C 
ATOM     12  C   UNL     1      32.664 -22.805 -17.186  0.00  0.00    +0.001 C 
ATOM     13  C   UNL     1      33.636 -23.117 -16.236  0.00  0.00    +0.004 C 
BRANCH  11  17
ATOM     14  F   UNL     1      35.713 -22.373 -14.101  0.00  0.00    -0.166 F 
ATOM     15  F   UNL     1      36.096 -24.253 -15.112  0.00  0.00    -0.166 F 
ATOM     16  F   UNL     1      37.199 -22.469 -15.685  0.00  0.00    -0.166 F 
ATOM     17  C   UNL     1      35.957 -22.912 -15.331  0.00  0.00    +0.419 C 
ENDBRANCH  11  17
ENDBRANCH   2   8
BRANCH   1  18
ATOM     18  C   UNL     1      35.539 -17.792 -22.514  0.00  0.00    -0.052 C 
BRANCH  18  19
ATOM     19  C   UNL     1      34.238 -17.255 -23.092  0.00  0.00    +0.088 C 
BRANCH  19  21
ATOM     20  O   UNL     1      34.537 -15.945 -20.389  0.00  0.00    -0.247 OA
ATOM     21  N   UNL     1      34.026 -15.885 -22.712  0.00  0.00    -0.282 N 
ATOM     22  N   UNL     1      33.874 -13.967 -21.501  0.00  0.00    -0.305 N 
ATOM     23  C   UNL     1      33.620 -14.851 -23.571  0.00  0.00    +0.079 A 
ATOM     24  C   UNL     1      34.193 -15.352 -21.400  0.00  0.00    +0.328 A 
ATOM     25  C   UNL     1      33.528 -13.680 -22.822  0.00  0.00    +0.076 A 
ATOM     26  C   UNL     1      33.334 -14.868 -24.921  0.00  0.00    +0.019 C 
ATOM     27  C   UNL     1      33.152 -12.475 -23.376  0.00  0.00    +0.019 C 
ATOM     28  C   UNL     1      32.949 -13.656 -25.506  0.00  0.00    +0.002 C 
ATOM     29  C   UNL     1      32.859 -12.474 -24.742  0.00  0.00    +0.002 C 
ATOM     30  H   UNL     1      33.894 -13.320 -20.760  0.00  0.00    +0.170 HD
ENDBRANCH  19  21
ENDBRANCH  18  19
ENDBRANCH   1  18
TORSDOF 5
ENDMDL
MODEL 6
REMARK VINA RESULT:     -11.8      9.397     12.662
REMARK  Name = 6918248
REMARK  5 active torsions:
REMARK  status: ('A' for Active; 'I' for Inactive)
REMARK    1  A    between atoms: N_1  and  C_18
REMARK    2  A    between atoms: N_2  and  C_8
REMARK    3  A    between atoms: C_11  and  C_17
REMARK    4  A    between atoms: C_18  and  C_19
REMARK    5  A    between atoms: C_19  and  N_21
REMARK                            x       y       z     vdW  Elec       q    Type
REMARK                         _______ _______ _______ _____ _____    ______ ____
ROOT
ATOM      1  N   UNL     1      34.308 -22.627 -17.235  0.00  0.00    +0.391 N 
ATOM      2  N   UNL     1      34.879 -20.686 -19.253  0.00  0.00    -0.312 N 
ATOM      3  C   UNL     1      33.220 -22.018 -18.008  0.00  0.00    -0.055 C 
ATOM      4  C   UNL     1      35.391 -21.653 -17.046  0.00  0.00    -0.055 C 
ATOM      5  C   UNL     1      33.710 -21.565 -19.386  0.00  0.00    +0.068 C 
ATOM      6  C   UNL     1      35.954 -21.188 -18.391  0.00  0.00    +0.068 C 
ATOM      7  H   UNL     1      34.673 -23.427 -17.753  0.00  0.00    -0.079 HD
ENDROOT
BRANCH   2   8
ATOM      8  C   UNL     1      35.185 -19.833 -20.319  0.00  0.00    +0.048 C 
ATOM      9  C   UNL     1      34.328 -19.727 -21.432  0.00  0.00    +0.018 C 
ATOM     10  C   UNL     1      36.359 -19.053 -20.311  0.00  0.00    +0.015 C 
ATOM     11  C   UNL     1      34.632 -18.876 -22.494  0.00  0.00    +0.073 C 
ATOM     12  C   UNL     1      36.663 -18.201 -21.372  0.00  0.00    +0.001 C 
ATOM     13  C   UNL     1      35.800 -18.113 -22.465  0.00  0.00    +0.004 C 
BRANCH  11  17
ATOM     14  F   UNL     1      33.686 -17.544 -24.241  0.00  0.00    -0.166 F 
ATOM     15  F   UNL     1      34.022 -19.642 -24.676  0.00  0.00    -0.166 F 
ATOM     16  F   UNL     1      32.415 -19.057 -23.333  0.00  0.00    -0.166 F 
ATOM     17  C   UNL     1      33.711 -18.781 -23.662  0.00  0.00    +0.419 C 
ENDBRANCH  11  17
ENDBRANCH   2   8
BRANCH   1  18
ATOM     18  C   UNL     1      33.816 -23.105 -15.944  0.00  0.00    -0.052 C 
BRANCH  18  19
ATOM     19  C   UNL     1      34.519 -22.378 -14.808  0.00  0.00    +0.088 C 
BRANCH  19  21
ATOM     20  O   UNL     1      33.189 -23.595 -12.387  0.00  0.00    -0.247 OA
ATOM     21  N   UNL     1      35.047 -23.306 -13.844  0.00  0.00    -0.282 N 
ATOM     22  N   UNL     1      35.254 -24.699 -12.060  0.00  0.00    -0.305 N 
ATOM     23  C   UNL     1      36.345 -23.844 -13.852  0.00  0.00    +0.079 A 
ATOM     24  C   UNL     1      34.340 -23.830 -12.723  0.00  0.00    +0.328 A 
ATOM     25  C   UNL     1      36.464 -24.696 -12.757  0.00  0.00    +0.076 A 
ATOM     26  C   UNL     1      37.393 -23.642 -14.727  0.00  0.00    +0.019 C 
ATOM     27  C   UNL     1      37.623 -25.386 -12.479  0.00  0.00    +0.019 C 
ATOM     28  C   UNL     1      38.581 -24.332 -14.465  0.00  0.00    +0.002 C 
ATOM     29  C   UNL     1      38.695 -25.194 -13.354  0.00  0.00    +0.002 C 
ATOM     30  H   UNL     1      35.063 -25.216 -11.245  0.00  0.00    +0.170 HD
ENDBRANCH  19  21
ENDBRANCH  18  19
ENDBRANCH   1  18
TORSDOF 5
ENDMDL
MODEL 7
REMARK VINA RESULT:     -11.6      5.626      8.775
REMARK  Name = 6918248
REMARK  5 active torsions:
REMARK  status: ('A' for Active; 'I' for Inactive)
REMARK    1  A    between atoms: N_1  and  C_18
REMARK    2  A    between atoms: N_2  and  C_8
REMARK    3  A    between atoms: C_11  and  C_17
REMARK    4  A    between atoms: C_18  and  C_19
REMARK    5  A    between atoms: C_19  and  N_21
REMARK                            x       y       z     vdW  Elec       q    Type
REMARK                         _______ _______ _______ _____ _____    ______ ____
ROOT
ATOM      1  N   UNL     1      35.315 -20.266 -20.454  0.00  0.00    +0.391 N 
ATOM      2  N   UNL     1      34.664 -17.824 -21.786  0.00  0.00    -0.312 N 
ATOM      3  C   UNL     1      33.914 -19.908 -20.704  0.00  0.00    -0.055 C 
ATOM      4  C   UNL     1      36.105 -19.052 -20.210  0.00  0.00    -0.055 C 
ATOM      5  C   UNL     1      33.789 -18.995 -21.926  0.00  0.00    +0.068 C 
ATOM      6  C   UNL     1      36.053 -18.111 -21.416  0.00  0.00    +0.068 C 
ATOM      7  H   UNL     1      35.686 -20.739 -21.279  0.00  0.00    -0.079 HD
ENDROOT
BRANCH   2   8
ATOM      8  C   UNL     1      34.368 -16.688 -22.547  0.00  0.00    +0.048 C 
ATOM      9  C   UNL     1      34.126 -15.444 -21.932  0.00  0.00    +0.018 C 
ATOM     10  C   UNL     1      34.304 -16.754 -23.954  0.00  0.00    +0.015 C 
ATOM     11  C   UNL     1      33.833 -14.312 -22.692  0.00  0.00    +0.073 C 
ATOM     12  C   UNL     1      34.011 -15.622 -24.714  0.00  0.00    +0.001 C 
ATOM     13  C   UNL     1      33.774 -14.401 -24.084  0.00  0.00    +0.004 C 
BRANCH  11  17
ATOM     14  F   UNL     1      32.272 -12.812 -21.675  0.00  0.00    -0.166 F 
ATOM     15  F   UNL     1      34.280 -12.844 -20.858  0.00  0.00    -0.166 F 
ATOM     16  F   UNL     1      33.914 -11.938 -22.800  0.00  0.00    -0.166 F 
ATOM     17  C   UNL     1      33.579 -13.006 -22.019  0.00  0.00    +0.419 C 
ENDBRANCH  11  17
ENDBRANCH   2   8
BRANCH   1  18
ATOM     18  C   UNL     1      35.416 -21.182 -19.318  0.00  0.00    -0.052 C 
BRANCH  18  19
ATOM     19  C   UNL     1      34.033 -21.649 -18.891  0.00  0.00    +0.088 C 
BRANCH  19  21
ATOM     20  O   UNL     1      31.792 -22.863 -17.273  0.00  0.00    -0.247 OA
ATOM     21  N   UNL     1      34.044 -22.143 -17.541  0.00  0.00    -0.282 N 
ATOM     22  N   UNL     1      33.407 -23.047 -15.556  0.00  0.00    -0.305 N 
ATOM     23  C   UNL     1      35.156 -22.151 -16.682  0.00  0.00    +0.079 A 
ATOM     24  C   UNL     1      32.929 -22.703 -16.853  0.00  0.00    +0.328 A 
ATOM     25  C   UNL     1      34.758 -22.706 -15.468  0.00  0.00    +0.076 A 
ATOM     26  C   UNL     1      36.450 -21.718 -16.887  0.00  0.00    +0.019 C 
ATOM     27  C   UNL     1      35.622 -22.858 -14.406  0.00  0.00    +0.019 C 
ATOM     28  C   UNL     1      37.346 -21.862 -15.823  0.00  0.00    +0.002 C 
ATOM     29  C   UNL     1      36.936 -22.425 -14.596  0.00  0.00    +0.002 C 
ATOM     30  H   UNL     1      32.872 -23.459 -14.839  0.00  0.00    +0.170 HD
ENDBRANCH  19  21
ENDBRANCH  18  19
ENDBRANCH   1  18
TORSDOF 5
ENDMDL
MODEL 8
REMARK VINA RESULT:     -11.5      7.158     11.959
REMARK  Name = 6918248
REMARK  5 active torsions:
REMARK  status: ('A' for Active; 'I' for Inactive)
REMARK    1  A    between atoms: N_1  and  C_18
REMARK    2  A    between atoms: N_2  and  C_8
REMARK    3  A    between atoms: C_11  and  C_17
REMARK    4  A    between atoms: C_18  and  C_19
REMARK    5  A    between atoms: C_19  and  N_21
REMARK                            x       y       z     vdW  Elec       q    Type
REMARK                         _______ _______ _______ _____ _____    ______ ____
ROOT
ATOM      1  N   UNL     1      33.975 -19.908 -21.661  0.00  0.00    +0.391 N 
ATOM      2  N   UNL     1      34.186 -21.057 -19.053  0.00  0.00    -0.312 N 
ATOM      3  C   UNL     1      35.219 -19.783 -20.893  0.00  0.00    -0.055 C 
ATOM      4  C   UNL     1      32.823 -19.902 -20.749  0.00  0.00    -0.055 C 
ATOM      5  C   UNL     1      35.376 -20.942 -19.906  0.00  0.00    +0.068 C 
ATOM      6  C   UNL     1      32.900 -21.065 -19.758  0.00  0.00    +0.068 C 
ATOM      7  H   UNL     1      33.988 -20.794 -22.167  0.00  0.00    -0.079 HD
ENDROOT
BRANCH   2   8
ATOM      8  C   UNL     1      34.314 -21.731 -17.834  0.00  0.00    +0.048 C 
ATOM      9  C   UNL     1      35.561 -21.827 -17.185  0.00  0.00    +0.018 C 
ATOM     10  C   UNL     1      33.199 -22.333 -17.217  0.00  0.00    +0.015 C 
ATOM     11  C   UNL     1      35.687 -22.498 -15.968  0.00  0.00    +0.073 C 
ATOM     12  C   UNL     1      33.325 -23.003 -16.000  0.00  0.00    +0.001 C 
ATOM     13  C   UNL     1      34.570 -23.086 -15.376  0.00  0.00    +0.004 C 
BRANCH  11  17
ATOM     14  F   UNL     1      37.044 -22.028 -14.055  0.00  0.00    -0.166 F 
ATOM     15  F   UNL     1      37.456 -23.869 -15.126  0.00  0.00    -0.166 F 
ATOM     16  F   UNL     1      38.003 -21.958 -16.006  0.00  0.00    -0.166 F 
ATOM     17  C   UNL     1      37.018 -22.588 -15.301  0.00  0.00    +0.419 C 
ENDBRANCH  11  17
ENDBRANCH   2   8
BRANCH   1  18
ATOM     18  C   UNL     1      33.863 -18.826 -22.638  0.00  0.00    -0.052 C 
BRANCH  18  19
ATOM     19  C   UNL     1      34.646 -17.609 -22.170  0.00  0.00    +0.088 C 
BRANCH  19  21
ATOM     20  O   UNL     1      34.085 -17.183 -25.105  0.00  0.00    -0.247 OA
ATOM     21  N   UNL     1      34.219 -16.420 -22.856  0.00  0.00    -0.282 N 
ATOM     22  N   UNL     1      33.578 -14.961 -24.476  0.00  0.00    -0.305 N 
ATOM     23  C   UNL     1      33.972 -15.174 -22.255  0.00  0.00    +0.079 A 
ATOM     24  C   UNL     1      33.977 -16.310 -24.256  0.00  0.00    +0.328 A 
ATOM     25  C   UNL     1      33.579 -14.285 -23.254  0.00  0.00    +0.076 A 
ATOM     26  C   UNL     1      34.065 -14.780 -20.936  0.00  0.00    +0.019 C 
ATOM     27  C   UNL     1      33.262 -12.971 -22.992  0.00  0.00    +0.019 C 
ATOM     28  C   UNL     1      33.747 -13.449 -20.645  0.00  0.00    +0.002 C 
ATOM     29  C   UNL     1      33.350 -12.555 -21.661  0.00  0.00    +0.002 C 
ATOM     30  H   UNL     1      33.339 -14.569 -25.347  0.00  0.00    +0.170 HD
ENDBRANCH  19  21
ENDBRANCH  18  19
ENDBRANCH   1  18
TORSDOF 5
ENDMDL
MODEL 9
REMARK VINA RESULT:     -11.4      4.753     10.280
REMARK  Name = 6918248
REMARK  5 active torsions:
REMARK  status: ('A' for Active; 'I' for Inactive)
REMARK    1  A    between atoms: N_1  and  C_18
REMARK    2  A    between atoms: N_2  and  C_8
REMARK    3  A    between atoms: C_11  and  C_17
REMARK    4  A    between atoms: C_18  and  C_19
REMARK    5  A    between atoms: C_19  and  N_21
REMARK                            x       y       z     vdW  Elec       q    Type
REMARK                         _______ _______ _______ _____ _____    ______ ____
ROOT
ATOM      1  N   UNL     1      31.454 -10.170 -22.062  0.00  0.00    +0.391 N 
ATOM      2  N   UNL     1      32.691 -12.658 -22.728  0.00  0.00    -0.312 N 
ATOM      3  C   UNL     1      32.617 -10.205 -22.956  0.00  0.00    -0.055 C 
ATOM      4  C   UNL     1      31.563 -11.239 -21.060  0.00  0.00    -0.055 C 
ATOM      5  C   UNL     1      32.708 -11.546 -23.687  0.00  0.00    +0.068 C 
ATOM      6  C   UNL     1      31.620 -12.615 -21.728  0.00  0.00    +0.068 C 
ATOM      7  H   UNL     1      30.609 -10.323 -22.613  0.00  0.00    -0.079 HD
ENDROOT
BRANCH   2   8
ATOM      8  C   UNL     1      33.206 -13.891 -23.142  0.00  0.00    +0.048 C 
ATOM      9  C   UNL     1      33.768 -14.792 -22.216  0.00  0.00    +0.018 C 
ATOM     10  C   UNL     1      33.177 -14.271 -24.499  0.00  0.00    +0.015 C 
ATOM     11  C   UNL     1      34.280 -16.021 -22.629  0.00  0.00    +0.073 C 
ATOM     12  C   UNL     1      33.688 -15.501 -24.913  0.00  0.00    +0.001 C 
ATOM     13  C   UNL     1      34.241 -16.376 -23.978  0.00  0.00    +0.004 C 
BRANCH  11  17
ATOM     14  F   UNL     1      36.182 -17.258 -21.871  0.00  0.00    -0.166 F 
ATOM     15  F   UNL     1      34.845 -16.480 -20.351  0.00  0.00    -0.166 F 
ATOM     16  F   UNL     1      34.223 -18.157 -21.587  0.00  0.00    -0.166 F 
ATOM     17  C   UNL     1      34.872 -16.957 -21.630  0.00  0.00    +0.419 C 
ENDBRANCH  11  17
ENDBRANCH   2   8
BRANCH   1  18
ATOM     18  C   UNL     1      31.346  -8.865 -21.410  0.00  0.00    -0.052 C 
BRANCH  18  19
ATOM     19  C   UNL     1      32.372  -7.901 -21.985  0.00  0.00    +0.088 C 
BRANCH  19  21
ATOM     20  O   UNL     1      32.414  -6.487 -19.318  0.00  0.00    -0.247 OA
ATOM     21  N   UNL     1      32.041  -6.539 -21.667  0.00  0.00    -0.282 N 
ATOM     22  N   UNL     1      31.681  -4.599 -20.538  0.00  0.00    -0.305 N 
ATOM     23  C   UNL     1      31.615  -5.565 -22.586  0.00  0.00    +0.079 A 
ATOM     24  C   UNL     1      32.090  -5.953 -20.369  0.00  0.00    +0.328 A 
ATOM     25  C   UNL     1      31.396  -4.380 -21.887  0.00  0.00    +0.076 A 
ATOM     26  C   UNL     1      31.413  -5.646 -23.949  0.00  0.00    +0.019 C 
ATOM     27  C   UNL     1      30.969  -3.225 -22.505  0.00  0.00    +0.019 C 
ATOM     28  C   UNL     1      30.979  -4.486 -24.598  0.00  0.00    +0.002 C 
ATOM     29  C   UNL     1      30.760  -3.289 -23.885  0.00  0.00    +0.002 C 
ATOM     30  H   UNL     1      31.610  -3.929 -19.822  0.00  0.00    +0.170 HD
ENDBRANCH  19  21
ENDBRANCH  18  19
ENDBRANCH   1  18
TORSDOF 5
ENDMDL
