MODEL 1
REMARK VINA RESULT:     -11.6      0.000      0.000
REMARK  Name = 54575171
REMARK  9 active torsions:
REMARK  status: ('A' for Active; 'I' for Inactive)
REMARK    1  A    between atoms: N_2  and  C_17
REMARK    2  A    between atoms: C_3  and  C_6
REMARK    3  A    between atoms: C_7  and  O_15
REMARK    4  A    between atoms: C_11  and  N_12
REMARK    5  A    between atoms: C_17  and  C_19
REMARK    6  A    between atoms: N_18  and  C_25
REMARK    7  A    between atoms: C_25  and  C_26
REMARK    8  A    between atoms: C_26  and  C_27
REMARK    9  A    between atoms: C_27  and  N_28
REMARK                            x       y       z     vdW  Elec       q    Type
REMARK                         _______ _______ _______ _____ _____    ______ ____
ROOT
ATOM      1  O   UNL     1      34.804 -16.434 -20.314  0.00  0.00    -0.270 OA
ATOM      2  N   UNL     1      35.615 -17.867 -21.949  0.00  0.00    -0.301 N 
ATOM      3  C   UNL     1      34.937 -16.738 -21.497  0.00  0.00    +0.249 C 
ATOM      4  H   UNL     1      35.668 -18.027 -22.918  0.00  0.00    +0.150 HD
ENDROOT
BRANCH   3   6
ATOM      5 CL   UNL     1      33.225 -12.048 -22.830  0.00  0.00    -0.081 Cl
ATOM      6  C   UNL     1      34.323 -15.876 -22.540  0.00  0.00    +0.088 C 
ATOM      7  C   UNL     1      33.990 -16.395 -23.792  0.00  0.00    +0.144 C 
ATOM      8  C   UNL     1      34.081 -14.532 -22.255  0.00  0.00    +0.020 C 
ATOM      9  C   UNL     1      33.417 -15.569 -24.758  0.00  0.00    +0.052 C 
ATOM     10  C   UNL     1      33.506 -13.707 -23.222  0.00  0.00    +0.071 C 
ATOM     11  C   UNL     1      33.174 -14.226 -24.474  0.00  0.00    +0.055 C 
BRANCH  11  12
ATOM     12  N   UNL     1      32.591 -13.415 -25.473  0.00  0.00    -0.356 N 
ATOM     13  H   UNL     1      33.081 -12.637 -25.825  0.00  0.00    +0.142 HD
ATOM     14  H   UNL     1      31.693 -13.627 -25.818  0.00  0.00    +0.142 HD
ENDBRANCH  11  12
BRANCH   7  15
ATOM     15  O   UNL     1      34.221 -17.704 -24.090  0.00  0.00    -0.471 OA
ATOM     16  C   UNL     1      33.095 -18.486 -24.484  0.00  0.00    +0.252 C 
ENDBRANCH   7  15
ENDBRANCH   3   6
BRANCH   2  17
ATOM     17  C   UNL     1      36.238 -18.805 -21.065  0.00  0.00    +0.089 C 
BRANCH  17  19
ATOM     18  N   UNL     1      33.331 -21.036 -18.778  0.00  0.00    +0.387 N 
ATOM     19  C   UNL     1      35.269 -19.916 -20.673  0.00  0.00    +0.015 C 
ATOM     20  C   UNL     1      33.839 -19.380 -20.546  0.00  0.00    -0.021 C 
ATOM     21  C   UNL     1      35.693 -20.577 -19.356  0.00  0.00    -0.021 C 
ATOM     22  C   UNL     1      32.879 -20.466 -20.054  0.00  0.00    -0.077 C 
ATOM     23  C   UNL     1      34.671 -21.624 -18.906  0.00  0.00    -0.077 C 
ATOM     24  H   UNL     1      33.384 -20.279 -18.097  0.00  0.00    -0.080 HD
BRANCH  18  25
ATOM     25  C   UNL     1      32.377 -22.035 -18.297  0.00  0.00    -0.076 C 
BRANCH  25  26
ATOM     26  C   UNL     1      33.107 -23.143 -17.538  0.00  0.00    +0.001 C 
BRANCH  26  27
ATOM     27  C   UNL     1      33.277 -22.779 -16.062  0.00  0.00    +0.116 C 
BRANCH  27  28
ATOM     28  N   UNL     1      34.647 -23.147 -15.551  0.00  0.00    -0.191 N 
ATOM     29  N   UNL     1      35.027 -24.432 -15.474  0.00  0.00    -0.073 NA
ATOM     30  N   UNL     1      36.265 -24.449 -14.993  0.00  0.00    -0.129 NA
ATOM     31  C   UNL     1      35.629 -22.307 -15.123  0.00  0.00    +0.108 C 
ATOM     32  C   UNL     1      36.648 -23.155 -14.774  0.00  0.00    +0.141 C 
ENDBRANCH  27  28
ENDBRANCH  26  27
ENDBRANCH  25  26
ENDBRANCH  18  25
ENDBRANCH  17  19
ENDBRANCH   2  17
TORSDOF 9
ENDMDL
MODEL 2
REMARK VINA RESULT:     -11.6      3.650      9.743
REMARK  Name = 54575171
REMARK  9 active torsions:
REMARK  status: ('A' for Active; 'I' for Inactive)
REMARK    1  A    between atoms: N_2  and  C_17
REMARK    2  A    between atoms: C_3  and  C_6
REMARK    3  A    between atoms: C_7  and  O_15
REMARK    4  A    between atoms: C_11  and  N_12
REMARK    5  A    between atoms: C_17  and  C_19
REMARK    6  A    between atoms: N_18  and  C_25
REMARK    7  A    between atoms: C_25  and  C_26
REMARK    8  A    between atoms: C_26  and  C_27
REMARK    9  A    between atoms: C_27  and  N_28
REMARK                            x       y       z     vdW  Elec       q    Type
REMARK                         _______ _______ _______ _____ _____    ______ ____
ROOT
ATOM      1  O   UNL     1      33.510 -23.060 -19.343  0.00  0.00    -0.270 OA
ATOM      2  N   UNL     1      34.846 -21.461 -18.321  0.00  0.00    -0.301 N 
ATOM      3  C   UNL     1      33.830 -22.414 -18.348  0.00  0.00    +0.249 C 
ATOM      4  H   UNL     1      35.029 -20.994 -17.475  0.00  0.00    +0.150 HD
ENDROOT
BRANCH   3   6
ATOM      5 CL   UNL     1      29.277 -22.393 -15.905  0.00  0.00    -0.081 Cl
ATOM      6  C   UNL     1      33.086 -22.622 -17.078  0.00  0.00    +0.088 C 
ATOM      7  C   UNL     1      33.754 -22.997 -15.912  0.00  0.00    +0.144 C 
ATOM      8  C   UNL     1      31.704 -22.438 -17.063  0.00  0.00    +0.020 C 
ATOM      9  C   UNL     1      33.037 -23.189 -14.731  0.00  0.00    +0.052 C 
ATOM     10  C   UNL     1      30.987 -22.629 -15.882  0.00  0.00    +0.071 C 
ATOM     11  C   UNL     1      31.655 -23.005 -14.715  0.00  0.00    +0.055 C 
BRANCH  11  12
ATOM     12  N   UNL     1      30.957 -23.206 -13.503  0.00  0.00    -0.356 N 
ATOM     13  H   UNL     1      31.287 -23.862 -12.848  0.00  0.00    +0.142 HD
ATOM     14  H   UNL     1      30.140 -22.691 -13.313  0.00  0.00    +0.142 HD
ENDBRANCH  11  12
BRANCH   7  15
ATOM     15  O   UNL     1      35.103 -23.184 -15.907  0.00  0.00    -0.471 OA
ATOM     16  C   UNL     1      35.856 -22.440 -14.951  0.00  0.00    +0.252 C 
ENDBRANCH   7  15
ENDBRANCH   3   6
BRANCH   2  17
ATOM     17  C   UNL     1      35.634 -21.133 -19.469  0.00  0.00    +0.089 C 
BRANCH  17  19
ATOM     18  N   UNL     1      34.913 -18.129 -22.488  0.00  0.00    +0.387 N 
ATOM     19  C   UNL     1      35.143 -19.844 -20.121  0.00  0.00    +0.015 C 
ATOM     20  C   UNL     1      34.161 -20.140 -21.259  0.00  0.00    -0.021 C 
ATOM     21  C   UNL     1      36.318 -19.014 -20.653  0.00  0.00    -0.021 C 
ATOM     22  C   UNL     1      33.743 -18.859 -21.982  0.00  0.00    -0.077 C 
ATOM     23  C   UNL     1      35.826 -17.769 -21.396  0.00  0.00    -0.077 C 
ATOM     24  H   UNL     1      35.416 -18.745 -23.127  0.00  0.00    -0.080 HD
BRANCH  18  25
ATOM     25  C   UNL     1      34.494 -16.934 -23.220  0.00  0.00    -0.076 C 
BRANCH  25  26
ATOM     26  C   UNL     1      34.504 -15.716 -22.297  0.00  0.00    +0.001 C 
BRANCH  26  27
ATOM     27  C   UNL     1      34.118 -14.445 -23.057  0.00  0.00    +0.116 C 
BRANCH  27  28
ATOM     28  N   UNL     1      33.126 -13.613 -22.285  0.00  0.00    -0.191 N 
ATOM     29  N   UNL     1      32.248 -12.824 -22.925  0.00  0.00    -0.073 NA
ATOM     30  N   UNL     1      31.512 -12.220 -21.998  0.00  0.00    -0.129 NA
ATOM     31  C   UNL     1      32.978 -13.536 -20.934  0.00  0.00    +0.108 C 
ATOM     32  C   UNL     1      31.947 -12.646 -20.773  0.00  0.00    +0.141 C 
ENDBRANCH  27  28
ENDBRANCH  26  27
ENDBRANCH  25  26
ENDBRANCH  18  25
ENDBRANCH  17  19
ENDBRANCH   2  17
TORSDOF 9
ENDMDL
MODEL 3
REMARK VINA RESULT:     -11.6      1.801      2.166
REMARK  Name = 54575171
REMARK  9 active torsions:
REMARK  status: ('A' for Active; 'I' for Inactive)
REMARK    1  A    between atoms: N_2  and  C_17
REMARK    2  A    between atoms: C_3  and  C_6
REMARK    3  A    between atoms: C_7  and  O_15
REMARK    4  A    between atoms: C_11  and  N_12
REMARK    5  A    between atoms: C_17  and  C_19
REMARK    6  A    between atoms: N_18  and  C_25
REMARK    7  A    between atoms: C_25  and  C_26
REMARK    8  A    between atoms: C_26  and  C_27
REMARK    9  A    between atoms: C_27  and  N_28
REMARK                            x       y       z     vdW  Elec       q    Type
REMARK                         _______ _______ _______ _____ _____    ______ ____
ROOT
ATOM      1  O   UNL     1      34.653 -16.242 -20.309  0.00  0.00    -0.270 OA
ATOM      2  N   UNL     1      35.587 -17.681 -21.872  0.00  0.00    -0.301 N 
ATOM      3  C   UNL     1      34.849 -16.568 -21.477  0.00  0.00    +0.249 C 
ATOM      4  H   UNL     1      35.689 -17.861 -22.834  0.00  0.00    +0.150 HD
ENDROOT
BRANCH   3   6
ATOM      5 CL   UNL     1      33.133 -11.949 -23.035  0.00  0.00    -0.081 Cl
ATOM      6  C   UNL     1      34.250 -15.754 -22.567  0.00  0.00    +0.088 C 
ATOM      7  C   UNL     1      33.947 -16.326 -23.803  0.00  0.00    +0.144 C 
ATOM      8  C   UNL     1      33.994 -14.401 -22.342  0.00  0.00    +0.020 C 
ATOM      9  C   UNL     1      33.388 -15.544 -24.814  0.00  0.00    +0.052 C 
ATOM     10  C   UNL     1      33.434 -13.620 -23.353  0.00  0.00    +0.071 C 
ATOM     11  C   UNL     1      33.131 -14.192 -24.590  0.00  0.00    +0.055 C 
BRANCH  11  12
ATOM     12  N   UNL     1      32.563 -13.427 -25.632  0.00  0.00    -0.356 N 
ATOM     13  H   UNL     1      32.924 -13.494 -26.545  0.00  0.00    +0.142 HD
ATOM     14  H   UNL     1      31.806 -12.826 -25.447  0.00  0.00    +0.142 HD
ENDBRANCH  11  12
BRANCH   7  15
ATOM     15  O   UNL     1      34.193 -17.644 -24.043  0.00  0.00    -0.471 OA
ATOM     16  C   UNL     1      33.098 -18.432 -24.506  0.00  0.00    +0.252 C 
ENDBRANCH   7  15
ENDBRANCH   3   6
BRANCH   2  17
ATOM     17  C   UNL     1      36.204 -18.574 -20.939  0.00  0.00    +0.089 C 
BRANCH  17  19
ATOM     18  N   UNL     1      33.460 -21.207 -18.889  0.00  0.00    +0.387 N 
ATOM     19  C   UNL     1      35.310 -19.780 -20.660  0.00  0.00    +0.015 C 
ATOM     20  C   UNL     1      33.850 -19.353 -20.481  0.00  0.00    -0.021 C 
ATOM     21  C   UNL     1      35.785 -20.541 -19.417  0.00  0.00    -0.021 C 
ATOM     22  C   UNL     1      32.964 -20.542 -20.102  0.00  0.00    -0.077 C 
ATOM     23  C   UNL     1      34.834 -21.691 -19.075  0.00  0.00    -0.077 C 
ATOM     24  H   UNL     1      33.468 -20.520 -18.135  0.00  0.00    -0.080 HD
BRANCH  18  25
ATOM     25  C   UNL     1      32.575 -22.309 -18.512  0.00  0.00    -0.076 C 
BRANCH  25  26
ATOM     26  C   UNL     1      32.596 -22.511 -16.997  0.00  0.00    +0.001 C 
BRANCH  26  27
ATOM     27  C   UNL     1      31.178 -22.508 -16.421  0.00  0.00    +0.116 C 
BRANCH  27  28
ATOM     28  N   UNL     1      31.137 -23.109 -15.039  0.00  0.00    -0.191 N 
ATOM     29  N   UNL     1      31.742 -22.498 -14.008  0.00  0.00    -0.073 NA
ATOM     30  N   UNL     1      31.541 -23.249 -12.931  0.00  0.00    -0.129 NA
ATOM     31  C   UNL     1      30.532 -24.266 -14.652  0.00  0.00    +0.108 C 
ATOM     32  C   UNL     1      30.801 -24.335 -13.309  0.00  0.00    +0.141 C 
ENDBRANCH  27  28
ENDBRANCH  26  27
ENDBRANCH  25  26
ENDBRANCH  18  25
ENDBRANCH  17  19
ENDBRANCH   2  17
TORSDOF 9
ENDMDL
MODEL 4
REMARK VINA RESULT:     -11.6      2.933      4.080
REMARK  Name = 54575171
REMARK  9 active torsions:
REMARK  status: ('A' for Active; 'I' for Inactive)
REMARK    1  A    between atoms: N_2  and  C_17
REMARK    2  A    between atoms: C_3  and  C_6
REMARK    3  A    between atoms: C_7  and  O_15
REMARK    4  A    between atoms: C_11  and  N_12
REMARK    5  A    between atoms: C_17  and  C_19
REMARK    6  A    between atoms: N_18  and  C_25
REMARK    7  A    between atoms: C_25  and  C_26
REMARK    8  A    between atoms: C_26  and  C_27
REMARK    9  A    between atoms: C_27  and  N_28
REMARK                            x       y       z     vdW  Elec       q    Type
REMARK                         _______ _______ _______ _____ _____    ______ ____
ROOT
ATOM      1  O   UNL     1      36.498 -17.780 -21.254  0.00  0.00    -0.270 OA
ATOM      2  N   UNL     1      34.525 -19.002 -21.300  0.00  0.00    -0.301 N 
ATOM      3  C   UNL     1      35.303 -17.870 -21.529  0.00  0.00    +0.249 C 
ATOM      4  H   UNL     1      33.575 -18.979 -21.554  0.00  0.00    +0.150 HD
ENDROOT
BRANCH   3   6
ATOM      5 CL   UNL     1      33.546 -13.052 -20.900  0.00  0.00    -0.081 Cl
ATOM      6  C   UNL     1      34.607 -16.701 -22.125  0.00  0.00    +0.088 C 
ATOM      7  C   UNL     1      34.149 -16.737 -23.442  0.00  0.00    +0.144 C 
ATOM      8  C   UNL     1      34.414 -15.557 -21.350  0.00  0.00    +0.020 C 
ATOM      9  C   UNL     1      33.500 -15.628 -23.984  0.00  0.00    +0.052 C 
ATOM     10  C   UNL     1      33.763 -14.449 -21.892  0.00  0.00    +0.071 C 
ATOM     11  C   UNL     1      33.306 -14.484 -23.210  0.00  0.00    +0.055 C 
BRANCH  11  12
ATOM     12  N   UNL     1      32.643 -13.378 -23.787  0.00  0.00    -0.356 N 
ATOM     13  H   UNL     1      32.952 -13.013 -24.647  0.00  0.00    +0.142 HD
ATOM     14  H   UNL     1      31.873 -12.971 -23.329  0.00  0.00    +0.142 HD
ENDBRANCH  11  12
BRANCH   7  15
ATOM     15  O   UNL     1      34.330 -17.843 -24.216  0.00  0.00    -0.471 OA
ATOM     16  C   UNL     1      33.167 -18.603 -24.541  0.00  0.00    +0.252 C 
ENDBRANCH   7  15
ENDBRANCH   3   6
BRANCH   2  17
ATOM     17  C   UNL     1      35.048 -20.198 -20.710  0.00  0.00    +0.089 C 
BRANCH  17  19
ATOM     18  N   UNL     1      32.924 -22.525 -17.755  0.00  0.00    +0.387 N 
ATOM     19  C   UNL     1      34.300 -20.548 -19.427  0.00  0.00    +0.015 C 
ATOM     20  C   UNL     1      35.054 -21.612 -18.623  0.00  0.00    -0.021 C 
ATOM     21  C   UNL     1      32.880 -21.039 -19.733  0.00  0.00    -0.021 C 
ATOM     22  C   UNL     1      34.261 -22.041 -17.386  0.00  0.00    -0.077 C 
ATOM     23  C   UNL     1      32.160 -21.486 -18.459  0.00  0.00    -0.077 C 
ATOM     24  H   UNL     1      33.039 -23.315 -18.390  0.00  0.00    -0.080 HD
BRANCH  18  25
ATOM     25  C   UNL     1      32.199 -22.979 -16.568  0.00  0.00    -0.076 C 
BRANCH  25  26
ATOM     26  C   UNL     1      30.855 -22.258 -16.461  0.00  0.00    +0.001 C 
BRANCH  26  27
ATOM     27  C   UNL     1      29.809 -23.142 -15.777  0.00  0.00    +0.116 C 
BRANCH  27  28
ATOM     28  N   UNL     1      28.406 -22.732 -16.145  0.00  0.00    -0.191 N 
ATOM     29  N   UNL     1      27.859 -23.126 -17.306  0.00  0.00    -0.073 NA
ATOM     30  N   UNL     1      26.633 -22.619 -17.358  0.00  0.00    -0.129 NA
ATOM     31  C   UNL     1      27.547 -21.963 -15.422  0.00  0.00    +0.108 C 
ATOM     32  C   UNL     1      26.426 -21.904 -16.210  0.00  0.00    +0.141 C 
ENDBRANCH  27  28
ENDBRANCH  26  27
ENDBRANCH  25  26
ENDBRANCH  18  25
ENDBRANCH  17  19
ENDBRANCH   2  17
TORSDOF 9
ENDMDL
MODEL 5
REMARK VINA RESULT:     -11.5      4.419     10.376
REMARK  Name = 54575171
REMARK  9 active torsions:
REMARK  status: ('A' for Active; 'I' for Inactive)
REMARK    1  A    between atoms: N_2  and  C_17
REMARK    2  A    between atoms: C_3  and  C_6
REMARK    3  A    between atoms: C_7  and  O_15
REMARK    4  A    between atoms: C_11  and  N_12
REMARK    5  A    between atoms: C_17  and  C_19
REMARK    6  A    between atoms: N_18  and  C_25
REMARK    7  A    between atoms: C_25  and  C_26
REMARK    8  A    between atoms: C_26  and  C_27
REMARK    9  A    between atoms: C_27  and  N_28
REMARK                            x       y       z     vdW  Elec       q    Type
REMARK                         _______ _______ _______ _____ _____    ______ ____
ROOT
ATOM      1  O   UNL     1      32.311 -22.968 -14.724  0.00  0.00    -0.270 OA
ATOM      2  N   UNL     1      33.733 -22.766 -16.547  0.00  0.00    -0.301 N 
ATOM      3  C   UNL     1      33.444 -22.974 -15.201  0.00  0.00    +0.249 C 
ATOM      4  H   UNL     1      34.673 -22.789 -16.835  0.00  0.00    +0.150 HD
ENDROOT
BRANCH   3   6
ATOM      5 CL   UNL     1      35.145 -24.310 -10.508  0.00  0.00    -0.081 Cl
ATOM      6  C   UNL     1      34.608 -23.190 -14.302  0.00  0.00    +0.088 C 
ATOM      7  C   UNL     1      35.910 -22.993 -14.761  0.00  0.00    +0.144 C 
ATOM      8  C   UNL     1      34.384 -23.596 -12.987  0.00  0.00    +0.020 C 
ATOM      9  C   UNL     1      36.990 -23.203 -13.903  0.00  0.00    +0.052 C 
ATOM     10  C   UNL     1      35.464 -23.806 -12.129  0.00  0.00    +0.071 C 
ATOM     11  C   UNL     1      36.768 -23.609 -12.587  0.00  0.00    +0.055 C 
BRANCH  11  12
ATOM     12  N   UNL     1      37.881 -23.812 -11.742  0.00  0.00    -0.356 N 
ATOM     13  H   UNL     1      38.577 -24.462 -11.992  0.00  0.00    +0.142 HD
ATOM     14  H   UNL     1      37.961 -23.305 -10.901  0.00  0.00    +0.142 HD
ENDBRANCH  11  12
BRANCH   7  15
ATOM     15  O   UNL     1      36.150 -22.598 -16.042  0.00  0.00    -0.471 OA
ATOM     16  C   UNL     1      37.214 -21.671 -16.246  0.00  0.00    +0.252 C 
ENDBRANCH   7  15
ENDBRANCH   3   6
BRANCH   2  17
ATOM     17  C   UNL     1      32.721 -22.521 -17.530  0.00  0.00    +0.089 C 
BRANCH  17  19
ATOM     18  N   UNL     1      34.571 -19.678 -20.205  0.00  0.00    +0.387 N 
ATOM     19  C   UNL     1      33.324 -21.930 -18.801  0.00  0.00    +0.015 C 
ATOM     20  C   UNL     1      34.789 -21.537 -18.586  0.00  0.00    -0.021 C 
ATOM     21  C   UNL     1      32.524 -20.711 -19.275  0.00  0.00    -0.021 C 
ATOM     22  C   UNL     1      35.370 -20.852 -19.825  0.00  0.00    -0.077 C 
ATOM     23  C   UNL     1      33.181 -20.054 -20.491  0.00  0.00    -0.077 C 
ATOM     24  H   UNL     1      34.567 -19.032 -19.416  0.00  0.00    -0.080 HD
BRANCH  18  25
ATOM     25  C   UNL     1      35.168 -19.006 -21.359  0.00  0.00    -0.076 C 
BRANCH  25  26
ATOM     26  C   UNL     1      35.234 -17.498 -21.119  0.00  0.00    +0.001 C 
BRANCH  26  27
ATOM     27  C   UNL     1      34.715 -16.724 -22.333  0.00  0.00    +0.116 C 
BRANCH  27  28
ATOM     28  N   UNL     1      34.302 -15.321 -21.965  0.00  0.00    -0.191 N 
ATOM     29  N   UNL     1      34.187 -14.957 -20.678  0.00  0.00    -0.073 NA
ATOM     30  N   UNL     1      33.813 -13.682 -20.661  0.00  0.00    -0.129 NA
ATOM     31  C   UNL     1      34.006 -14.293 -22.806  0.00  0.00    +0.108 C 
ATOM     32  C   UNL     1      33.699 -13.261 -21.957  0.00  0.00    +0.141 C 
ENDBRANCH  27  28
ENDBRANCH  26  27
ENDBRANCH  25  26
ENDBRANCH  18  25
ENDBRANCH  17  19
ENDBRANCH   2  17
TORSDOF 9
ENDMDL
MODEL 6
REMARK VINA RESULT:     -11.5      1.486      2.049
REMARK  Name = 54575171
REMARK  9 active torsions:
REMARK  status: ('A' for Active; 'I' for Inactive)
REMARK    1  A    between atoms: N_2  and  C_17
REMARK    2  A    between atoms: C_3  and  C_6
REMARK    3  A    between atoms: C_7  and  O_15
REMARK    4  A    between atoms: C_11  and  N_12
REMARK    5  A    between atoms: C_17  and  C_19
REMARK    6  A    between atoms: N_18  and  C_25
REMARK    7  A    between atoms: C_25  and  C_26
REMARK    8  A    between atoms: C_26  and  C_27
REMARK    9  A    between atoms: C_27  and  N_28
REMARK                            x       y       z     vdW  Elec       q    Type
REMARK                         _______ _______ _______ _____ _____    ______ ____
ROOT
ATOM      1  O   UNL     1      36.423 -17.892 -22.022  0.00  0.00    -0.270 OA
ATOM      2  N   UNL     1      34.358 -18.881 -21.645  0.00  0.00    -0.301 N 
ATOM      3  C   UNL     1      35.195 -17.836 -22.025  0.00  0.00    +0.249 C 
ATOM      4  H   UNL     1      33.385 -18.741 -21.681  0.00  0.00    +0.150 HD
ENDROOT
BRANCH   3   6
ATOM      5 CL   UNL     1      33.718 -13.060 -20.718  0.00  0.00    -0.081 Cl
ATOM      6  C   UNL     1      34.528 -16.572 -22.434  0.00  0.00    +0.088 C 
ATOM      7  C   UNL     1      34.002 -16.426 -23.718  0.00  0.00    +0.144 C 
ATOM      8  C   UNL     1      34.434 -15.526 -21.517  0.00  0.00    +0.020 C 
ATOM      9  C   UNL     1      33.382 -15.231 -24.084  0.00  0.00    +0.052 C 
ATOM     10  C   UNL     1      33.813 -14.331 -21.883  0.00  0.00    +0.071 C 
ATOM     11  C   UNL     1      33.286 -14.184 -23.167  0.00  0.00    +0.055 C 
BRANCH  11  12
ATOM     12  N   UNL     1      32.652 -12.987 -23.566  0.00  0.00    -0.356 N 
ATOM     13  H   UNL     1      31.690 -12.986 -23.778  0.00  0.00    +0.142 HD
ATOM     14  H   UNL     1      33.170 -12.153 -23.635  0.00  0.00    +0.142 HD
ENDBRANCH  11  12
BRANCH   7  15
ATOM     15  O   UNL     1      34.086 -17.435 -24.629  0.00  0.00    -0.471 OA
ATOM     16  C   UNL     1      32.967 -18.313 -24.726  0.00  0.00    +0.252 C 
ENDBRANCH   7  15
ENDBRANCH   3   6
BRANCH   2  17
ATOM     17  C   UNL     1      34.851 -20.151 -21.203  0.00  0.00    +0.089 C 
BRANCH  17  19
ATOM     18  N   UNL     1      33.691 -22.387 -17.694  0.00  0.00    +0.387 N 
ATOM     19  C   UNL     1      34.401 -20.448 -19.776  0.00  0.00    +0.015 C 
ATOM     20  C   UNL     1      35.453 -21.271 -19.026  0.00  0.00    -0.021 C 
ATOM     21  C   UNL     1      33.058 -21.188 -19.765  0.00  0.00    -0.021 C 
ATOM     22  C   UNL     1      34.965 -21.658 -17.628  0.00  0.00    -0.077 C 
ATOM     23  C   UNL     1      32.651 -21.577 -18.342  0.00  0.00    -0.077 C 
ATOM     24  H   UNL     1      33.836 -23.223 -18.260  0.00  0.00    -0.080 HD
BRANCH  18  25
ATOM     25  C   UNL     1      33.265 -22.794 -16.355  0.00  0.00    -0.076 C 
BRANCH  25  26
ATOM     26  C   UNL     1      34.442 -22.732 -15.383  0.00  0.00    +0.001 C 
BRANCH  26  27
ATOM     27  C   UNL     1      34.354 -23.849 -14.340  0.00  0.00    +0.116 C 
BRANCH  27  28
ATOM     28  N   UNL     1      35.409 -24.902 -14.560  0.00  0.00    -0.191 N 
ATOM     29  N   UNL     1      35.266 -25.824 -15.527  0.00  0.00    -0.073 NA
ATOM     30  N   UNL     1      36.337 -26.610 -15.484  0.00  0.00    -0.129 NA
ATOM     31  C   UNL     1      36.572 -25.072 -13.873  0.00  0.00    +0.108 C 
ATOM     32  C   UNL     1      37.146 -26.162 -14.477  0.00  0.00    +0.141 C 
ENDBRANCH  27  28
ENDBRANCH  26  27
ENDBRANCH  25  26
ENDBRANCH  18  25
ENDBRANCH  17  19
ENDBRANCH   2  17
TORSDOF 9
ENDMDL
MODEL 7
REMARK VINA RESULT:     -11.4      3.468      5.865
REMARK  Name = 54575171
REMARK  9 active torsions:
REMARK  status: ('A' for Active; 'I' for Inactive)
REMARK    1  A    between atoms: N_2  and  C_17
REMARK    2  A    between atoms: C_3  and  C_6
REMARK    3  A    between atoms: C_7  and  O_15
REMARK    4  A    between atoms: C_11  and  N_12
REMARK    5  A    between atoms: C_17  and  C_19
REMARK    6  A    between atoms: N_18  and  C_25
REMARK    7  A    between atoms: C_25  and  C_26
REMARK    8  A    between atoms: C_26  and  C_27
REMARK    9  A    between atoms: C_27  and  N_28
REMARK                            x       y       z     vdW  Elec       q    Type
REMARK                         _______ _______ _______ _____ _____    ______ ____
ROOT
ATOM      1  O   UNL     1      31.840 -21.338 -19.965  0.00  0.00    -0.270 OA
ATOM      2  N   UNL     1      33.019 -21.626 -17.987  0.00  0.00    -0.301 N 
ATOM      3  C   UNL     1      32.847 -21.153 -19.286  0.00  0.00    +0.249 C 
ATOM      4  H   UNL     1      33.862 -21.426 -17.522  0.00  0.00    +0.150 HD
ENDROOT
BRANCH   3   6
ATOM      5 CL   UNL     1      34.434 -17.516 -22.596  0.00  0.00    -0.081 Cl
ATOM      6  C   UNL     1      33.986 -20.398 -19.868  0.00  0.00    +0.088 C 
ATOM      7  C   UNL     1      35.295 -20.647 -19.454  0.00  0.00    +0.144 C 
ATOM      8  C   UNL     1      33.733 -19.429 -20.839  0.00  0.00    +0.020 C 
ATOM      9  C   UNL     1      36.351 -19.926 -20.012  0.00  0.00    +0.052 C 
ATOM     10  C   UNL     1      34.790 -18.708 -21.397  0.00  0.00    +0.071 C 
ATOM     11  C   UNL     1      36.099 -18.957 -20.983  0.00  0.00    +0.055 C 
BRANCH  11  12
ATOM     12  N   UNL     1      37.189 -18.244 -21.530  0.00  0.00    -0.356 N 
ATOM     13  H   UNL     1      37.946 -18.732 -21.928  0.00  0.00    +0.142 HD
ATOM     14  H   UNL     1      37.193 -17.260 -21.513  0.00  0.00    +0.142 HD
ENDBRANCH  11  12
BRANCH   7  15
ATOM     15  O   UNL     1      35.562 -21.587 -18.506  0.00  0.00    -0.471 OA
ATOM     16  C   UNL     1      36.489 -21.229 -17.483  0.00  0.00    +0.252 C 
ENDBRANCH   7  15
ENDBRANCH   3   6
BRANCH   2  17
ATOM     17  C   UNL     1      32.022 -22.389 -17.300  0.00  0.00    +0.089 C 
BRANCH  17  19
ATOM     18  N   UNL     1      33.887 -23.108 -13.470  0.00  0.00    +0.387 N 
ATOM     19  C   UNL     1      32.625 -23.141 -16.117  0.00  0.00    +0.015 C 
ATOM     20  C   UNL     1      31.834 -22.874 -14.832  0.00  0.00    -0.021 C 
ATOM     21  C   UNL     1      34.094 -22.754 -15.911  0.00  0.00    -0.021 C 
ATOM     22  C   UNL     1      32.492 -23.543 -13.623  0.00  0.00    -0.077 C 
ATOM     23  C   UNL     1      34.676 -23.429 -14.666  0.00  0.00    -0.077 C 
ATOM     24  H   UNL     1      33.889 -22.094 -13.355  0.00  0.00    -0.080 HD
BRANCH  18  25
ATOM     25  C   UNL     1      34.485 -23.717 -12.282  0.00  0.00    -0.076 C 
BRANCH  25  26
ATOM     26  C   UNL     1      35.938 -23.269 -12.132  0.00  0.00    +0.001 C 
BRANCH  26  27
ATOM     27  C   UNL     1      36.820 -24.418 -11.636  0.00  0.00    +0.116 C 
BRANCH  27  28
ATOM     28  N   UNL     1      37.589 -25.058 -12.764  0.00  0.00    -0.191 N 
ATOM     29  N   UNL     1      37.205 -26.240 -13.271  0.00  0.00    -0.073 NA
ATOM     30  N   UNL     1      38.061 -26.551 -14.238  0.00  0.00    -0.129 NA
ATOM     31  C   UNL     1      38.700 -24.580 -13.390  0.00  0.00    +0.108 C 
ATOM     32  C   UNL     1      38.982 -25.544 -14.324  0.00  0.00    +0.141 C 
ENDBRANCH  27  28
ENDBRANCH  26  27
ENDBRANCH  25  26
ENDBRANCH  18  25
ENDBRANCH  17  19
ENDBRANCH   2  17
TORSDOF 9
ENDMDL
MODEL 8
REMARK VINA RESULT:     -11.3      4.248     10.513
REMARK  Name = 54575171
REMARK  9 active torsions:
REMARK  status: ('A' for Active; 'I' for Inactive)
REMARK    1  A    between atoms: N_2  and  C_17
REMARK    2  A    between atoms: C_3  and  C_6
REMARK    3  A    between atoms: C_7  and  O_15
REMARK    4  A    between atoms: C_11  and  N_12
REMARK    5  A    between atoms: C_17  and  C_19
REMARK    6  A    between atoms: N_18  and  C_25
REMARK    7  A    between atoms: C_25  and  C_26
REMARK    8  A    between atoms: C_26  and  C_27
REMARK    9  A    between atoms: C_27  and  N_28
REMARK                            x       y       z     vdW  Elec       q    Type
REMARK                         _______ _______ _______ _____ _____    ______ ____
ROOT
ATOM      1  O   UNL     1      32.432 -22.756 -15.025  0.00  0.00    -0.270 OA
ATOM      2  N   UNL     1      33.931 -22.648 -16.794  0.00  0.00    -0.301 N 
ATOM      3  C   UNL     1      33.582 -22.809 -15.455  0.00  0.00    +0.249 C 
ATOM      4  H   UNL     1      34.881 -22.707 -17.042  0.00  0.00    +0.150 HD
ENDROOT
BRANCH   3   6
ATOM      5 CL   UNL     1      35.073 -24.381 -10.764  0.00  0.00    -0.081 Cl
ATOM      6  C   UNL     1      34.702 -23.035 -14.504  0.00  0.00    +0.088 C 
ATOM      7  C   UNL     1      36.018 -22.753 -14.871  0.00  0.00    +0.144 C 
ATOM      8  C   UNL     1      34.423 -23.537 -13.233  0.00  0.00    +0.020 C 
ATOM      9  C   UNL     1      37.055 -22.974 -13.965  0.00  0.00    +0.052 C 
ATOM     10  C   UNL     1      35.460 -23.757 -12.327  0.00  0.00    +0.071 C 
ATOM     11  C   UNL     1      36.777 -23.475 -12.693  0.00  0.00    +0.055 C 
BRANCH  11  12
ATOM     12  N   UNL     1      37.849 -23.687 -11.798  0.00  0.00    -0.356 N 
ATOM     13  H   UNL     1      38.771 -23.739 -12.137  0.00  0.00    +0.142 HD
ATOM     14  H   UNL     1      37.674 -23.784 -10.834  0.00  0.00    +0.142 HD
ENDBRANCH  11  12
BRANCH   7  15
ATOM     15  O   UNL     1      36.311 -22.264 -16.108  0.00  0.00    -0.471 OA
ATOM     16  C   UNL     1      37.139 -21.104 -16.166  0.00  0.00    +0.252 C 
ENDBRANCH   7  15
ENDBRANCH   3   6
BRANCH   2  17
ATOM     17  C   UNL     1      32.968 -22.400 -17.823  0.00  0.00    +0.089 C 
BRANCH  17  19
ATOM     18  N   UNL     1      34.843 -19.381 -20.279  0.00  0.00    +0.387 N 
ATOM     19  C   UNL     1      33.618 -21.736 -19.034  0.00  0.00    +0.015 C 
ATOM     20  C   UNL     1      35.048 -21.288 -18.715  0.00  0.00    -0.021 C 
ATOM     21  C   UNL     1      32.793 -20.536 -19.513  0.00  0.00    -0.021 C 
ATOM     22  C   UNL     1      35.671 -20.532 -19.891  0.00  0.00    -0.077 C 
ATOM     23  C   UNL     1      33.491 -19.807 -20.663  0.00  0.00    -0.077 C 
ATOM     24  H   UNL     1      34.762 -18.766 -19.470  0.00  0.00    -0.080 HD
BRANCH  18  25
ATOM     25  C   UNL     1      35.477 -18.641 -21.370  0.00  0.00    -0.076 C 
BRANCH  25  26
ATOM     26  C   UNL     1      34.557 -17.522 -21.856  0.00  0.00    +0.001 C 
BRANCH  26  27
ATOM     27  C   UNL     1      34.368 -17.584 -23.374  0.00  0.00    +0.116 C 
BRANCH  27  28
ATOM     28  N   UNL     1      33.897 -16.265 -23.931  0.00  0.00    -0.191 N 
ATOM     29  N   UNL     1      33.408 -16.184 -25.179  0.00  0.00    -0.073 NA
ATOM     30  N   UNL     1      33.079 -14.915 -25.393  0.00  0.00    -0.129 NA
ATOM     31  C   UNL     1      33.894 -15.053 -23.312  0.00  0.00    +0.108 C 
ATOM     32  C   UNL     1      33.370 -14.209 -24.258  0.00  0.00    +0.141 C 
ENDBRANCH  27  28
ENDBRANCH  26  27
ENDBRANCH  25  26
ENDBRANCH  18  25
ENDBRANCH  17  19
ENDBRANCH   2  17
TORSDOF 9
ENDMDL
MODEL 9
REMARK VINA RESULT:     -11.2      3.533      9.978
REMARK  Name = 54575171
REMARK  9 active torsions:
REMARK  status: ('A' for Active; 'I' for Inactive)
REMARK    1  A    between atoms: N_2  and  C_17
REMARK    2  A    between atoms: C_3  and  C_6
REMARK    3  A    between atoms: C_7  and  O_15
REMARK    4  A    between atoms: C_11  and  N_12
REMARK    5  A    between atoms: C_17  and  C_19
REMARK    6  A    between atoms: N_18  and  C_25
REMARK    7  A    between atoms: C_25  and  C_26
REMARK    8  A    between atoms: C_26  and  C_27
REMARK    9  A    between atoms: C_27  and  N_28
REMARK                            x       y       z     vdW  Elec       q    Type
REMARK                         _______ _______ _______ _____ _____    ______ ____
ROOT
ATOM      1  O   UNL     1      33.460 -23.042 -19.189  0.00  0.00    -0.270 OA
ATOM      2  N   UNL     1      34.828 -21.494 -18.131  0.00  0.00    -0.301 N 
ATOM      3  C   UNL     1      33.786 -22.417 -18.182  0.00  0.00    +0.249 C 
ATOM      4  H   UNL     1      35.014 -21.042 -17.278  0.00  0.00    +0.150 HD
ENDROOT
BRANCH   3   6
ATOM      5 CL   UNL     1      29.199 -22.326 -15.804  0.00  0.00    -0.081 Cl
ATOM      6  C   UNL     1      33.021 -22.617 -16.924  0.00  0.00    +0.088 C 
ATOM      7  C   UNL     1      33.665 -23.011 -15.751  0.00  0.00    +0.144 C 
ATOM      8  C   UNL     1      31.641 -22.408 -16.928  0.00  0.00    +0.020 C 
ATOM      9  C   UNL     1      32.928 -23.196 -14.581  0.00  0.00    +0.052 C 
ATOM     10  C   UNL     1      30.905 -22.593 -15.757  0.00  0.00    +0.071 C 
ATOM     11  C   UNL     1      31.549 -22.987 -14.583  0.00  0.00    +0.055 C 
BRANCH  11  12
ATOM     12  N   UNL     1      30.831 -23.182 -13.383  0.00  0.00    -0.356 N 
ATOM     13  H   UNL     1      31.252 -23.654 -12.628  0.00  0.00    +0.142 HD
ATOM     14  H   UNL     1      29.909 -22.846 -13.299  0.00  0.00    +0.142 HD
ENDBRANCH  11  12
BRANCH   7  15
ATOM     15  O   UNL     1      35.010 -23.222 -15.728  0.00  0.00    -0.471 OA
ATOM     16  C   UNL     1      35.774 -22.427 -14.824  0.00  0.00    +0.252 C 
ENDBRANCH   7  15
ENDBRANCH   3   6
BRANCH   2  17
ATOM     17  C   UNL     1      35.640 -21.175 -19.266  0.00  0.00    +0.089 C 
BRANCH  17  19
ATOM     18  N   UNL     1      34.718 -18.414 -22.458  0.00  0.00    +0.387 N 
ATOM     19  C   UNL     1      35.119 -19.932 -19.981  0.00  0.00    +0.015 C 
ATOM     20  C   UNL     1      34.037 -20.297 -21.003  0.00  0.00    -0.021 C 
ATOM     21  C   UNL     1      36.258 -19.180 -20.679  0.00  0.00    -0.021 C 
ATOM     22  C   UNL     1      33.582 -19.069 -21.795  0.00  0.00    -0.077 C 
ATOM     23  C   UNL     1      35.728 -17.989 -21.481  0.00  0.00    -0.077 C 
ATOM     24  H   UNL     1      35.152 -19.095 -23.083  0.00  0.00    -0.080 HD
BRANCH  18  25
ATOM     25  C   UNL     1      34.259 -17.274 -23.251  0.00  0.00    -0.076 C 
BRANCH  25  26
ATOM     26  C   UNL     1      34.859 -15.977 -22.710  0.00  0.00    +0.001 C 
BRANCH  26  27
ATOM     27  C   UNL     1      33.792 -14.887 -22.583  0.00  0.00    +0.116 C 
BRANCH  27  28
ATOM     28  N   UNL     1      33.374 -14.356 -23.930  0.00  0.00    -0.191 N 
ATOM     29  N   UNL     1      33.516 -15.104 -25.036  0.00  0.00    -0.073 NA
ATOM     30  N   UNL     1      33.070 -14.384 -26.059  0.00  0.00    -0.129 NA
ATOM     31  C   UNL     1      32.833 -13.139 -24.213  0.00  0.00    +0.108 C 
ATOM     32  C   UNL     1      32.648 -13.178 -25.572  0.00  0.00    +0.141 C 
ENDBRANCH  27  28
ENDBRANCH  26  27
ENDBRANCH  25  26
ENDBRANCH  18  25
ENDBRANCH  17  19
ENDBRANCH   2  17
TORSDOF 9
ENDMDL
