MODEL 1
REMARK VINA RESULT:     -11.1      0.000      0.000
REMARK  Name = 6102821
REMARK  5 active torsions:
REMARK  status: ('A' for Active; 'I' for Inactive)
REMARK    1  A    between atoms: N_2  and  S_20
REMARK    2  A    between atoms: C_5  and  C_13
REMARK    3  A    between atoms: C_10  and  O_31
REMARK    4  A    between atoms: C_17  and  O_18
REMARK    5  A    between atoms: S_20  and  C_25
REMARK                            x       y       z     vdW  Elec       q    Type
REMARK                         _______ _______ _______ _____ _____    ______ ____
ROOT
ATOM      1  O   UNL     1      32.893 -23.434 -14.620  0.00  0.00    -0.413 OA
ATOM      2  N   UNL     1      33.849 -24.418 -12.566  0.00  0.00    -0.158 N 
ATOM      3  N   UNL     1      31.477 -24.134 -12.994  0.00  0.00    -0.350 NA
ATOM      4  C   UNL     1      31.616 -23.194 -15.042  0.00  0.00    +0.175 C 
ATOM      5  C   UNL     1      31.215 -22.625 -16.244  0.00  0.00    +0.024 C 
ATOM      6  C   UNL     1      30.752 -23.624 -14.045  0.00  0.00    +0.173 C 
ATOM      7  C   UNL     1      32.723 -23.995 -13.390  0.00  0.00    +0.364 C 
ATOM      8  C   UNL     1      29.834 -22.494 -16.422  0.00  0.00    +0.093 C 
ATOM      9  C   UNL     1      29.370 -23.485 -14.239  0.00  0.00    +0.068 C 
ATOM     10  C   UNL     1      28.928 -22.915 -15.441  0.00  0.00    +0.123 C 
ATOM     11  H   UNL     1      33.829 -25.247 -12.037  0.00  0.00    +0.179 HD
ENDROOT
BRANCH   5  13
ATOM     12  N   UNL     1      34.450 -22.240 -18.055  0.00  0.00    -0.210 NA
ATOM     13  C   UNL     1      32.174 -22.201 -17.232  0.00  0.00    +0.019 C 
ATOM     14  C   UNL     1      31.803 -21.375 -18.289  0.00  0.00    +0.006 C 
ATOM     15  C   UNL     1      33.501 -22.601 -17.163  0.00  0.00    +0.102 C 
ATOM     16  C   UNL     1      32.752 -20.983 -19.228  0.00  0.00    +0.058 C 
ATOM     17  C   UNL     1      34.050 -21.439 -19.068  0.00  0.00    +0.225 C 
BRANCH  17  18
ATOM     18  O   UNL     1      35.002 -21.068 -19.980  0.00  0.00    -0.456 OA
ATOM     19  C   UNL     1      34.833 -19.800 -20.603  0.00  0.00    +0.254 C 
ENDBRANCH  17  18
ENDBRANCH   5  13
BRANCH   2  20
ATOM     20  S   UNL     1      35.221 -23.373 -12.576  0.00  0.00    +0.078 S 
ATOM     21  O   UNL     1      35.623 -23.095 -11.210  0.00  0.00    -0.150 OA
ATOM     22  O   UNL     1      35.008 -22.289 -13.516  0.00  0.00    -0.150 OA
BRANCH  20  25
ATOM     23 CL   UNL     1      38.323 -23.283 -11.669  0.00  0.00    -0.081 Cl
ATOM     24 CL   UNL     1      36.463 -27.286 -16.076  0.00  0.00    -0.082 Cl
ATOM     25  C   UNL     1      36.446 -24.434 -13.288  0.00  0.00    +0.137 C 
ATOM     26  C   UNL     1      37.771 -24.379 -12.884  0.00  0.00    +0.077 C 
ATOM     27  C   UNL     1      36.030 -25.323 -14.268  0.00  0.00    +0.032 C 
ATOM     28  C   UNL     1      36.962 -26.177 -14.857  0.00  0.00    +0.059 C 
ATOM     29  C   UNL     1      38.703 -25.232 -13.475  0.00  0.00    +0.014 C 
ATOM     30  C   UNL     1      38.299 -26.132 -14.461  0.00  0.00    +0.012 C 
ENDBRANCH  20  25
ENDBRANCH   2  20
BRANCH  10  31
ATOM     31  O   UNL     1      27.589 -22.769 -15.657  0.00  0.00    -0.475 OA
ATOM     32  C   UNL     1      27.175 -22.491 -16.992  0.00  0.00    +0.252 C 
ENDBRANCH  10  31
TORSDOF 5
ENDMDL
MODEL 2
REMARK VINA RESULT:     -11.1      3.533      7.495
REMARK  Name = 6102821
REMARK  5 active torsions:
REMARK  status: ('A' for Active; 'I' for Inactive)
REMARK    1  A    between atoms: N_2  and  S_20
REMARK    2  A    between atoms: C_5  and  C_13
REMARK    3  A    between atoms: C_10  and  O_31
REMARK    4  A    between atoms: C_17  and  O_18
REMARK    5  A    between atoms: S_20  and  C_25
REMARK                            x       y       z     vdW  Elec       q    Type
REMARK                         _______ _______ _______ _____ _____    ______ ____
ROOT
ATOM      1  O   UNL     1      31.996 -22.541 -17.349  0.00  0.00    -0.413 OA
ATOM      2  N   UNL     1      33.550 -22.182 -19.236  0.00  0.00    -0.158 N 
ATOM      3  N   UNL     1      34.208 -22.899 -17.012  0.00  0.00    -0.350 NA
ATOM      4  C   UNL     1      32.165 -22.934 -16.053  0.00  0.00    +0.175 C 
ATOM      5  C   UNL     1      31.184 -23.098 -15.083  0.00  0.00    +0.024 C 
ATOM      6  C   UNL     1      33.520 -23.153 -15.850  0.00  0.00    +0.173 C 
ATOM      7  C   UNL     1      33.261 -22.544 -17.853  0.00  0.00    +0.364 C 
ATOM      8  C   UNL     1      31.636 -23.514 -13.827  0.00  0.00    +0.093 C 
ATOM      9  C   UNL     1      33.958 -23.570 -14.584  0.00  0.00    +0.068 C 
ATOM     10  C   UNL     1      32.995 -23.746 -13.580  0.00  0.00    +0.123 C 
ATOM     11  H   UNL     1      34.218 -22.662 -19.774  0.00  0.00    +0.179 HD
ENDROOT
BRANCH   5  13
ATOM     12  N   UNL     1      27.826 -21.481 -15.033  0.00  0.00    -0.210 NA
ATOM     13  C   UNL     1      29.794 -22.849 -15.370  0.00  0.00    +0.019 C 
ATOM     14  C   UNL     1      29.074 -23.682 -16.222  0.00  0.00    +0.006 C 
ATOM     15  C   UNL     1      29.126 -21.771 -14.806  0.00  0.00    +0.102 C 
ATOM     16  C   UNL     1      27.732 -23.416 -16.479  0.00  0.00    +0.058 C 
ATOM     17  C   UNL     1      27.161 -22.313 -15.866  0.00  0.00    +0.225 C 
BRANCH  17  18
ATOM     18  O   UNL     1      25.842 -22.029 -16.105  0.00  0.00    -0.456 OA
ATOM     19  C   UNL     1      25.569 -20.940 -16.979  0.00  0.00    +0.254 C 
ENDBRANCH  17  18
ENDBRANCH   5  13
BRANCH   2  20
ATOM     20  S   UNL     1      32.645 -20.858 -19.869  0.00  0.00    +0.078 S 
ATOM     21  O   UNL     1      32.090 -20.087 -18.772  0.00  0.00    -0.150 OA
ATOM     22  O   UNL     1      31.795 -21.314 -20.951  0.00  0.00    -0.150 OA
BRANCH  20  25
ATOM     23 CL   UNL     1      35.690 -20.923 -18.780  0.00  0.00    -0.081 Cl
ATOM     24 CL   UNL     1      34.172 -17.299 -23.624  0.00  0.00    -0.082 Cl
ATOM     25  C   UNL     1      33.933 -19.890 -20.602  0.00  0.00    +0.137 C 
ATOM     26  C   UNL     1      35.232 -19.933 -20.120  0.00  0.00    +0.077 C 
ATOM     27  C   UNL     1      33.593 -19.085 -21.679  0.00  0.00    +0.032 C 
ATOM     28  C   UNL     1      34.577 -18.305 -22.287  0.00  0.00    +0.059 C 
ATOM     29  C   UNL     1      36.215 -19.152 -20.728  0.00  0.00    +0.014 C 
ATOM     30  C   UNL     1      35.888 -18.338 -21.812  0.00  0.00    +0.012 C 
ENDBRANCH  20  25
ENDBRANCH   2  20
BRANCH  10  31
ATOM     31  O   UNL     1      33.392 -24.152 -12.340  0.00  0.00    -0.475 OA
ATOM     32  C   UNL     1      34.735 -23.860 -11.963  0.00  0.00    +0.252 C 
ENDBRANCH  10  31
TORSDOF 5
ENDMDL
MODEL 3
REMARK VINA RESULT:     -11.0      3.559      7.074
REMARK  Name = 6102821
REMARK  5 active torsions:
REMARK  status: ('A' for Active; 'I' for Inactive)
REMARK    1  A    between atoms: N_2  and  S_20
REMARK    2  A    between atoms: C_5  and  C_13
REMARK    3  A    between atoms: C_10  and  O_31
REMARK    4  A    between atoms: C_17  and  O_18
REMARK    5  A    between atoms: S_20  and  C_25
REMARK                            x       y       z     vdW  Elec       q    Type
REMARK                         _______ _______ _______ _____ _____    ______ ____
ROOT
ATOM      1  O   UNL     1      33.327 -22.435 -16.308  0.00  0.00    -0.413 OA
ATOM      2  N   UNL     1      32.857 -21.153 -18.367  0.00  0.00    -0.158 N 
ATOM      3  N   UNL     1      31.193 -22.355 -17.070  0.00  0.00    -0.350 NA
ATOM      4  C   UNL     1      32.547 -23.162 -15.454  0.00  0.00    +0.175 C 
ATOM      5  C   UNL     1      32.952 -23.843 -14.313  0.00  0.00    +0.024 C 
ATOM      6  C   UNL     1      31.243 -23.110 -15.923  0.00  0.00    +0.173 C 
ATOM      7  C   UNL     1      32.445 -21.988 -17.245  0.00  0.00    +0.364 C 
ATOM      8  C   UNL     1      31.939 -24.510 -13.615  0.00  0.00    +0.093 C 
ATOM      9  C   UNL     1      30.240 -23.785 -15.212  0.00  0.00    +0.068 C 
ATOM     10  C   UNL     1      30.610 -24.483 -14.054  0.00  0.00    +0.123 C 
ATOM     11  H   UNL     1      32.311 -20.401 -18.689  0.00  0.00    +0.179 HD
ENDROOT
BRANCH   5  13
ATOM     12  N   UNL     1      36.609 -24.561 -14.285  0.00  0.00    -0.210 NA
ATOM     13  C   UNL     1      34.328 -23.851 -13.890  0.00  0.00    +0.019 C 
ATOM     14  C   UNL     1      34.730 -23.196 -12.729  0.00  0.00    +0.006 C 
ATOM     15  C   UNL     1      35.302 -24.514 -14.625  0.00  0.00    +0.102 C 
ATOM     16  C   UNL     1      36.067 -23.223 -12.346  0.00  0.00    +0.058 C 
ATOM     17  C   UNL     1      36.959 -23.913 -13.152  0.00  0.00    +0.225 C 
BRANCH  17  18
ATOM     18  O   UNL     1      38.281 -23.952 -12.797  0.00  0.00    -0.456 OA
ATOM     19  C   UNL     1      39.099 -24.899 -13.474  0.00  0.00    +0.254 C 
ENDBRANCH  17  18
ENDBRANCH   5  13
BRANCH   2  20
ATOM     20  S   UNL     1      34.363 -21.568 -19.098  0.00  0.00    +0.078 S 
ATOM     21  O   UNL     1      34.219 -22.820 -19.818  0.00  0.00    -0.150 OA
ATOM     22  O   UNL     1      35.439 -21.389 -18.143  0.00  0.00    -0.150 OA
BRANCH  20  25
ATOM     23 CL   UNL     1      31.818 -20.364 -20.689  0.00  0.00    -0.081 Cl
ATOM     24 CL   UNL     1      37.542 -18.150 -21.799  0.00  0.00    -0.082 Cl
ATOM     25  C   UNL     1      34.522 -20.277 -20.297  0.00  0.00    +0.137 C 
ATOM     26  C   UNL     1      33.417 -19.775 -20.969  0.00  0.00    +0.077 C 
ATOM     27  C   UNL     1      35.796 -19.786 -20.542  0.00  0.00    +0.032 C 
ATOM     28  C   UNL     1      35.968 -18.769 -21.481  0.00  0.00    +0.059 C 
ATOM     29  C   UNL     1      33.590 -18.759 -21.908  0.00  0.00    +0.014 C 
ATOM     30  C   UNL     1      34.866 -18.255 -22.164  0.00  0.00    +0.012 C 
ENDBRANCH  20  25
ENDBRANCH   2  20
BRANCH  10  31
ATOM     31  O   UNL     1      29.654 -25.148 -13.343  0.00  0.00    -0.475 OA
ATOM     32  C   UNL     1      28.423 -25.418 -14.008  0.00  0.00    +0.252 C 
ENDBRANCH  10  31
TORSDOF 5
ENDMDL
MODEL 4
REMARK VINA RESULT:     -10.3     12.227     15.650
REMARK  Name = 6102821
REMARK  5 active torsions:
REMARK  status: ('A' for Active; 'I' for Inactive)
REMARK    1  A    between atoms: N_2  and  S_20
REMARK    2  A    between atoms: C_5  and  C_13
REMARK    3  A    between atoms: C_10  and  O_31
REMARK    4  A    between atoms: C_17  and  O_18
REMARK    5  A    between atoms: S_20  and  C_25
REMARK                            x       y       z     vdW  Elec       q    Type
REMARK                         _______ _______ _______ _____ _____    ______ ____
ROOT
ATOM      1  O   UNL     1      31.828 -10.070 -22.912  0.00  0.00    -0.413 OA
ATOM      2  N   UNL     1      31.568 -12.520 -22.728  0.00  0.00    -0.158 N 
ATOM      3  N   UNL     1      31.364 -10.960 -20.880  0.00  0.00    -0.350 NA
ATOM      4  C   UNL     1      31.752  -9.046 -22.012  0.00  0.00    +0.175 C 
ATOM      5  C   UNL     1      31.922  -7.689 -22.258  0.00  0.00    +0.024 C 
ATOM      6  C   UNL     1      31.467  -9.593 -20.770  0.00  0.00    +0.173 C 
ATOM      7  C   UNL     1      31.586 -11.178 -22.158  0.00  0.00    +0.364 C 
ATOM      8  C   UNL     1      31.789  -6.850 -21.146  0.00  0.00    +0.093 C 
ATOM      9  C   UNL     1      31.337  -8.739 -19.665  0.00  0.00    +0.068 C 
ATOM     10  C   UNL     1      31.502  -7.362 -19.875  0.00  0.00    +0.123 C 
ATOM     11  H   UNL     1      30.911 -13.198 -22.452  0.00  0.00    +0.179 HD
ENDROOT
BRANCH   5  13
ATOM     12  N   UNL     1      33.861  -6.398 -25.168  0.00  0.00    -0.210 NA
ATOM     13  C   UNL     1      32.218  -7.195 -23.578  0.00  0.00    +0.019 C 
ATOM     14  C   UNL     1      31.215  -7.031 -24.528  0.00  0.00    +0.006 C 
ATOM     15  C   UNL     1      33.515  -6.866 -23.948  0.00  0.00    +0.102 C 
ATOM     16  C   UNL     1      31.532  -6.551 -25.796  0.00  0.00    +0.058 C 
ATOM     17  C   UNL     1      32.858  -6.253 -26.062  0.00  0.00    +0.225 C 
BRANCH  17  18
ATOM     18  O   UNL     1      33.196  -5.781 -27.303  0.00  0.00    -0.456 OA
ATOM     19  C   UNL     1      34.453  -5.126 -27.419  0.00  0.00    +0.254 C 
ENDBRANCH  17  18
ENDBRANCH   5  13
BRANCH   2  20
ATOM     20  S   UNL     1      32.773 -12.844 -23.919  0.00  0.00    +0.078 S 
ATOM     21  O   UNL     1      33.831 -11.857 -23.813  0.00  0.00    -0.150 OA
ATOM     22  O   UNL     1      32.142 -13.113 -25.197  0.00  0.00    -0.150 OA
BRANCH  20  25
ATOM     23 CL   UNL     1      34.072 -13.165 -20.975  0.00  0.00    -0.081 Cl
ATOM     24 CL   UNL     1      33.779 -18.066 -24.820  0.00  0.00    -0.082 Cl
ATOM     25  C   UNL     1      33.419 -14.384 -23.332  0.00  0.00    +0.137 C 
ATOM     26  C   UNL     1      33.972 -14.499 -22.066  0.00  0.00    +0.077 C 
ATOM     27  C   UNL     1      33.352 -15.473 -24.189  0.00  0.00    +0.032 C 
ATOM     28  C   UNL     1      33.852 -16.706 -23.769  0.00  0.00    +0.059 C 
ATOM     29  C   UNL     1      34.471 -15.732 -21.646  0.00  0.00    +0.014 C 
ATOM     30  C   UNL     1      34.411 -16.836 -22.498  0.00  0.00    +0.012 C 
ENDBRANCH  20  25
ENDBRANCH   2  20
BRANCH  10  31
ATOM     31  O   UNL     1      31.379  -6.508 -18.819  0.00  0.00    -0.475 OA
ATOM     32  C   UNL     1      31.873  -5.183 -18.998  0.00  0.00    +0.252 C 
ENDBRANCH  10  31
TORSDOF 5
ENDMDL
MODEL 5
REMARK VINA RESULT:     -10.1      2.492      5.440
REMARK  Name = 6102821
REMARK  5 active torsions:
REMARK  status: ('A' for Active; 'I' for Inactive)
REMARK    1  A    between atoms: N_2  and  S_20
REMARK    2  A    between atoms: C_5  and  C_13
REMARK    3  A    between atoms: C_10  and  O_31
REMARK    4  A    between atoms: C_17  and  O_18
REMARK    5  A    between atoms: S_20  and  C_25
REMARK                            x       y       z     vdW  Elec       q    Type
REMARK                         _______ _______ _______ _____ _____    ______ ____
ROOT
ATOM      1  O   UNL     1      34.944 -22.546 -16.295  0.00  0.00    -0.413 OA
ATOM      2  N   UNL     1      37.211 -22.867 -15.369  0.00  0.00    -0.158 N 
ATOM      3  N   UNL     1      36.712 -21.732 -17.456  0.00  0.00    -0.350 NA
ATOM      4  C   UNL     1      34.465 -21.949 -17.426  0.00  0.00    +0.175 C 
ATOM      5  C   UNL     1      33.141 -21.839 -17.829  0.00  0.00    +0.024 C 
ATOM      6  C   UNL     1      35.550 -21.451 -18.134  0.00  0.00    +0.173 C 
ATOM      7  C   UNL     1      36.292 -22.375 -16.388  0.00  0.00    +0.364 C 
ATOM      8  C   UNL     1      32.929 -21.171 -19.040  0.00  0.00    +0.093 C 
ATOM      9  C   UNL     1      35.321 -20.785 -19.346  0.00  0.00    +0.068 C 
ATOM     10  C   UNL     1      33.996 -20.654 -19.785  0.00  0.00    +0.123 C 
ATOM     11  H   UNL     1      37.995 -22.350 -15.077  0.00  0.00    +0.179 HD
ENDROOT
BRANCH   5  13
ATOM     12  N   UNL     1      29.704 -22.426 -16.510  0.00  0.00    -0.210 NA
ATOM     13  C   UNL     1      32.066 -22.384 -17.039  0.00  0.00    +0.019 C 
ATOM     14  C   UNL     1      32.304 -23.356 -16.072  0.00  0.00    +0.006 C 
ATOM     15  C   UNL     1      30.757 -21.957 -17.216  0.00  0.00    +0.102 C 
ATOM     16  C   UNL     1      31.245 -23.863 -15.325  0.00  0.00    +0.058 C 
ATOM     17  C   UNL     1      29.976 -23.369 -15.581  0.00  0.00    +0.225 C 
BRANCH  17  18
ATOM     18  O   UNL     1      28.917 -23.854 -14.859  0.00  0.00    -0.456 OA
ATOM     19  C   UNL     1      29.116 -25.087 -14.178  0.00  0.00    +0.254 C 
ENDBRANCH  17  18
ENDBRANCH   5  13
BRANCH   2  20
ATOM     20  S   UNL     1      36.838 -24.415 -14.706  0.00  0.00    +0.078 S 
ATOM     21  O   UNL     1      38.066 -25.073 -14.300  0.00  0.00    -0.150 OA
ATOM     22  O   UNL     1      35.884 -25.099 -15.558  0.00  0.00    -0.150 OA
BRANCH  20  25
ATOM     23 CL   UNL     1      38.359 -23.826 -11.914  0.00  0.00    -0.081 Cl
ATOM     24 CL   UNL     1      32.150 -23.348 -12.260  0.00  0.00    -0.082 Cl
ATOM     25  C   UNL     1      35.970 -23.950 -13.235  0.00  0.00    +0.137 C 
ATOM     26  C   UNL     1      36.642 -23.702 -12.048  0.00  0.00    +0.077 C 
ATOM     27  C   UNL     1      34.589 -23.844 -13.315  0.00  0.00    +0.032 C 
ATOM     28  C   UNL     1      33.864 -23.482 -12.179  0.00  0.00    +0.059 C 
ATOM     29  C   UNL     1      35.917 -23.341 -10.913  0.00  0.00    +0.014 C 
ATOM     30  C   UNL     1      34.527 -23.230 -10.978  0.00  0.00    +0.012 C 
ENDBRANCH  20  25
ENDBRANCH   2  20
BRANCH  10  31
ATOM     31  O   UNL     1      33.744 -20.010 -20.961  0.00  0.00    -0.475 OA
ATOM     32  C   UNL     1      34.586 -18.908 -21.288  0.00  0.00    +0.252 C 
ENDBRANCH  10  31
TORSDOF 5
ENDMDL
MODEL 6
REMARK VINA RESULT:      -9.8      1.981      5.099
REMARK  Name = 6102821
REMARK  5 active torsions:
REMARK  status: ('A' for Active; 'I' for Inactive)
REMARK    1  A    between atoms: N_2  and  S_20
REMARK    2  A    between atoms: C_5  and  C_13
REMARK    3  A    between atoms: C_10  and  O_31
REMARK    4  A    between atoms: C_17  and  O_18
REMARK    5  A    between atoms: S_20  and  C_25
REMARK                            x       y       z     vdW  Elec       q    Type
REMARK                         _______ _______ _______ _____ _____    ______ ____
ROOT
ATOM      1  O   UNL     1      34.932 -22.144 -14.864  0.00  0.00    -0.413 OA
ATOM      2  N   UNL     1      36.838 -21.898 -13.312  0.00  0.00    -0.158 N 
ATOM      3  N   UNL     1      36.931 -21.479 -15.701  0.00  0.00    -0.350 NA
ATOM      4  C   UNL     1      34.785 -21.961 -16.210  0.00  0.00    +0.175 C 
ATOM      5  C   UNL     1      33.634 -22.138 -16.966  0.00  0.00    +0.024 C 
ATOM      6  C   UNL     1      36.009 -21.552 -16.718  0.00  0.00    +0.173 C 
ATOM      7  C   UNL     1      36.241 -21.838 -14.641  0.00  0.00    +0.364 C 
ATOM      8  C   UNL     1      33.761 -21.877 -18.335  0.00  0.00    +0.093 C 
ATOM      9  C   UNL     1      36.121 -21.295 -18.092  0.00  0.00    +0.068 C 
ATOM     10  C   UNL     1      34.979 -21.464 -18.888  0.00  0.00    +0.123 C 
ATOM     11  H   UNL     1      37.482 -21.225 -12.996  0.00  0.00    +0.179 HD
ENDROOT
BRANCH   5  13
ATOM     12  N   UNL     1      29.980 -22.665 -16.454  0.00  0.00    -0.210 NA
ATOM     13  C   UNL     1      32.397 -22.566 -16.365  0.00  0.00    +0.019 C 
ATOM     14  C   UNL     1      32.384 -23.267 -15.162  0.00  0.00    +0.006 C 
ATOM     15  C   UNL     1      31.175 -22.293 -16.964  0.00  0.00    +0.102 C 
ATOM     16  C   UNL     1      31.173 -23.667 -14.606  0.00  0.00    +0.058 C 
ATOM     17  C   UNL     1      30.009 -23.344 -15.286  0.00  0.00    +0.225 C 
BRANCH  17  18
ATOM     18  O   UNL     1      28.805 -23.728 -14.760  0.00  0.00    -0.456 OA
ATOM     19  C   UNL     1      28.703 -25.072 -14.304  0.00  0.00    +0.254 C 
ENDBRANCH  17  18
ENDBRANCH   5  13
BRANCH   2  20
ATOM     20  S   UNL     1      36.347 -23.226 -12.328  0.00  0.00    +0.078 S 
ATOM     21  O   UNL     1      34.899 -23.322 -12.339  0.00  0.00    -0.150 OA
ATOM     22  O   UNL     1      37.073 -23.205 -11.073  0.00  0.00    -0.150 OA
BRANCH  20  25
ATOM     23 CL   UNL     1      34.432 -25.164 -14.070  0.00  0.00    -0.081 Cl
ATOM     24 CL   UNL     1      40.587 -26.162 -13.908  0.00  0.00    -0.082 Cl
ATOM     25  C   UNL     1      36.980 -24.590 -13.262  0.00  0.00    +0.137 C 
ATOM     26  C   UNL     1      36.141 -25.409 -14.003  0.00  0.00    +0.077 C 
ATOM     27  C   UNL     1      38.349 -24.809 -13.225  0.00  0.00    +0.032 C 
ATOM     28  C   UNL     1      38.890 -25.874 -13.945  0.00  0.00    +0.059 C 
ATOM     29  C   UNL     1      36.683 -26.473 -14.722  0.00  0.00    +0.014 C 
ATOM     30  C   UNL     1      38.058 -26.706 -14.694  0.00  0.00    +0.012 C 
ENDBRANCH  20  25
ENDBRANCH   2  20
BRANCH  10  31
ATOM     31  O   UNL     1      35.059 -21.219 -20.228  0.00  0.00    -0.475 OA
ATOM     32  C   UNL     1      34.677 -19.920 -20.673  0.00  0.00    +0.252 C 
ENDBRANCH  10  31
TORSDOF 5
ENDMDL
MODEL 7
REMARK VINA RESULT:      -9.8      1.642      1.970
REMARK  Name = 6102821
REMARK  5 active torsions:
REMARK  status: ('A' for Active; 'I' for Inactive)
REMARK    1  A    between atoms: N_2  and  S_20
REMARK    2  A    between atoms: C_5  and  C_13
REMARK    3  A    between atoms: C_10  and  O_31
REMARK    4  A    between atoms: C_17  and  O_18
REMARK    5  A    between atoms: S_20  and  C_25
REMARK                            x       y       z     vdW  Elec       q    Type
REMARK                         _______ _______ _______ _____ _____    ______ ____
ROOT
ATOM      1  O   UNL     1      33.699 -23.367 -14.720  0.00  0.00    -0.413 OA
ATOM      2  N   UNL     1      35.031 -24.122 -12.782  0.00  0.00    -0.158 N 
ATOM      3  N   UNL     1      32.626 -24.372 -12.995  0.00  0.00    -0.350 NA
ATOM      4  C   UNL     1      32.368 -23.415 -15.023  0.00  0.00    +0.175 C 
ATOM      5  C   UNL     1      31.744 -22.943 -16.171  0.00  0.00    +0.024 C 
ATOM      6  C   UNL     1      31.715 -24.031 -13.966  0.00  0.00    +0.173 C 
ATOM      7  C   UNL     1      33.770 -23.957 -13.495  0.00  0.00    +0.364 C 
ATOM      8  C   UNL     1      30.358 -23.122 -16.225  0.00  0.00    +0.093 C 
ATOM      9  C   UNL     1      30.324 -24.202 -14.035  0.00  0.00    +0.068 C 
ATOM     10  C   UNL     1      29.660 -23.739 -15.180  0.00  0.00    +0.123 C 
ATOM     11  H   UNL     1      35.242 -24.938 -12.274  0.00  0.00    +0.179 HD
ENDROOT
BRANCH   5  13
ATOM     12  N   UNL     1      32.505 -20.890 -19.188  0.00  0.00    -0.210 NA
ATOM     13  C   UNL     1      32.492 -22.312 -17.228  0.00  0.00    +0.019 C 
ATOM     14  C   UNL     1      33.868 -22.484 -17.340  0.00  0.00    +0.006 C 
ATOM     15  C   UNL     1      31.864 -21.510 -18.172  0.00  0.00    +0.102 C 
ATOM     16  C   UNL     1      34.563 -21.862 -18.373  0.00  0.00    +0.058 C 
ATOM     17  C   UNL     1      33.841 -21.082 -19.262  0.00  0.00    +0.225 C 
BRANCH  17  18
ATOM     18  O   UNL     1      34.503 -20.457 -20.285  0.00  0.00    -0.456 OA
ATOM     19  C   UNL     1      33.868 -19.320 -20.859  0.00  0.00    +0.254 C 
ENDBRANCH  17  18
ENDBRANCH   5  13
BRANCH   2  20
ATOM     20  S   UNL     1      36.131 -22.799 -12.886  0.00  0.00    +0.078 S 
ATOM     21  O   UNL     1      36.630 -22.484 -11.561  0.00  0.00    -0.150 OA
ATOM     22  O   UNL     1      35.572 -21.758 -13.728  0.00  0.00    -0.150 OA
BRANCH  20  25
ATOM     23 CL   UNL     1      36.948 -21.812 -15.855  0.00  0.00    -0.081 Cl
ATOM     24 CL   UNL     1      40.077 -26.468 -13.130  0.00  0.00    -0.082 Cl
ATOM     25  C   UNL     1      37.458 -23.535 -13.796  0.00  0.00    +0.137 C 
ATOM     26  C   UNL     1      37.792 -23.096 -15.068  0.00  0.00    +0.077 C 
ATOM     27  C   UNL     1      38.153 -24.570 -13.188  0.00  0.00    +0.032 C 
ATOM     28  C   UNL     1      39.206 -25.181 -13.869  0.00  0.00    +0.059 C 
ATOM     29  C   UNL     1      38.844 -23.708 -15.750  0.00  0.00    +0.014 C 
ATOM     30  C   UNL     1      39.552 -24.750 -15.150  0.00  0.00    +0.012 C 
ENDBRANCH  20  25
ENDBRANCH   2  20
BRANCH  10  31
ATOM     31  O   UNL     1      28.308 -23.894 -15.274  0.00  0.00    -0.475 OA
ATOM     32  C   UNL     1      27.539 -22.722 -15.530  0.00  0.00    +0.252 C 
ENDBRANCH  10  31
TORSDOF 5
ENDMDL
MODEL 8
REMARK VINA RESULT:      -9.6      3.747      8.143
REMARK  Name = 6102821
REMARK  5 active torsions:
REMARK  status: ('A' for Active; 'I' for Inactive)
REMARK    1  A    between atoms: N_2  and  S_20
REMARK    2  A    between atoms: C_5  and  C_13
REMARK    3  A    between atoms: C_10  and  O_31
REMARK    4  A    between atoms: C_17  and  O_18
REMARK    5  A    between atoms: S_20  and  C_25
REMARK                            x       y       z     vdW  Elec       q    Type
REMARK                         _______ _______ _______ _____ _____    ______ ____
ROOT
ATOM      1  O   UNL     1      34.293 -22.260 -17.345  0.00  0.00    -0.413 OA
ATOM      2  N   UNL     1      35.127 -21.479 -19.535  0.00  0.00    -0.158 N 
ATOM      3  N   UNL     1      36.480 -21.692 -17.531  0.00  0.00    -0.350 NA
ATOM      4  C   UNL     1      34.881 -22.446 -16.126  0.00  0.00    +0.175 C 
ATOM      5  C   UNL     1      34.282 -22.900 -14.958  0.00  0.00    +0.024 C 
ATOM      6  C   UNL     1      36.219 -22.099 -16.244  0.00  0.00    +0.173 C 
ATOM      7  C   UNL     1      35.313 -21.809 -18.127  0.00  0.00    +0.364 C 
ATOM      8  C   UNL     1      35.123 -22.999 -13.844  0.00  0.00    +0.093 C 
ATOM      9  C   UNL     1      37.049 -22.203 -15.118  0.00  0.00    +0.068 C 
ATOM     10  C   UNL     1      36.478 -22.658 -13.921  0.00  0.00    +0.123 C 
ATOM     11  H   UNL     1      35.798 -21.702 -20.218  0.00  0.00    +0.179 HD
ENDROOT
BRANCH   5  13
ATOM     12  N   UNL     1      31.085 -24.462 -13.847  0.00  0.00    -0.210 NA
ATOM     13  C   UNL     1      32.883 -23.242 -14.914  0.00  0.00    +0.019 C 
ATOM     14  C   UNL     1      31.985 -22.722 -15.841  0.00  0.00    +0.006 C 
ATOM     15  C   UNL     1      32.384 -24.101 -13.945  0.00  0.00    +0.102 C 
ATOM     16  C   UNL     1      30.639 -23.071 -15.773  0.00  0.00    +0.058 C 
ATOM     17  C   UNL     1      30.244 -23.936 -14.765  0.00  0.00    +0.225 C 
BRANCH  17  18
ATOM     18  O   UNL     1      28.925 -24.293 -14.676  0.00  0.00    -0.456 OA
ATOM     19  C   UNL     1      28.021 -23.632 -15.553  0.00  0.00    +0.254 C 
ENDBRANCH  17  18
ENDBRANCH   5  13
BRANCH   2  20
ATOM     20  S   UNL     1      33.654 -20.674 -19.929  0.00  0.00    +0.078 S 
ATOM     21  O   UNL     1      33.221 -19.882 -18.793  0.00  0.00    -0.150 OA
ATOM     22  O   UNL     1      32.741 -21.601 -20.569  0.00  0.00    -0.150 OA
BRANCH  20  25
ATOM     23 CL   UNL     1      36.446 -19.061 -19.693  0.00  0.00    -0.081 Cl
ATOM     24 CL   UNL     1      32.789 -18.278 -24.683  0.00  0.00    -0.082 Cl
ATOM     25  C   UNL     1      34.208 -19.553 -21.181  0.00  0.00    +0.137 C 
ATOM     26  C   UNL     1      35.409 -18.871 -21.060  0.00  0.00    +0.077 C 
ATOM     27  C   UNL     1      33.392 -19.380 -22.290  0.00  0.00    +0.032 C 
ATOM     28  C   UNL     1      33.789 -18.505 -23.301  0.00  0.00    +0.059 C 
ATOM     29  C   UNL     1      35.805 -17.995 -22.071  0.00  0.00    +0.014 C 
ATOM     30  C   UNL     1      34.995 -17.812 -23.192  0.00  0.00    +0.012 C 
ENDBRANCH  20  25
ENDBRANCH   2  20
BRANCH  10  31
ATOM     31  O   UNL     1      37.262 -22.771 -12.810  0.00  0.00    -0.475 OA
ATOM     32  C   UNL     1      36.606 -22.718 -11.546  0.00  0.00    +0.252 C 
ENDBRANCH  10  31
TORSDOF 5
ENDMDL
MODEL 9
REMARK VINA RESULT:      -9.1     14.358     17.841
REMARK  Name = 6102821
REMARK  5 active torsions:
REMARK  status: ('A' for Active; 'I' for Inactive)
REMARK    1  A    between atoms: N_2  and  S_20
REMARK    2  A    between atoms: C_5  and  C_13
REMARK    3  A    between atoms: C_10  and  O_31
REMARK    4  A    between atoms: C_17  and  O_18
REMARK    5  A    between atoms: S_20  and  C_25
REMARK                            x       y       z     vdW  Elec       q    Type
REMARK                         _______ _______ _______ _____ _____    ______ ____
ROOT
ATOM      1  O   UNL     1      31.855  -7.782 -23.946  0.00  0.00    -0.413 OA
ATOM      2  N   UNL     1      31.289 -10.025 -23.081  0.00  0.00    -0.158 N 
ATOM      3  N   UNL     1      30.439  -7.937 -22.182  0.00  0.00    -0.350 NA
ATOM      4  C   UNL     1      31.489  -6.516 -23.587  0.00  0.00    +0.175 C 
ATOM      5  C   UNL     1      31.891  -5.321 -24.173  0.00  0.00    +0.024 C 
ATOM      6  C   UNL     1      30.623  -6.614 -22.509  0.00  0.00    +0.173 C 
ATOM      7  C   UNL     1      31.187  -8.571 -23.060  0.00  0.00    +0.364 C 
ATOM      8  C   UNL     1      31.360  -4.159 -23.603  0.00  0.00    +0.093 C 
ATOM      9  C   UNL     1      30.100  -5.439 -21.948  0.00  0.00    +0.068 C 
ATOM     10  C   UNL     1      30.483  -4.215 -22.514  0.00  0.00    +0.123 C 
ATOM     11  H   UNL     1      30.512 -10.607 -22.923  0.00  0.00    +0.179 HD
ENDROOT
BRANCH   5  13
ATOM     12  N   UNL     1      33.149  -5.568 -27.672  0.00  0.00    -0.210 NA
ATOM     13  C   UNL     1      32.796  -5.300 -25.292  0.00  0.00    +0.019 C 
ATOM     14  C   UNL     1      34.146  -5.006 -25.122  0.00  0.00    +0.006 C 
ATOM     15  C   UNL     1      32.353  -5.571 -26.580  0.00  0.00    +0.102 C 
ATOM     16  C   UNL     1      34.997  -4.992 -26.224  0.00  0.00    +0.058 C 
ATOM     17  C   UNL     1      34.453  -5.277 -27.466  0.00  0.00    +0.225 C 
BRANCH  17  18
ATOM     18  O   UNL     1      35.269  -5.269 -28.566  0.00  0.00    -0.456 OA
ATOM     19  C   UNL     1      34.632  -5.314 -29.837  0.00  0.00    +0.254 C 
ENDBRANCH  17  18
ENDBRANCH   5  13
BRANCH   2  20
ATOM     20  S   UNL     1      32.859 -10.662 -23.403  0.00  0.00    +0.078 S 
ATOM     21  O   UNL     1      33.863  -9.724 -22.937  0.00  0.00    -0.150 OA
ATOM     22  O   UNL     1      32.911 -11.184 -24.755  0.00  0.00    -0.150 OA
BRANCH  20  25
ATOM     23 CL   UNL     1      31.235 -10.704 -20.607  0.00  0.00    -0.081 Cl
ATOM     24 CL   UNL     1      34.621 -15.648 -22.336  0.00  0.00    -0.082 Cl
ATOM     25  C   UNL     1      32.885 -12.058 -22.314  0.00  0.00    +0.137 C 
ATOM     26  C   UNL     1      32.181 -12.054 -21.119  0.00  0.00    +0.077 C 
ATOM     27  C   UNL     1      33.639 -13.156 -22.701  0.00  0.00    +0.032 C 
ATOM     28  C   UNL     1      33.690 -14.277 -21.872  0.00  0.00    +0.059 C 
ATOM     29  C   UNL     1      32.233 -13.175 -20.291  0.00  0.00    +0.014 C 
ATOM     30  C   UNL     1      32.987 -14.287 -20.668  0.00  0.00    +0.012 C 
ENDBRANCH  20  25
ENDBRANCH   2  20
BRANCH  10  31
ATOM     31  O   UNL     1      29.988  -3.056 -21.990  0.00  0.00    -0.475 OA
ATOM     32  C   UNL     1      30.387  -1.840 -22.617  0.00  0.00    +0.252 C 
ENDBRANCH  10  31
TORSDOF 5
ENDMDL
