MODEL 1
REMARK VINA RESULT:     -11.8      0.000      0.000
REMARK  Name = 11625818
REMARK  4 active torsions:
REMARK  status: ('A' for Active; 'I' for Inactive)
REMARK    1  A    between atoms: N_3  and  C_13
REMARK    2  A    between atoms: C_5  and  C_19
REMARK    3  A    between atoms: C_19  and  N_20
REMARK    4  A    between atoms: C_19  and  C_33
REMARK                            x       y       z     vdW  Elec       q    Type
REMARK                         _______ _______ _______ _____ _____    ______ ____
ROOT
ATOM      1  F   UNL     1      31.629 -20.184 -19.982  0.00  0.00    -0.204 F 
ATOM      2  O   UNL     1      30.910 -21.513 -17.973  0.00  0.00    -0.269 OA
ATOM      3  N   UNL     1      32.469 -22.553 -16.545  0.00  0.00    -0.211 N 
ATOM      4  N   UNL     1      34.784 -22.419 -17.080  0.00  0.00    -0.393 NA
ATOM      5  C   UNL     1      33.821 -22.805 -16.300  0.00  0.00    +0.187 C 
ATOM      6  C   UNL     1      32.067 -21.779 -17.655  0.00  0.00    +0.262 C 
ATOM      7  C   UNL     1      33.160 -21.311 -18.533  0.00  0.00    +0.107 C 
ATOM      8  C   UNL     1      34.470 -21.673 -18.221  0.00  0.00    +0.121 C 
ATOM      9  C   UNL     1      32.883 -20.541 -19.669  0.00  0.00    +0.146 C 
ATOM     10  C   UNL     1      35.508 -21.254 -19.062  0.00  0.00    +0.085 C 
ATOM     11  C   UNL     1      33.925 -20.130 -20.499  0.00  0.00    +0.026 C 
ATOM     12  C   UNL     1      35.236 -20.486 -20.196  0.00  0.00    -0.016 C 
ENDROOT
BRANCH   3  13
ATOM     13  C   UNL     1      31.428 -23.099 -15.718  0.00  0.00    +0.060 C 
ATOM     14  C   UNL     1      31.073 -24.435 -15.854  0.00  0.00    +0.015 C 
ATOM     15  C   UNL     1      30.789 -22.284 -14.793  0.00  0.00    +0.015 C 
ATOM     16  C   UNL     1      30.064 -24.965 -15.050  0.00  0.00    +0.001 C 
ATOM     17  C   UNL     1      29.779 -22.813 -13.989  0.00  0.00    +0.001 C 
ATOM     18  C   UNL     1      29.417 -24.153 -14.118  0.00  0.00    +0.000 C 
ENDBRANCH   3  13
BRANCH   5  19
ATOM     19  C   UNL     1      34.245 -23.518 -15.032  0.00  0.00    +0.138 C 
BRANCH  19  20
ATOM     20  N   UNL     1      35.685 -23.527 -15.024  0.00  0.00    -0.315 N 
ATOM     21  N   UNL     1      35.873 -25.862 -14.518  0.00  0.00    -0.232 NA
ATOM     22  N   UNL     1      38.759 -23.634 -14.990  0.00  0.00    -0.270 NA
ATOM     23  N   UNL     1      39.936 -25.483 -14.584  0.00  0.00    -0.307 N 
ATOM     24  N   UNL     1      38.035 -26.965 -14.271  0.00  0.00    -0.232 NA
ATOM     25  C   UNL     1      36.450 -24.658 -14.777  0.00  0.00    +0.124 C 
ATOM     26  C   UNL     1      37.839 -24.620 -14.779  0.00  0.00    +0.164 C 
ATOM     27  C   UNL     1      38.594 -25.758 -14.530  0.00  0.00    +0.125 C 
ATOM     28  C   UNL     1      40.001 -24.198 -14.863  0.00  0.00    +0.163 C 
ATOM     29  C   UNL     1      36.685 -26.921 -14.286  0.00  0.00    +0.252 C 
ATOM     30  H   UNL     1      36.154 -22.681 -15.206  0.00  0.00    +0.148 HD
ATOM     31  H   UNL     1      38.567 -22.690 -15.195  0.00  0.00    +0.126 HD
ATOM     32  H   UNL     1      40.685 -26.108 -14.447  0.00  0.00    +0.149 HD
ENDBRANCH  19  20
BRANCH  19  33
ATOM     33  C   UNL     1      33.693 -22.780 -13.821  0.00  0.00    +0.028 C 
ATOM     34  C   UNL     1      33.476 -23.712 -12.636  0.00  0.00    +0.002 C 
ENDBRANCH  19  33
ENDBRANCH   5  19
TORSDOF 4
ENDMDL
MODEL 2
REMARK VINA RESULT:     -11.7      0.814      1.189
REMARK  Name = 11625818
REMARK  4 active torsions:
REMARK  status: ('A' for Active; 'I' for Inactive)
REMARK    1  A    between atoms: N_3  and  C_13
REMARK    2  A    between atoms: C_5  and  C_19
REMARK    3  A    between atoms: C_19  and  N_20
REMARK    4  A    between atoms: C_19  and  C_33
REMARK                            x       y       z     vdW  Elec       q    Type
REMARK                         _______ _______ _______ _____ _____    ______ ____
ROOT
ATOM      1  F   UNL     1      31.707 -20.229 -19.900  0.00  0.00    -0.204 F 
ATOM      2  O   UNL     1      30.972 -21.565 -17.901  0.00  0.00    -0.269 OA
ATOM      3  N   UNL     1      32.519 -22.622 -16.473  0.00  0.00    -0.211 N 
ATOM      4  N   UNL     1      34.837 -22.499 -16.999  0.00  0.00    -0.393 NA
ATOM      5  C   UNL     1      33.869 -22.884 -16.225  0.00  0.00    +0.187 C 
ATOM      6  C   UNL     1      32.127 -21.840 -17.581  0.00  0.00    +0.262 C 
ATOM      7  C   UNL     1      33.226 -21.374 -18.452  0.00  0.00    +0.107 C 
ATOM      8  C   UNL     1      34.533 -21.745 -18.137  0.00  0.00    +0.121 C 
ATOM      9  C   UNL     1      32.957 -20.596 -19.585  0.00  0.00    +0.146 C 
ATOM     10  C   UNL     1      35.576 -21.328 -18.972  0.00  0.00    +0.085 C 
ATOM     11  C   UNL     1      34.005 -20.187 -20.409  0.00  0.00    +0.026 C 
ATOM     12  C   UNL     1      35.313 -20.553 -20.103  0.00  0.00    -0.016 C 
ENDROOT
BRANCH   3  13
ATOM     13  C   UNL     1      31.473 -23.166 -15.653  0.00  0.00    +0.060 C 
ATOM     14  C   UNL     1      30.788 -22.336 -14.774  0.00  0.00    +0.015 C 
ATOM     15  C   UNL     1      31.158 -24.515 -15.748  0.00  0.00    +0.015 C 
ATOM     16  C   UNL     1      29.772 -22.864 -13.978  0.00  0.00    +0.001 C 
ATOM     17  C   UNL     1      30.141 -25.043 -14.952  0.00  0.00    +0.001 C 
ATOM     18  C   UNL     1      29.449 -24.218 -14.068  0.00  0.00    +0.000 C 
ENDBRANCH   3  13
BRANCH   5  19
ATOM     19  C   UNL     1      34.285 -23.605 -14.959  0.00  0.00    +0.138 C 
BRANCH  19  20
ATOM     20  N   UNL     1      35.695 -23.871 -15.078  0.00  0.00    -0.315 N 
ATOM     21  N   UNL     1      35.870 -24.992 -12.966  0.00  0.00    -0.232 NA
ATOM     22  N   UNL     1      38.705 -24.482 -15.252  0.00  0.00    -0.270 NA
ATOM     23  N   UNL     1      39.850 -25.557 -13.671  0.00  0.00    -0.307 N 
ATOM     24  N   UNL     1      37.984 -25.900 -12.153  0.00  0.00    -0.232 NA
ATOM     25  C   UNL     1      36.439 -24.538 -14.115  0.00  0.00    +0.124 C 
ATOM     26  C   UNL     1      37.800 -24.773 -14.272  0.00  0.00    +0.164 C 
ATOM     27  C   UNL     1      38.536 -25.440 -13.301  0.00  0.00    +0.125 C 
ATOM     28  C   UNL     1      39.919 -24.971 -14.848  0.00  0.00    +0.163 C 
ATOM     29  C   UNL     1      36.662 -25.634 -12.074  0.00  0.00    +0.252 C 
ATOM     30  H   UNL     1      36.157 -23.563 -15.890  0.00  0.00    +0.148 HD
ATOM     31  H   UNL     1      38.520 -24.009 -16.095  0.00  0.00    +0.126 HD
ATOM     32  H   UNL     1      40.582 -25.985 -13.168  0.00  0.00    +0.149 HD
ENDBRANCH  19  20
BRANCH  19  33
ATOM     33  C   UNL     1      33.990 -22.729 -13.750  0.00  0.00    +0.028 C 
ATOM     34  C   UNL     1      33.234 -23.487 -12.668  0.00  0.00    +0.002 C 
ENDBRANCH  19  33
ENDBRANCH   5  19
TORSDOF 4
ENDMDL
MODEL 3
REMARK VINA RESULT:      -9.6      3.024      6.471
REMARK  Name = 11625818
REMARK  4 active torsions:
REMARK  status: ('A' for Active; 'I' for Inactive)
REMARK    1  A    between atoms: N_3  and  C_13
REMARK    2  A    between atoms: C_5  and  C_19
REMARK    3  A    between atoms: C_19  and  N_20
REMARK    4  A    between atoms: C_19  and  C_33
REMARK                            x       y       z     vdW  Elec       q    Type
REMARK                         _______ _______ _______ _____ _____    ______ ____
ROOT
ATOM      1  F   UNL     1      34.942 -24.629 -11.263  0.00  0.00    -0.204 F 
ATOM      2  O   UNL     1      32.839 -24.157 -12.557  0.00  0.00    -0.269 OA
ATOM      3  N   UNL     1      32.890 -23.494 -14.817  0.00  0.00    -0.211 N 
ATOM      4  N   UNL     1      34.999 -23.168 -15.870  0.00  0.00    -0.393 NA
ATOM      5  C   UNL     1      33.702 -23.186 -15.911  0.00  0.00    +0.187 C 
ATOM      6  C   UNL     1      33.456 -23.884 -13.584  0.00  0.00    +0.262 C 
ATOM      7  C   UNL     1      34.934 -23.895 -13.538  0.00  0.00    +0.107 C 
ATOM      8  C   UNL     1      35.642 -23.512 -14.676  0.00  0.00    +0.121 C 
ATOM      9  C   UNL     1      35.608 -24.257 -12.365  0.00  0.00    +0.146 C 
ATOM     10  C   UNL     1      37.040 -23.495 -14.632  0.00  0.00    +0.085 C 
ATOM     11  C   UNL     1      37.002 -24.237 -12.333  0.00  0.00    +0.026 C 
ATOM     12  C   UNL     1      37.717 -23.856 -13.466  0.00  0.00    -0.016 C 
ENDROOT
BRANCH   3  13
ATOM     13  C   UNL     1      31.458 -23.388 -14.874  0.00  0.00    +0.060 C 
ATOM     14  C   UNL     1      30.853 -22.155 -14.663  0.00  0.00    +0.015 C 
ATOM     15  C   UNL     1      30.697 -24.518 -15.139  0.00  0.00    +0.015 C 
ATOM     16  C   UNL     1      29.463 -22.052 -14.719  0.00  0.00    +0.001 C 
ATOM     17  C   UNL     1      29.306 -24.415 -15.195  0.00  0.00    +0.001 C 
ATOM     18  C   UNL     1      28.690 -23.183 -14.985  0.00  0.00    +0.000 C 
ENDBRANCH   3  13
BRANCH   5  19
ATOM     19  C   UNL     1      33.081 -22.905 -17.264  0.00  0.00    +0.138 C 
BRANCH  19  20
ATOM     20  N   UNL     1      34.004 -22.059 -17.976  0.00  0.00    -0.315 N 
ATOM     21  N   UNL     1      32.341 -21.110 -19.419  0.00  0.00    -0.232 NA
ATOM     22  N   UNL     1      35.907 -20.220 -19.545  0.00  0.00    -0.270 NA
ATOM     23  N   UNL     1      35.254 -18.867 -21.191  0.00  0.00    -0.307 N 
ATOM     24  N   UNL     1      32.895 -19.448 -21.116  0.00  0.00    -0.232 NA
ATOM     25  C   UNL     1      33.633 -21.204 -19.005  0.00  0.00    +0.124 C 
ATOM     26  C   UNL     1      34.559 -20.405 -19.664  0.00  0.00    +0.164 C 
ATOM     27  C   UNL     1      34.177 -19.554 -20.693  0.00  0.00    +0.125 C 
ATOM     28  C   UNL     1      36.277 -19.290 -20.480  0.00  0.00    +0.163 C 
ATOM     29  C   UNL     1      32.057 -20.253 -20.429  0.00  0.00    +0.252 C 
ATOM     30  H   UNL     1      34.953 -22.088 -17.716  0.00  0.00    +0.148 HD
ATOM     31  H   UNL     1      36.503 -20.672 -18.904  0.00  0.00    +0.126 HD
ATOM     32  H   UNL     1      35.260 -18.204 -21.920  0.00  0.00    +0.149 HD
ENDBRANCH  19  20
BRANCH  19  33
ATOM     33  C   UNL     1      32.852 -24.215 -18.005  0.00  0.00    +0.028 C 
ATOM     34  C   UNL     1      33.513 -24.218 -19.376  0.00  0.00    +0.002 C 
ENDBRANCH  19  33
ENDBRANCH   5  19
TORSDOF 4
ENDMDL
MODEL 4
REMARK VINA RESULT:      -9.3      3.062      6.920
REMARK  Name = 11625818
REMARK  4 active torsions:
REMARK  status: ('A' for Active; 'I' for Inactive)
REMARK    1  A    between atoms: N_3  and  C_13
REMARK    2  A    between atoms: C_5  and  C_19
REMARK    3  A    between atoms: C_19  and  N_20
REMARK    4  A    between atoms: C_19  and  C_33
REMARK                            x       y       z     vdW  Elec       q    Type
REMARK                         _______ _______ _______ _____ _____    ______ ____
ROOT
ATOM      1  F   UNL     1      30.085 -24.751 -12.271  0.00  0.00    -0.204 F 
ATOM      2  O   UNL     1      32.571 -24.682 -12.637  0.00  0.00    -0.269 OA
ATOM      3  N   UNL     1      33.516 -23.756 -14.586  0.00  0.00    -0.211 N 
ATOM      4  N   UNL     1      32.068 -22.955 -16.297  0.00  0.00    -0.393 NA
ATOM      5  C   UNL     1      33.259 -23.154 -15.820  0.00  0.00    +0.187 C 
ATOM      6  C   UNL     1      32.459 -24.131 -13.730  0.00  0.00    +0.262 C 
ATOM      7  C   UNL     1      31.099 -23.882 -14.253  0.00  0.00    +0.107 C 
ATOM      8  C   UNL     1      30.962 -23.327 -15.525  0.00  0.00    +0.121 C 
ATOM      9  C   UNL     1      29.971 -24.219 -13.496  0.00  0.00    +0.146 C 
ATOM     10  C   UNL     1      29.677 -23.111 -16.036  0.00  0.00    +0.085 C 
ATOM     11  C   UNL     1      28.696 -23.999 -14.016  0.00  0.00    +0.026 C 
ATOM     12  C   UNL     1      28.549 -23.446 -15.286  0.00  0.00    -0.016 C 
ENDROOT
BRANCH   3  13
ATOM     13  C   UNL     1      34.851 -24.063 -14.150  0.00  0.00    +0.060 C 
ATOM     14  C   UNL     1      35.422 -23.327 -13.119  0.00  0.00    +0.015 C 
ATOM     15  C   UNL     1      35.553 -25.092 -14.763  0.00  0.00    +0.015 C 
ATOM     16  C   UNL     1      36.717 -23.626 -12.695  0.00  0.00    +0.001 C 
ATOM     17  C   UNL     1      36.848 -25.390 -14.340  0.00  0.00    +0.001 C 
ATOM     18  C   UNL     1      37.430 -24.658 -13.306  0.00  0.00    +0.000 C 
ENDBRANCH   3  13
BRANCH   5  19
ATOM     19  C   UNL     1      34.403 -22.631 -16.666  0.00  0.00    +0.138 C 
BRANCH  19  20
ATOM     20  N   UNL     1      33.811 -21.953 -17.790  0.00  0.00    -0.315 N 
ATOM     21  N   UNL     1      35.853 -20.920 -18.504  0.00  0.00    -0.232 NA
ATOM     22  N   UNL     1      32.627 -20.472 -20.212  0.00  0.00    -0.270 NA
ATOM     23  N   UNL     1      33.815 -19.172 -21.578  0.00  0.00    -0.307 N 
ATOM     24  N   UNL     1      35.952 -19.462 -20.458  0.00  0.00    -0.232 NA
ATOM     25  C   UNL     1      34.519 -21.138 -18.661  0.00  0.00    +0.124 C 
ATOM     26  C   UNL     1      33.906 -20.503 -19.735  0.00  0.00    +0.164 C 
ATOM     27  C   UNL     1      34.624 -19.688 -20.600  0.00  0.00    +0.125 C 
ATOM     28  C   UNL     1      32.622 -19.662 -21.317  0.00  0.00    +0.163 C 
ATOM     29  C   UNL     1      36.475 -20.112 -19.395  0.00  0.00    +0.252 C 
ATOM     30  H   UNL     1      32.848 -22.076 -17.949  0.00  0.00    +0.148 HD
ATOM     31  H   UNL     1      31.851 -20.944 -19.833  0.00  0.00    +0.126 HD
ATOM     32  H   UNL     1      34.070 -18.569 -22.315  0.00  0.00    +0.149 HD
ENDBRANCH  19  20
BRANCH  19  33
ATOM     33  C   UNL     1      35.259 -21.682 -15.839  0.00  0.00    +0.028 C 
ATOM     34  C   UNL     1      36.746 -21.946 -16.027  0.00  0.00    +0.002 C 
ENDBRANCH  19  33
ENDBRANCH   5  19
TORSDOF 4
ENDMDL
MODEL 5
REMARK VINA RESULT:      -9.0      2.767      6.187
REMARK  Name = 11625818
REMARK  4 active torsions:
REMARK  status: ('A' for Active; 'I' for Inactive)
REMARK    1  A    between atoms: N_3  and  C_13
REMARK    2  A    between atoms: C_5  and  C_19
REMARK    3  A    between atoms: C_19  and  N_20
REMARK    4  A    between atoms: C_19  and  C_33
REMARK                            x       y       z     vdW  Elec       q    Type
REMARK                         _______ _______ _______ _____ _____    ______ ____
ROOT
ATOM      1  F   UNL     1      36.805 -20.047 -18.468  0.00  0.00    -0.204 F 
ATOM      2  O   UNL     1      37.403 -21.200 -16.315  0.00  0.00    -0.269 OA
ATOM      3  N   UNL     1      36.052 -22.895 -15.394  0.00  0.00    -0.211 N 
ATOM      4  N   UNL     1      34.014 -23.460 -16.485  0.00  0.00    -0.393 NA
ATOM      5  C   UNL     1      34.878 -23.640 -15.534  0.00  0.00    +0.187 C 
ATOM      6  C   UNL     1      36.408 -21.921 -16.350  0.00  0.00    +0.262 C 
ATOM      7  C   UNL     1      35.443 -21.730 -17.454  0.00  0.00    +0.107 C 
ATOM      8  C   UNL     1      34.275 -22.491 -17.460  0.00  0.00    +0.121 C 
ATOM      9  C   UNL     1      35.686 -20.785 -18.458  0.00  0.00    +0.146 C 
ATOM     10  C   UNL     1      33.345 -22.298 -18.488  0.00  0.00    +0.085 C 
ATOM     11  C   UNL     1      34.752 -20.602 -19.477  0.00  0.00    +0.026 C 
ATOM     12  C   UNL     1      33.582 -21.357 -19.492  0.00  0.00    -0.016 C 
ENDROOT
BRANCH   3  13
ATOM     13  C   UNL     1      36.922 -23.048 -14.260  0.00  0.00    +0.060 C 
ATOM     14  C   UNL     1      36.573 -22.472 -13.045  0.00  0.00    +0.015 C 
ATOM     15  C   UNL     1      38.102 -23.768 -14.394  0.00  0.00    +0.015 C 
ATOM     16  C   UNL     1      37.417 -22.621 -11.945  0.00  0.00    +0.001 C 
ATOM     17  C   UNL     1      38.947 -23.916 -13.293  0.00  0.00    +0.001 C 
ATOM     18  C   UNL     1      38.604 -23.343 -12.070  0.00  0.00    +0.000 C 
ENDBRANCH   3  13
BRANCH   5  19
ATOM     19  C   UNL     1      34.578 -24.776 -14.577  0.00  0.00    +0.138 C 
BRANCH  19  20
ATOM     20  N   UNL     1      33.161 -25.020 -14.655  0.00  0.00    -0.315 N 
ATOM     21  N   UNL     1      32.590 -23.465 -12.922  0.00  0.00    -0.232 NA
ATOM     22  N   UNL     1      30.121 -25.480 -14.757  0.00  0.00    -0.270 NA
ATOM     23  N   UNL     1      28.659 -24.428 -13.445  0.00  0.00    -0.307 N 
ATOM     24  N   UNL     1      30.282 -23.091 -12.227  0.00  0.00    -0.232 NA
ATOM     25  C   UNL     1      32.222 -24.384 -13.856  0.00  0.00    +0.124 C 
ATOM     26  C   UNL     1      30.863 -24.650 -13.966  0.00  0.00    +0.164 C 
ATOM     27  C   UNL     1      29.932 -24.008 -13.160  0.00  0.00    +0.125 C 
ATOM     28  C   UNL     1      28.807 -25.312 -14.408  0.00  0.00    +0.163 C 
ATOM     29  C   UNL     1      31.616 -22.886 -12.180  0.00  0.00    +0.252 C 
ATOM     30  H   UNL     1      32.840 -25.676 -15.314  0.00  0.00    +0.148 HD
ATOM     31  H   UNL     1      30.467 -26.088 -15.450  0.00  0.00    +0.126 HD
ATOM     32  H   UNL     1      27.818 -24.133 -13.023  0.00  0.00    +0.149 HD
ENDBRANCH  19  20
BRANCH  19  33
ATOM     33  C   UNL     1      35.372 -26.010 -14.982  0.00  0.00    +0.028 C 
ATOM     34  C   UNL     1      36.256 -26.516 -13.851  0.00  0.00    +0.002 C 
ENDBRANCH  19  33
ENDBRANCH   5  19
TORSDOF 4
ENDMDL
