MODEL 1
REMARK VINA RESULT:     -10.9      0.000      0.000
REMARK  Name = 1498
REMARK  6 active torsions:
REMARK  status: ('A' for Active; 'I' for Inactive)
REMARK    1  A    between atoms: C_1  and  O_15
REMARK    2  A    between atoms: C_4  and  C_13
REMARK    3  A    between atoms: O_15  and  C_16
REMARK    4  A    between atoms: C_16  and  C_17
REMARK    5  A    between atoms: C_17  and  C_18
REMARK    6  A    between atoms: C_18  and  C_21
REMARK                            x       y       z     vdW  Elec       q    Type
REMARK                         _______ _______ _______ _____ _____    ______ ____
ROOT
ATOM      1  C   UNL     1      33.836 -14.318 -22.626  0.00  0.00    +0.131 C 
ATOM      2  C   UNL     1      33.947 -14.446 -21.242  0.00  0.00    +0.012 C 
ATOM      3  C   UNL     1      34.109 -15.408 -23.451  0.00  0.00    +0.012 C 
ATOM      4  C   UNL     1      34.604 -16.756 -21.508  0.00  0.00    +0.065 C 
ATOM      5  C   UNL     1      34.331 -15.665 -20.682  0.00  0.00    +0.009 C 
ATOM      6  C   UNL     1      34.494 -16.628 -22.892  0.00  0.00    +0.009 C 
ATOM      7  C   UNL     1      33.658 -13.290 -20.342  0.00  0.00    +0.034 C 
ATOM      8  C   UNL     1      33.998 -15.291 -24.936  0.00  0.00    +0.034 C 
ENDROOT
BRANCH   4  13
ATOM      9  N   UNL     1      34.149 -19.005 -20.681  0.00  0.00    -0.106 NA
ATOM     10  N   UNL     1      36.292 -18.280 -20.595  0.00  0.00    -0.086 NA
ATOM     11  N   UNL     1      35.007 -19.898 -20.169  0.00  0.00    -0.113 N 
ATOM     12  N   UNL     1      36.288 -19.511 -20.099  0.00  0.00    -0.018 NA
ATOM     13  C   UNL     1      35.001 -18.010 -20.932  0.00  0.00    +0.074 C 
ATOM     14  C   UNL     1      34.579 -21.197 -19.720  0.00  0.00    +0.163 C 
ENDBRANCH   4  13
BRANCH   1  15
ATOM     15  O   UNL     1      33.461 -13.126 -23.173  0.00  0.00    -0.476 OA
BRANCH  15  16
ATOM     16  C   UNL     1      32.099 -12.738 -23.006  0.00  0.00    +0.206 C 
BRANCH  16  17
ATOM     17  C   UNL     1      32.045 -11.244 -22.720  0.00  0.00    +0.055 C 
BRANCH  17  18
ATOM     18  C   UNL     1      30.950 -10.905 -21.708  0.00  0.00    +0.071 C 
BRANCH  18  21
ATOM     19  O   UNL     1      31.374  -9.825 -19.603  0.00  0.00    -0.358 OA
ATOM     20  N   UNL     1      31.684  -8.593 -19.039  0.00  0.00    -0.082 NA
ATOM     21  C   UNL     1      31.284  -9.658 -20.930  0.00  0.00    +0.154 C 
ATOM     22  C   UNL     1      31.513  -8.388 -21.302  0.00  0.00    +0.054 C 
ATOM     23  C   UNL     1      31.762  -7.750 -20.073  0.00  0.00    +0.101 C 
ATOM     24  C   UNL     1      32.079  -6.332 -19.841  0.00  0.00    +0.056 C 
ENDBRANCH  18  21
ENDBRANCH  17  18
ENDBRANCH  16  17
ENDBRANCH  15  16
ENDBRANCH   1  15
TORSDOF 6
ENDMDL
MODEL 2
REMARK VINA RESULT:     -10.9      4.555      6.739
REMARK  Name = 1498
REMARK  6 active torsions:
REMARK  status: ('A' for Active; 'I' for Inactive)
REMARK    1  A    between atoms: C_1  and  O_15
REMARK    2  A    between atoms: C_4  and  C_13
REMARK    3  A    between atoms: O_15  and  C_16
REMARK    4  A    between atoms: C_16  and  C_17
REMARK    5  A    between atoms: C_17  and  C_18
REMARK    6  A    between atoms: C_18  and  C_21
REMARK                            x       y       z     vdW  Elec       q    Type
REMARK                         _______ _______ _______ _____ _____    ______ ____
ROOT
ATOM      1  C   UNL     1      34.203 -19.717 -20.479  0.00  0.00    +0.131 C 
ATOM      2  C   UNL     1      35.530 -19.759 -20.051  0.00  0.00    +0.012 C 
ATOM      3  C   UNL     1      33.234 -20.473 -19.819  0.00  0.00    +0.012 C 
ATOM      4  C   UNL     1      34.918 -21.312 -18.304  0.00  0.00    +0.065 C 
ATOM      5  C   UNL     1      35.888 -20.556 -18.963  0.00  0.00    +0.009 C 
ATOM      6  C   UNL     1      33.592 -21.271 -18.732  0.00  0.00    +0.009 C 
ATOM      7  C   UNL     1      36.582 -18.956 -20.744  0.00  0.00    +0.034 C 
ATOM      8  C   UNL     1      31.808 -20.443 -20.263  0.00  0.00    +0.034 C 
ENDROOT
BRANCH   4  13
ATOM      9  N   UNL     1      36.486 -22.087 -16.604  0.00  0.00    -0.106 NA
ATOM     10  N   UNL     1      34.430 -23.033 -16.629  0.00  0.00    -0.086 NA
ATOM     11  N   UNL     1      36.301 -23.017 -15.657  0.00  0.00    -0.113 N 
ATOM     12  N   UNL     1      35.097 -23.605 -15.634  0.00  0.00    -0.018 NA
ATOM     13  C   UNL     1      35.287 -22.134 -17.186  0.00  0.00    +0.074 C 
ATOM     14  C   UNL     1      37.336 -23.367 -14.719  0.00  0.00    +0.163 C 
ENDBRANCH   4  13
BRANCH   1  15
ATOM     15  O   UNL     1      33.853 -18.938 -21.542  0.00  0.00    -0.476 OA
BRANCH  15  16
ATOM     16  C   UNL     1      34.166 -19.436 -22.840  0.00  0.00    +0.206 C 
BRANCH  16  17
ATOM     17  C   UNL     1      34.074 -18.292 -23.841  0.00  0.00    +0.055 C 
BRANCH  17  18
ATOM     18  C   UNL     1      34.608 -16.986 -23.252  0.00  0.00    +0.071 C 
BRANCH  18  21
ATOM     19  O   UNL     1      33.716 -15.946 -25.226  0.00  0.00    -0.358 OA
ATOM     20  N   UNL     1      33.162 -14.759 -25.692  0.00  0.00    -0.082 NA
ATOM     21  C   UNL     1      33.995 -15.785 -23.925  0.00  0.00    +0.154 C 
ATOM     22  C   UNL     1      33.664 -14.563 -23.479  0.00  0.00    +0.054 C 
ATOM     23  C   UNL     1      33.142 -13.948 -24.631  0.00  0.00    +0.101 C 
ATOM     24  C   UNL     1      32.609 -12.582 -24.762  0.00  0.00    +0.056 C 
ENDBRANCH  18  21
ENDBRANCH  17  18
ENDBRANCH  16  17
ENDBRANCH  15  16
ENDBRANCH   1  15
TORSDOF 6
ENDMDL
MODEL 3
REMARK VINA RESULT:     -10.9      0.059      1.754
REMARK  Name = 1498
REMARK  6 active torsions:
REMARK  status: ('A' for Active; 'I' for Inactive)
REMARK    1  A    between atoms: C_1  and  O_15
REMARK    2  A    between atoms: C_4  and  C_13
REMARK    3  A    between atoms: O_15  and  C_16
REMARK    4  A    between atoms: C_16  and  C_17
REMARK    5  A    between atoms: C_17  and  C_18
REMARK    6  A    between atoms: C_18  and  C_21
REMARK                            x       y       z     vdW  Elec       q    Type
REMARK                         _______ _______ _______ _____ _____    ______ ____
ROOT
ATOM      1  C   UNL     1      33.833 -14.323 -22.640  0.00  0.00    +0.131 C 
ATOM      2  C   UNL     1      34.090 -15.419 -23.462  0.00  0.00    +0.012 C 
ATOM      3  C   UNL     1      33.964 -14.443 -21.256  0.00  0.00    +0.012 C 
ATOM      4  C   UNL     1      34.609 -16.757 -21.518  0.00  0.00    +0.065 C 
ATOM      5  C   UNL     1      34.477 -16.637 -22.902  0.00  0.00    +0.009 C 
ATOM      6  C   UNL     1      34.352 -15.661 -20.696  0.00  0.00    +0.009 C 
ATOM      7  C   UNL     1      33.955 -15.309 -24.946  0.00  0.00    +0.034 C 
ATOM      8  C   UNL     1      33.694 -13.281 -20.358  0.00  0.00    +0.034 C 
ENDROOT
BRANCH   4  13
ATOM      9  N   UNL     1      34.153 -19.002 -20.681  0.00  0.00    -0.106 NA
ATOM     10  N   UNL     1      36.299 -18.284 -20.614  0.00  0.00    -0.086 NA
ATOM     11  N   UNL     1      35.013 -19.896 -20.174  0.00  0.00    -0.113 N 
ATOM     12  N   UNL     1      36.296 -19.513 -20.114  0.00  0.00    -0.018 NA
ATOM     13  C   UNL     1      35.006 -18.011 -20.942  0.00  0.00    +0.074 C 
ATOM     14  C   UNL     1      34.584 -21.193 -19.718  0.00  0.00    +0.163 C 
ENDBRANCH   4  13
BRANCH   1  15
ATOM     15  O   UNL     1      33.454 -13.132 -23.187  0.00  0.00    -0.476 OA
BRANCH  15  16
ATOM     16  C   UNL     1      32.080 -12.773 -23.065  0.00  0.00    +0.206 C 
BRANCH  16  17
ATOM     17  C   UNL     1      31.987 -11.287 -22.744  0.00  0.00    +0.055 C 
BRANCH  17  18
ATOM     18  C   UNL     1      30.982 -11.015 -21.625  0.00  0.00    +0.071 C 
BRANCH  18  21
ATOM     19  O   UNL     1      31.329  -9.845 -19.555  0.00  0.00    -0.358 OA
ATOM     20  N   UNL     1      31.637  -8.593 -19.035  0.00  0.00    -0.082 NA
ATOM     21  C   UNL     1      31.304  -9.739 -20.891  0.00  0.00    +0.154 C 
ATOM     22  C   UNL     1      31.576  -8.493 -21.310  0.00  0.00    +0.054 C 
ATOM     23  C   UNL     1      31.780  -7.801 -20.103  0.00  0.00    +0.101 C 
ATOM     24  C   UNL     1      32.115  -6.380 -19.922  0.00  0.00    +0.056 C 
ENDBRANCH  18  21
ENDBRANCH  17  18
ENDBRANCH  16  17
ENDBRANCH  15  16
ENDBRANCH   1  15
TORSDOF 6
ENDMDL
MODEL 4
REMARK VINA RESULT:     -10.9      4.562      6.713
REMARK  Name = 1498
REMARK  6 active torsions:
REMARK  status: ('A' for Active; 'I' for Inactive)
REMARK    1  A    between atoms: C_1  and  O_15
REMARK    2  A    between atoms: C_4  and  C_13
REMARK    3  A    between atoms: O_15  and  C_16
REMARK    4  A    between atoms: C_16  and  C_17
REMARK    5  A    between atoms: C_17  and  C_18
REMARK    6  A    between atoms: C_18  and  C_21
REMARK                            x       y       z     vdW  Elec       q    Type
REMARK                         _______ _______ _______ _____ _____    ______ ____
ROOT
ATOM      1  C   UNL     1      34.175 -19.743 -20.470  0.00  0.00    +0.131 C 
ATOM      2  C   UNL     1      33.228 -20.510 -19.792  0.00  0.00    +0.012 C 
ATOM      3  C   UNL     1      35.509 -19.761 -20.063  0.00  0.00    +0.012 C 
ATOM      4  C   UNL     1      34.950 -21.315 -18.299  0.00  0.00    +0.065 C 
ATOM      5  C   UNL     1      33.615 -21.297 -18.705  0.00  0.00    +0.009 C 
ATOM      6  C   UNL     1      35.896 -20.548 -18.977  0.00  0.00    +0.009 C 
ATOM      7  C   UNL     1      31.795 -20.504 -20.213  0.00  0.00    +0.034 C 
ATOM      8  C   UNL     1      36.537 -18.946 -20.775  0.00  0.00    +0.034 C 
ENDROOT
BRANCH   4  13
ATOM      9  N   UNL     1      36.562 -22.070 -16.631  0.00  0.00    -0.106 NA
ATOM     10  N   UNL     1      34.504 -23.014 -16.589  0.00  0.00    -0.086 NA
ATOM     11  N   UNL     1      36.401 -22.988 -15.668  0.00  0.00    -0.113 N 
ATOM     12  N   UNL     1      35.198 -23.574 -15.606  0.00  0.00    -0.018 NA
ATOM     13  C   UNL     1      35.347 -22.123 -17.180  0.00  0.00    +0.074 C 
ATOM     14  C   UNL     1      37.460 -23.326 -14.753  0.00  0.00    +0.163 C 
ENDBRANCH   4  13
BRANCH   1  15
ATOM     15  O   UNL     1      33.797 -18.974 -21.531  0.00  0.00    -0.476 OA
BRANCH  15  16
ATOM     16  C   UNL     1      34.305 -19.344 -22.811  0.00  0.00    +0.206 C 
BRANCH  16  17
ATOM     17  C   UNL     1      34.087 -18.188 -23.778  0.00  0.00    +0.055 C 
BRANCH  17  18
ATOM     18  C   UNL     1      34.545 -16.858 -23.178  0.00  0.00    +0.071 C 
BRANCH  18  21
ATOM     19  O   UNL     1      33.694 -15.901 -25.211  0.00  0.00    -0.358 OA
ATOM     20  N   UNL     1      33.151 -14.734 -25.736  0.00  0.00    -0.082 NA
ATOM     21  C   UNL     1      33.947 -15.686 -23.912  0.00  0.00    +0.154 C 
ATOM     22  C   UNL     1      33.610 -14.446 -23.524  0.00  0.00    +0.054 C 
ATOM     23  C   UNL     1      33.111 -13.879 -24.710  0.00  0.00    +0.101 C 
ATOM     24  C   UNL     1      32.583 -12.520 -24.908  0.00  0.00    +0.056 C 
ENDBRANCH  18  21
ENDBRANCH  17  18
ENDBRANCH  16  17
ENDBRANCH  15  16
ENDBRANCH   1  15
TORSDOF 6
ENDMDL
MODEL 5
REMARK VINA RESULT:     -10.8      6.966     12.237
REMARK  Name = 1498
REMARK  6 active torsions:
REMARK  status: ('A' for Active; 'I' for Inactive)
REMARK    1  A    between atoms: C_1  and  O_15
REMARK    2  A    between atoms: C_4  and  C_13
REMARK    3  A    between atoms: O_15  and  C_16
REMARK    4  A    between atoms: C_16  and  C_17
REMARK    5  A    between atoms: C_17  and  C_18
REMARK    6  A    between atoms: C_18  and  C_21
REMARK                            x       y       z     vdW  Elec       q    Type
REMARK                         _______ _______ _______ _____ _____    ______ ____
ROOT
ATOM      1  C   UNL     1      34.757 -22.127 -17.345  0.00  0.00    +0.131 C 
ATOM      2  C   UNL     1      35.977 -21.490 -17.569  0.00  0.00    +0.012 C 
ATOM      3  C   UNL     1      33.676 -21.880 -18.191  0.00  0.00    +0.012 C 
ATOM      4  C   UNL     1      35.036 -20.359 -19.486  0.00  0.00    +0.065 C 
ATOM      5  C   UNL     1      36.117 -20.605 -18.639  0.00  0.00    +0.009 C 
ATOM      6  C   UNL     1      33.816 -20.996 -19.261  0.00  0.00    +0.009 C 
ATOM      7  C   UNL     1      37.146 -21.741 -16.674  0.00  0.00    +0.034 C 
ATOM      8  C   UNL     1      32.361 -22.552 -17.968  0.00  0.00    +0.034 C 
ENDROOT
BRANCH   4  13
ATOM      9  N   UNL     1      34.285 -19.337 -21.569  0.00  0.00    -0.106 NA
ATOM     10  N   UNL     1      36.252 -18.618 -20.709  0.00  0.00    -0.086 NA
ATOM     11  N   UNL     1      34.884 -18.385 -22.298  0.00  0.00    -0.113 N 
ATOM     12  N   UNL     1      36.053 -17.930 -21.826  0.00  0.00    -0.018 NA
ATOM     13  C   UNL     1      35.179 -19.447 -20.586  0.00  0.00    +0.074 C 
ATOM     14  C   UNL     1      34.308 -17.882 -23.517  0.00  0.00    +0.163 C 
ENDBRANCH   4  13
BRANCH   1  15
ATOM     15  O   UNL     1      34.621 -22.991 -16.299  0.00  0.00    -0.476 OA
BRANCH  15  16
ATOM     16  C   UNL     1      34.262 -22.430 -15.038  0.00  0.00    +0.206 C 
BRANCH  16  17
ATOM     17  C   UNL     1      34.926 -23.240 -13.933  0.00  0.00    +0.055 C 
BRANCH  17  18
ATOM     18  C   UNL     1      35.042 -24.717 -14.311  0.00  0.00    +0.071 C 
BRANCH  18  21
ATOM     19  O   UNL     1      36.644 -26.508 -14.328  0.00  0.00    -0.358 OA
ATOM     20  N   UNL     1      38.010 -26.766 -14.312  0.00  0.00    -0.082 NA
ATOM     21  C   UNL     1      36.477 -25.179 -14.299  0.00  0.00    +0.154 C 
ATOM     22  C   UNL     1      37.645 -24.518 -14.263  0.00  0.00    +0.054 C 
ATOM     23  C   UNL     1      38.587 -25.561 -14.272  0.00  0.00    +0.101 C 
ATOM     24  C   UNL     1      40.055 -25.452 -14.245  0.00  0.00    +0.056 C 
ENDBRANCH  18  21
ENDBRANCH  17  18
ENDBRANCH  16  17
ENDBRANCH  15  16
ENDBRANCH   1  15
TORSDOF 6
ENDMDL
MODEL 6
REMARK VINA RESULT:     -10.8      6.938     12.271
REMARK  Name = 1498
REMARK  6 active torsions:
REMARK  status: ('A' for Active; 'I' for Inactive)
REMARK    1  A    between atoms: C_1  and  O_15
REMARK    2  A    between atoms: C_4  and  C_13
REMARK    3  A    between atoms: O_15  and  C_16
REMARK    4  A    between atoms: C_16  and  C_17
REMARK    5  A    between atoms: C_17  and  C_18
REMARK    6  A    between atoms: C_18  and  C_21
REMARK                            x       y       z     vdW  Elec       q    Type
REMARK                         _______ _______ _______ _____ _____    ______ ____
ROOT
ATOM      1  C   UNL     1      34.759 -22.132 -17.339  0.00  0.00    +0.131 C 
ATOM      2  C   UNL     1      33.683 -21.883 -18.190  0.00  0.00    +0.012 C 
ATOM      3  C   UNL     1      35.981 -21.494 -17.553  0.00  0.00    +0.012 C 
ATOM      4  C   UNL     1      35.050 -20.358 -19.473  0.00  0.00    +0.065 C 
ATOM      5  C   UNL     1      33.829 -20.996 -19.258  0.00  0.00    +0.009 C 
ATOM      6  C   UNL     1      36.126 -20.608 -18.621  0.00  0.00    +0.009 C 
ATOM      7  C   UNL     1      32.367 -22.556 -17.976  0.00  0.00    +0.034 C 
ATOM      8  C   UNL     1      37.145 -21.749 -16.653  0.00  0.00    +0.034 C 
ENDROOT
BRANCH   4  13
ATOM      9  N   UNL     1      34.284 -19.294 -21.529  0.00  0.00    -0.106 NA
ATOM     10  N   UNL     1      36.303 -18.663 -20.722  0.00  0.00    -0.086 NA
ATOM     11  N   UNL     1      34.903 -18.364 -22.270  0.00  0.00    -0.113 N 
ATOM     12  N   UNL     1      36.102 -17.960 -21.830  0.00  0.00    -0.018 NA
ATOM     13  C   UNL     1      35.201 -19.447 -20.572  0.00  0.00    +0.074 C 
ATOM     14  C   UNL     1      34.313 -17.830 -23.470  0.00  0.00    +0.163 C 
ENDBRANCH   4  13
BRANCH   1  15
ATOM     15  O   UNL     1      34.617 -22.999 -16.295  0.00  0.00    -0.476 OA
BRANCH  15  16
ATOM     16  C   UNL     1      34.263 -22.439 -15.033  0.00  0.00    +0.206 C 
BRANCH  16  17
ATOM     17  C   UNL     1      34.935 -23.247 -13.931  0.00  0.00    +0.055 C 
BRANCH  17  18
ATOM     18  C   UNL     1      35.067 -24.721 -14.316  0.00  0.00    +0.071 C 
BRANCH  18  21
ATOM     19  O   UNL     1      36.684 -26.497 -14.379  0.00  0.00    -0.358 OA
ATOM     20  N   UNL     1      38.051 -26.745 -14.338  0.00  0.00    -0.082 NA
ATOM     21  C   UNL     1      36.505 -25.173 -14.288  0.00  0.00    +0.154 C 
ATOM     22  C   UNL     1      37.665 -24.505 -14.187  0.00  0.00    +0.054 C 
ATOM     23  C   UNL     1      38.617 -25.540 -14.223  0.00  0.00    +0.101 C 
ATOM     24  C   UNL     1      40.082 -25.422 -14.150  0.00  0.00    +0.056 C 
ENDBRANCH  18  21
ENDBRANCH  17  18
ENDBRANCH  16  17
ENDBRANCH  15  16
ENDBRANCH   1  15
TORSDOF 6
ENDMDL
MODEL 7
REMARK VINA RESULT:     -10.7      2.405      8.771
REMARK  Name = 1498
REMARK  6 active torsions:
REMARK  status: ('A' for Active; 'I' for Inactive)
REMARK    1  A    between atoms: C_1  and  O_15
REMARK    2  A    between atoms: C_4  and  C_13
REMARK    3  A    between atoms: O_15  and  C_16
REMARK    4  A    between atoms: C_16  and  C_17
REMARK    5  A    between atoms: C_17  and  C_18
REMARK    6  A    between atoms: C_18  and  C_21
REMARK                            x       y       z     vdW  Elec       q    Type
REMARK                         _______ _______ _______ _____ _____    ______ ____
ROOT
ATOM      1  C   UNL     1      33.809 -14.922 -22.759  0.00  0.00    +0.131 C 
ATOM      2  C   UNL     1      33.621 -14.454 -21.458  0.00  0.00    +0.012 C 
ATOM      3  C   UNL     1      33.322 -14.188 -23.841  0.00  0.00    +0.012 C 
ATOM      4  C   UNL     1      32.461 -12.518 -22.321  0.00  0.00    +0.065 C 
ATOM      5  C   UNL     1      32.947 -13.252 -21.239  0.00  0.00    +0.009 C 
ATOM      6  C   UNL     1      32.648 -12.986 -23.622  0.00  0.00    +0.009 C 
ATOM      7  C   UNL     1      34.135 -15.225 -20.287  0.00  0.00    +0.034 C 
ATOM      8  C   UNL     1      33.512 -14.672 -25.240  0.00  0.00    +0.034 C 
ENDROOT
BRANCH   4  13
ATOM      9  N   UNL     1      31.928 -10.199 -22.856  0.00  0.00    -0.106 NA
ATOM     10  N   UNL     1      30.877 -11.123 -21.076  0.00  0.00    -0.086 NA
ATOM     11  N   UNL     1      31.080  -9.370 -22.231  0.00  0.00    -0.113 N 
ATOM     12  N   UNL     1      30.435  -9.875 -21.171  0.00  0.00    -0.018 NA
ATOM     13  C   UNL     1      31.765 -11.282 -22.096  0.00  0.00    +0.074 C 
ATOM     14  C   UNL     1      30.874  -8.015 -22.673  0.00  0.00    +0.163 C 
ENDBRANCH   4  13
BRANCH   1  15
ATOM     15  O   UNL     1      34.468 -16.097 -22.973  0.00  0.00    -0.476 OA
BRANCH  15  16
ATOM     16  C   UNL     1      33.741 -17.137 -23.621  0.00  0.00    +0.206 C 
BRANCH  16  17
ATOM     17  C   UNL     1      34.208 -18.479 -23.073  0.00  0.00    +0.055 C 
BRANCH  17  18
ATOM     18  C   UNL     1      35.200 -18.301 -21.922  0.00  0.00    +0.071 C 
BRANCH  18  21
ATOM     19  O   UNL     1      36.055 -19.579 -20.076  0.00  0.00    -0.358 OA
ATOM     20  N   UNL     1      35.693 -20.542 -19.141  0.00  0.00    -0.082 NA
ATOM     21  C   UNL     1      34.984 -19.331 -20.843  0.00  0.00    +0.154 C 
ATOM     22  C   UNL     1      33.918 -20.065 -20.487  0.00  0.00    +0.054 C 
ATOM     23  C   UNL     1      34.413 -20.817 -19.407  0.00  0.00    +0.101 C 
ATOM     24  C   UNL     1      33.693 -21.812 -18.596  0.00  0.00    +0.056 C 
ENDBRANCH  18  21
ENDBRANCH  17  18
ENDBRANCH  16  17
ENDBRANCH  15  16
ENDBRANCH   1  15
TORSDOF 6
ENDMDL
MODEL 8
REMARK VINA RESULT:     -10.7      2.436      8.917
REMARK  Name = 1498
REMARK  6 active torsions:
REMARK  status: ('A' for Active; 'I' for Inactive)
REMARK    1  A    between atoms: C_1  and  O_15
REMARK    2  A    between atoms: C_4  and  C_13
REMARK    3  A    between atoms: O_15  and  C_16
REMARK    4  A    between atoms: C_16  and  C_17
REMARK    5  A    between atoms: C_17  and  C_18
REMARK    6  A    between atoms: C_18  and  C_21
REMARK                            x       y       z     vdW  Elec       q    Type
REMARK                         _______ _______ _______ _____ _____    ______ ____
ROOT
ATOM      1  C   UNL     1      33.820 -14.936 -22.771  0.00  0.00    +0.131 C 
ATOM      2  C   UNL     1      33.345 -14.195 -23.853  0.00  0.00    +0.012 C 
ATOM      3  C   UNL     1      33.617 -14.477 -21.469  0.00  0.00    +0.012 C 
ATOM      4  C   UNL     1      32.464 -12.536 -22.332  0.00  0.00    +0.065 C 
ATOM      5  C   UNL     1      32.667 -12.995 -23.634  0.00  0.00    +0.009 C 
ATOM      6  C   UNL     1      32.940 -13.277 -21.250  0.00  0.00    +0.009 C 
ATOM      7  C   UNL     1      33.552 -14.670 -25.254  0.00  0.00    +0.034 C 
ATOM      8  C   UNL     1      34.118 -15.256 -20.298  0.00  0.00    +0.034 C 
ENDROOT
BRANCH   4  13
ATOM      9  N   UNL     1      31.957 -10.207 -22.846  0.00  0.00    -0.106 NA
ATOM     10  N   UNL     1      30.854 -11.152 -21.109  0.00  0.00    -0.086 NA
ATOM     11  N   UNL     1      31.096  -9.383 -22.232  0.00  0.00    -0.113 N 
ATOM     12  N   UNL     1      30.421  -9.901 -21.197  0.00  0.00    -0.018 NA
ATOM     13  C   UNL     1      31.769 -11.301 -22.107  0.00  0.00    +0.074 C 
ATOM     14  C   UNL     1      30.908  -8.021 -22.659  0.00  0.00    +0.163 C 
ENDBRANCH   4  13
BRANCH   1  15
ATOM     15  O   UNL     1      34.482 -16.109 -22.985  0.00  0.00    -0.476 OA
BRANCH  15  16
ATOM     16  C   UNL     1      33.727 -17.188 -23.531  0.00  0.00    +0.206 C 
BRANCH  16  17
ATOM     17  C   UNL     1      34.330 -18.501 -23.052  0.00  0.00    +0.055 C 
BRANCH  17  18
ATOM     18  C   UNL     1      35.162 -18.309 -21.784  0.00  0.00    +0.071 C 
BRANCH  18  21
ATOM     19  O   UNL     1      35.897 -19.761 -20.017  0.00  0.00    -0.358 OA
ATOM     20  N   UNL     1      35.446 -20.727 -19.125  0.00  0.00    -0.082 NA
ATOM     21  C   UNL     1      34.851 -19.364 -20.754  0.00  0.00    +0.154 C 
ATOM     22  C   UNL     1      33.718 -20.001 -20.418  0.00  0.00    +0.054 C 
ATOM     23  C   UNL     1      34.141 -20.854 -19.384  0.00  0.00    +0.101 C 
ATOM     24  C   UNL     1      33.330 -21.809 -18.612  0.00  0.00    +0.056 C 
ENDBRANCH  18  21
ENDBRANCH  17  18
ENDBRANCH  16  17
ENDBRANCH  15  16
ENDBRANCH   1  15
TORSDOF 6
ENDMDL
MODEL 9
REMARK VINA RESULT:     -10.6      4.879      8.601
REMARK  Name = 1498
REMARK  6 active torsions:
REMARK  status: ('A' for Active; 'I' for Inactive)
REMARK    1  A    between atoms: C_1  and  O_15
REMARK    2  A    between atoms: C_4  and  C_13
REMARK    3  A    between atoms: O_15  and  C_16
REMARK    4  A    between atoms: C_16  and  C_17
REMARK    5  A    between atoms: C_17  and  C_18
REMARK    6  A    between atoms: C_18  and  C_21
REMARK                            x       y       z     vdW  Elec       q    Type
REMARK                         _______ _______ _______ _____ _____    ______ ____
ROOT
ATOM      1  C   UNL     1      35.211 -21.502 -18.000  0.00  0.00    +0.131 C 
ATOM      2  C   UNL     1      33.923 -22.008 -18.170  0.00  0.00    +0.012 C 
ATOM      3  C   UNL     1      35.828 -21.571 -16.751  0.00  0.00    +0.012 C 
ATOM      4  C   UNL     1      33.867 -22.652 -15.842  0.00  0.00    +0.065 C 
ATOM      5  C   UNL     1      33.250 -22.583 -17.091  0.00  0.00    +0.009 C 
ATOM      6  C   UNL     1      35.155 -22.146 -15.672  0.00  0.00    +0.009 C 
ATOM      7  C   UNL     1      33.246 -21.944 -19.500  0.00  0.00    +0.034 C 
ATOM      8  C   UNL     1      37.206 -21.033 -16.548  0.00  0.00    +0.034 C 
ENDROOT
BRANCH   4  13
ATOM      9  N   UNL     1      31.877 -23.551 -14.755  0.00  0.00    -0.106 NA
ATOM     10  N   UNL     1      33.798 -23.535 -13.557  0.00  0.00    -0.086 NA
ATOM     11  N   UNL     1      31.754 -24.050 -13.518  0.00  0.00    -0.113 N 
ATOM     12  N   UNL     1      32.866 -24.060 -12.771  0.00  0.00    -0.018 NA
ATOM     13  C   UNL     1      33.175 -23.243 -14.731  0.00  0.00    +0.074 C 
ATOM     14  C   UNL     1      30.498 -24.546 -13.018  0.00  0.00    +0.163 C 
ENDBRANCH   4  13
BRANCH   1  15
ATOM     15  O   UNL     1      35.868 -20.939 -19.055  0.00  0.00    -0.476 OA
BRANCH  15  16
ATOM     16  C   UNL     1      35.101 -20.118 -19.932  0.00  0.00    +0.206 C 
BRANCH  16  17
ATOM     17  C   UNL     1      36.020 -19.081 -20.563  0.00  0.00    +0.055 C 
BRANCH  17  18
ATOM     18  C   UNL     1      35.447 -18.549 -21.877  0.00  0.00    +0.071 C 
BRANCH  18  21
ATOM     19  O   UNL     1      34.728 -16.744 -20.464  0.00  0.00    -0.358 OA
ATOM     20  N   UNL     1      34.265 -15.434 -20.499  0.00  0.00    -0.082 NA
ATOM     21  C   UNL     1      34.938 -17.138 -21.727  0.00  0.00    +0.154 C 
ATOM     22  C   UNL     1      34.646 -16.177 -22.618  0.00  0.00    +0.054 C 
ATOM     23  C   UNL     1      34.223 -15.117 -21.796  0.00  0.00    +0.101 C 
ATOM     24  C   UNL     1      33.771 -13.780 -22.211  0.00  0.00    +0.056 C 
ENDBRANCH  18  21
ENDBRANCH  17  18
ENDBRANCH  16  17
ENDBRANCH  15  16
ENDBRANCH   1  15
TORSDOF 6
ENDMDL
