MODEL 1
REMARK VINA RESULT:     -12.9      0.000      0.000
REMARK  Name = 9874913
REMARK  8 active torsions:
REMARK  status: ('A' for Active; 'I' for Inactive)
REMARK    1  A    between atoms: N_1  and  C_13
REMARK    2  A    between atoms: C_8  and  C_28
REMARK    3  A    between atoms: C_16  and  O_20
REMARK    4  A    between atoms: O_20  and  C_22
REMARK    5  A    between atoms: C_29  and  C_30
REMARK    6  A    between atoms: C_30  and  N_32
REMARK    7  A    between atoms: C_33  and  C_35
REMARK    8  A    between atoms: C_35  and  O_36
REMARK                            x       y       z     vdW  Elec       q    Type
REMARK                         _______ _______ _______ _____ _____    ______ ____
ROOT
ATOM      1  N   UNL     1      33.921 -22.179 -17.761  0.00  0.00    -0.301 N 
ATOM      2  N   UNL     1      31.575 -22.020 -17.676  0.00  0.00    -0.233 NA
ATOM      3  N   UNL     1      30.377 -22.574 -15.660  0.00  0.00    -0.248 NA
ATOM      4  C   UNL     1      32.768 -22.747 -15.704  0.00  0.00    +0.116 C 
ATOM      5  C   UNL     1      32.716 -22.318 -17.027  0.00  0.00    +0.115 C 
ATOM      6  C   UNL     1      31.535 -22.863 -15.042  0.00  0.00    +0.067 C 
ATOM      7  C   UNL     1      33.974 -23.054 -15.048  0.00  0.00    -0.013 C 
ATOM      8  C   UNL     1      33.956 -23.478 -13.723  0.00  0.00    -0.004 C 
ATOM      9  C   UNL     1      31.548 -23.289 -13.716  0.00  0.00    +0.015 C 
ATOM     10  C   UNL     1      32.741 -23.596 -13.057  0.00  0.00    +0.001 C 
ATOM     11  C   UNL     1      30.460 -22.167 -16.943  0.00  0.00    +0.251 C 
ATOM     12  H   UNL     1      34.631 -22.801 -17.482  0.00  0.00    +0.153 HD
ENDROOT
BRANCH   1  13
ATOM     13  C   UNL     1      34.297 -21.325 -18.811  0.00  0.00    +0.049 C 
ATOM     14  C   UNL     1      33.708 -19.985 -20.731  0.00  0.00    +0.014 C 
ATOM     15  C   UNL     1      33.333 -20.831 -19.689  0.00  0.00    +0.013 C 
ATOM     16  C   UNL     1      35.047 -19.632 -20.898  0.00  0.00    +0.141 C 
ATOM     17  C   UNL     1      35.638 -20.974 -18.976  0.00  0.00    +0.018 C 
ATOM     18  C   UNL     1      36.011 -20.128 -20.020  0.00  0.00    +0.038 C 
ATOM     19  C   UNL     1      32.661 -19.463 -21.661  0.00  0.00    +0.034 C 
BRANCH  16  20
ATOM     20  O   UNL     1      35.429 -18.807 -21.911  0.00  0.00    -0.452 OA
BRANCH  20  22
ATOM     21  N   UNL     1      34.320 -15.570 -20.580  0.00  0.00    -0.245 NA
ATOM     22  C   UNL     1      34.975 -17.500 -21.880  0.00  0.00    +0.164 C 
ATOM     23  C   UNL     1      34.721 -16.803 -23.056  0.00  0.00    +0.040 C 
ATOM     24  C   UNL     1      34.760 -16.844 -20.679  0.00  0.00    +0.136 C 
ATOM     25  C   UNL     1      34.267 -15.490 -22.995  0.00  0.00    +0.018 C 
ATOM     26  C   UNL     1      34.084 -14.924 -21.744  0.00  0.00    +0.060 C 
ATOM     27  C   UNL     1      33.597 -13.517 -21.641  0.00  0.00    +0.052 C 
ENDBRANCH  20  22
ENDBRANCH  16  20
ENDBRANCH   1  13
BRANCH   8  28
ATOM     28  C   UNL     1      35.199 -23.796 -13.038  0.00  0.00    -0.003 C 
ATOM     29  C   UNL     1      36.138 -22.904 -12.648  0.00  0.00    -0.005 C 
BRANCH  29  30
ATOM     30  C   UNL     1      37.395 -23.277 -11.932  0.00  0.00    +0.116 C 
BRANCH  30  32
ATOM     31  O   UNL     1      38.573 -23.441 -14.574  0.00  0.00    -0.272 OA
ATOM     32  N   UNL     1      37.965 -24.436 -12.561  0.00  0.00    -0.298 N 
ATOM     33  C   UNL     1      38.511 -24.423 -13.840  0.00  0.00    +0.253 C 
ATOM     34  H   UNL     1      37.968 -25.283 -12.060  0.00  0.00    +0.150 HD
BRANCH  33  35
ATOM     35  C   UNL     1      39.037 -25.783 -14.246  0.00  0.00    +0.227 C 
BRANCH  35  36
ATOM     36  O   UNL     1      38.023 -26.760 -14.148  0.00  0.00    -0.342 OA
ATOM     37  C   UNL     1      36.889 -26.431 -14.946  0.00  0.00    +0.175 C 
ENDBRANCH  35  36
ENDBRANCH  33  35
ENDBRANCH  30  32
ENDBRANCH  29  30
ENDBRANCH   8  28
TORSDOF 8
ENDMDL
MODEL 2
REMARK VINA RESULT:     -12.1      5.376     10.663
REMARK  Name = 9874913
REMARK  8 active torsions:
REMARK  status: ('A' for Active; 'I' for Inactive)
REMARK    1  A    between atoms: N_1  and  C_13
REMARK    2  A    between atoms: C_8  and  C_28
REMARK    3  A    between atoms: C_16  and  O_20
REMARK    4  A    between atoms: O_20  and  C_22
REMARK    5  A    between atoms: C_29  and  C_30
REMARK    6  A    between atoms: C_30  and  N_32
REMARK    7  A    between atoms: C_33  and  C_35
REMARK    8  A    between atoms: C_35  and  O_36
REMARK                            x       y       z     vdW  Elec       q    Type
REMARK                         _______ _______ _______ _____ _____    ______ ____
ROOT
ATOM      1  N   UNL     1      33.510 -12.460 -22.606  0.00  0.00    -0.301 N 
ATOM      2  N   UNL     1      32.912 -12.642 -24.875  0.00  0.00    -0.233 NA
ATOM      3  N   UNL     1      33.068 -14.756 -26.022  0.00  0.00    -0.248 NA
ATOM      4  C   UNL     1      33.686 -14.613 -23.709  0.00  0.00    +0.116 C 
ATOM      5  C   UNL     1      33.363 -13.260 -23.767  0.00  0.00    +0.115 C 
ATOM      6  C   UNL     1      33.516 -15.341 -24.898  0.00  0.00    +0.067 C 
ATOM      7  C   UNL     1      34.156 -15.237 -22.540  0.00  0.00    -0.013 C 
ATOM      8  C   UNL     1      34.460 -16.594 -22.549  0.00  0.00    -0.004 C 
ATOM      9  C   UNL     1      33.828 -16.699 -24.879  0.00  0.00    +0.015 C 
ATOM     10  C   UNL     1      34.296 -17.326 -23.720  0.00  0.00    +0.001 C 
ATOM     11  C   UNL     1      32.790 -13.438 -25.949  0.00  0.00    +0.251 C 
ATOM     12  H   UNL     1      34.228 -12.761 -22.004  0.00  0.00    +0.153 HD
ENDROOT
BRANCH   1  13
ATOM     13  C   UNL     1      32.829 -11.320 -22.150  0.00  0.00    +0.049 C 
ATOM     14  C   UNL     1      31.707 -10.123 -20.378  0.00  0.00    +0.014 C 
ATOM     15  C   UNL     1      32.384 -11.255 -20.830  0.00  0.00    +0.013 C 
ATOM     16  C   UNL     1      31.474  -9.055 -21.246  0.00  0.00    +0.141 C 
ATOM     17  C   UNL     1      32.597 -10.253 -23.019  0.00  0.00    +0.018 C 
ATOM     18  C   UNL     1      31.919  -9.122 -22.566  0.00  0.00    +0.038 C 
ATOM     19  C   UNL     1      31.239 -10.069 -18.960  0.00  0.00    +0.034 C 
BRANCH  16  20
ATOM     20  O   UNL     1      30.814  -7.943 -20.820  0.00  0.00    -0.452 OA
BRANCH  20  22
ATOM     21  N   UNL     1      30.452  -5.251 -23.291  0.00  0.00    -0.245 NA
ATOM     22  C   UNL     1      31.048  -6.759 -21.497  0.00  0.00    +0.164 C 
ATOM     23  C   UNL     1      32.066  -5.898 -21.103  0.00  0.00    +0.040 C 
ATOM     24  C   UNL     1      30.276  -6.393 -22.588  0.00  0.00    +0.136 C 
ATOM     25  C   UNL     1      32.278  -4.714 -21.801  0.00  0.00    +0.018 C 
ATOM     26  C   UNL     1      31.451  -4.439 -22.878  0.00  0.00    +0.060 C 
ATOM     27  C   UNL     1      31.650  -3.178 -23.651  0.00  0.00    +0.052 C 
ENDBRANCH  20  22
ENDBRANCH  16  20
ENDBRANCH   1  13
BRANCH   8  28
ATOM     28  C   UNL     1      34.947 -17.245 -21.343  0.00  0.00    -0.003 C 
ATOM     29  C   UNL     1      35.718 -18.355 -21.298  0.00  0.00    -0.005 C 
BRANCH  29  30
ATOM     30  C   UNL     1      36.207 -18.980 -20.032  0.00  0.00    +0.116 C 
BRANCH  30  32
ATOM     31  O   UNL     1      36.402 -20.712 -17.718  0.00  0.00    -0.272 OA
ATOM     32  N   UNL     1      35.390 -20.120 -19.728  0.00  0.00    -0.298 N 
ATOM     33  C   UNL     1      35.556 -20.899 -18.587  0.00  0.00    +0.253 C 
ATOM     34  H   UNL     1      34.675 -20.364 -20.360  0.00  0.00    +0.150 HD
BRANCH  33  35
ATOM     35  C   UNL     1      34.556 -22.035 -18.525  0.00  0.00    +0.227 C 
BRANCH  35  36
ATOM     36  O   UNL     1      34.397 -22.488 -17.198  0.00  0.00    -0.342 OA
ATOM     37  C   UNL     1      33.050 -22.859 -16.920  0.00  0.00    +0.175 C 
ENDBRANCH  35  36
ENDBRANCH  33  35
ENDBRANCH  30  32
ENDBRANCH  29  30
ENDBRANCH   8  28
TORSDOF 8
ENDMDL
MODEL 3
REMARK VINA RESULT:     -11.8      3.477      6.022
REMARK  Name = 9874913
REMARK  8 active torsions:
REMARK  status: ('A' for Active; 'I' for Inactive)
REMARK    1  A    between atoms: N_1  and  C_13
REMARK    2  A    between atoms: C_8  and  C_28
REMARK    3  A    between atoms: C_16  and  O_20
REMARK    4  A    between atoms: O_20  and  C_22
REMARK    5  A    between atoms: C_29  and  C_30
REMARK    6  A    between atoms: C_30  and  N_32
REMARK    7  A    between atoms: C_33  and  C_35
REMARK    8  A    between atoms: C_35  and  O_36
REMARK                            x       y       z     vdW  Elec       q    Type
REMARK                         _______ _______ _______ _____ _____    ______ ____
ROOT
ATOM      1  N   UNL     1      34.072 -20.604 -18.453  0.00  0.00    -0.301 N 
ATOM      2  N   UNL     1      36.249 -20.987 -17.645  0.00  0.00    -0.233 NA
ATOM      3  N   UNL     1      36.650 -22.618 -15.917  0.00  0.00    -0.248 NA
ATOM      4  C   UNL     1      34.417 -22.260 -16.714  0.00  0.00    +0.116 C 
ATOM      5  C   UNL     1      34.942 -21.304 -17.579  0.00  0.00    +0.115 C 
ATOM      6  C   UNL     1      35.339 -22.910 -15.878  0.00  0.00    +0.067 C 
ATOM      7  C   UNL     1      33.047 -22.574 -16.663  0.00  0.00    -0.013 C 
ATOM      8  C   UNL     1      32.588 -23.541 -15.776  0.00  0.00    -0.004 C 
ATOM      9  C   UNL     1      34.851 -23.875 -14.999  0.00  0.00    +0.015 C 
ATOM     10  C   UNL     1      33.491 -24.192 -14.942  0.00  0.00    +0.001 C 
ATOM     11  C   UNL     1      37.034 -21.672 -16.799  0.00  0.00    +0.251 C 
ATOM     12  H   UNL     1      33.161 -20.488 -18.099  0.00  0.00    +0.153 HD
ENDROOT
BRANCH   1  13
ATOM     13  C   UNL     1      34.260 -20.044 -19.727  0.00  0.00    +0.049 C 
ATOM     14  C   UNL     1      35.690 -18.974 -21.352  0.00  0.00    +0.014 C 
ATOM     15  C   UNL     1      35.506 -19.532 -20.088  0.00  0.00    +0.013 C 
ATOM     16  C   UNL     1      34.629 -18.927 -22.257  0.00  0.00    +0.141 C 
ATOM     17  C   UNL     1      33.197 -19.997 -20.630  0.00  0.00    +0.018 C 
ATOM     18  C   UNL     1      33.383 -19.438 -21.894  0.00  0.00    +0.038 C 
ATOM     19  C   UNL     1      37.032 -18.433 -21.723  0.00  0.00    +0.034 C 
BRANCH  16  20
ATOM     20  O   UNL     1      34.793 -18.386 -23.495  0.00  0.00    -0.452 OA
BRANCH  20  22
ATOM     21  N   UNL     1      33.089 -15.560 -25.105  0.00  0.00    -0.245 NA
ATOM     22  C   UNL     1      34.312 -17.105 -23.705  0.00  0.00    +0.164 C 
ATOM     23  C   UNL     1      34.541 -16.094 -22.778  0.00  0.00    +0.040 C 
ATOM     24  C   UNL     1      33.587 -16.789 -24.842  0.00  0.00    +0.136 C 
ATOM     25  C   UNL     1      34.045 -14.817 -23.013  0.00  0.00    +0.018 C 
ATOM     26  C   UNL     1      33.331 -14.604 -24.182  0.00  0.00    +0.060 C 
ATOM     27  C   UNL     1      32.785 -13.244 -24.467  0.00  0.00    +0.052 C 
ENDBRANCH  20  22
ENDBRANCH  16  20
ENDBRANCH   1  13
BRANCH   8  28
ATOM     28  C   UNL     1      31.172 -23.870 -15.719  0.00  0.00    -0.003 C 
ATOM     29  C   UNL     1      30.548 -24.507 -14.702  0.00  0.00    -0.005 C 
BRANCH  29  30
ATOM     30  C   UNL     1      29.085 -24.810 -14.682  0.00  0.00    +0.116 C 
BRANCH  30  32
ATOM     31  O   UNL     1      27.418 -23.990 -16.905  0.00  0.00    -0.272 OA
ATOM     32  N   UNL     1      28.351 -23.583 -14.813  0.00  0.00    -0.298 N 
ATOM     33  C   UNL     1      27.572 -23.271 -15.922  0.00  0.00    +0.253 C 
ATOM     34  H   UNL     1      28.403 -22.928 -14.080  0.00  0.00    +0.150 HD
BRANCH  33  35
ATOM     35  C   UNL     1      26.914 -21.913 -15.790  0.00  0.00    +0.227 C 
BRANCH  35  36
ATOM     36  O   UNL     1      26.893 -21.245 -17.033  0.00  0.00    -0.342 OA
ATOM     37  C   UNL     1      25.569 -20.897 -17.427  0.00  0.00    +0.175 C 
ENDBRANCH  35  36
ENDBRANCH  33  35
ENDBRANCH  30  32
ENDBRANCH  29  30
ENDBRANCH   8  28
TORSDOF 8
ENDMDL
MODEL 4
REMARK VINA RESULT:     -11.8      2.916      5.451
REMARK  Name = 9874913
REMARK  8 active torsions:
REMARK  status: ('A' for Active; 'I' for Inactive)
REMARK    1  A    between atoms: N_1  and  C_13
REMARK    2  A    between atoms: C_8  and  C_28
REMARK    3  A    between atoms: C_16  and  O_20
REMARK    4  A    between atoms: O_20  and  C_22
REMARK    5  A    between atoms: C_29  and  C_30
REMARK    6  A    between atoms: C_30  and  N_32
REMARK    7  A    between atoms: C_33  and  C_35
REMARK    8  A    between atoms: C_35  and  O_36
REMARK                            x       y       z     vdW  Elec       q    Type
REMARK                         _______ _______ _______ _____ _____    ______ ____
ROOT
ATOM      1  N   UNL     1      34.950 -21.545 -16.744  0.00  0.00    -0.301 N 
ATOM      2  N   UNL     1      37.235 -22.003 -16.421  0.00  0.00    -0.233 NA
ATOM      3  N   UNL     1      37.954 -23.515 -14.688  0.00  0.00    -0.248 NA
ATOM      4  C   UNL     1      35.615 -23.076 -14.985  0.00  0.00    +0.116 C 
ATOM      5  C   UNL     1      35.967 -22.228 -16.030  0.00  0.00    +0.115 C 
ATOM      6  C   UNL     1      36.676 -23.716 -14.324  0.00  0.00    +0.067 C 
ATOM      7  C   UNL     1      34.282 -23.295 -14.594  0.00  0.00    -0.013 C 
ATOM      8  C   UNL     1      33.999 -24.156 -13.539  0.00  0.00    -0.004 C 
ATOM      9  C   UNL     1      36.363 -24.574 -13.272  0.00  0.00    +0.015 C 
ATOM     10  C   UNL     1      35.041 -24.797 -12.877  0.00  0.00    +0.001 C 
ATOM     11  C   UNL     1      38.164 -22.669 -15.717  0.00  0.00    +0.251 C 
ATOM     12  H   UNL     1      34.153 -21.342 -16.204  0.00  0.00    +0.153 HD
ENDROOT
BRANCH   1  13
ATOM     13  C   UNL     1      34.861 -21.101 -18.073  0.00  0.00    +0.049 C 
ATOM     14  C   UNL     1      33.524 -20.466 -19.982  0.00  0.00    +0.014 C 
ATOM     15  C   UNL     1      33.611 -20.906 -18.662  0.00  0.00    +0.013 C 
ATOM     16  C   UNL     1      34.685 -20.222 -20.715  0.00  0.00    +0.141 C 
ATOM     17  C   UNL     1      36.023 -20.858 -18.806  0.00  0.00    +0.018 C 
ATOM     18  C   UNL     1      35.934 -20.419 -20.126  0.00  0.00    +0.038 C 
ATOM     19  C   UNL     1      32.178 -20.260 -20.595  0.00  0.00    +0.034 C 
BRANCH  16  20
ATOM     20  O   UNL     1      34.617 -19.793 -22.006  0.00  0.00    -0.452 OA
BRANCH  20  22
ATOM     21  N   UNL     1      33.997 -16.615 -23.737  0.00  0.00    -0.245 NA
ATOM     22  C   UNL     1      34.504 -18.430 -22.224  0.00  0.00    +0.164 C 
ATOM     23  C   UNL     1      34.765 -17.519 -21.207  0.00  0.00    +0.040 C 
ATOM     24  C   UNL     1      34.127 -17.931 -23.460  0.00  0.00    +0.136 C 
ATOM     25  C   UNL     1      34.642 -16.156 -21.453  0.00  0.00    +0.018 C 
ATOM     26  C   UNL     1      34.258 -15.759 -22.724  0.00  0.00    +0.060 C 
ATOM     27  C   UNL     1      34.118 -14.304 -23.025  0.00  0.00    +0.052 C 
ENDBRANCH  20  22
ENDBRANCH  16  20
ENDBRANCH   1  13
BRANCH   8  28
ATOM     28  C   UNL     1      32.622 -24.387 -13.131  0.00  0.00    -0.003 C 
ATOM     29  C   UNL     1      31.538 -24.344 -13.940  0.00  0.00    -0.005 C 
BRANCH  29  30
ATOM     30  C   UNL     1      30.142 -24.604 -13.477  0.00  0.00    +0.116 C 
BRANCH  30  32
ATOM     31  O   UNL     1      29.123 -22.144 -14.618  0.00  0.00    -0.272 OA
ATOM     32  N   UNL     1      29.247 -24.467 -14.591  0.00  0.00    -0.298 N 
ATOM     33  C   UNL     1      28.807 -23.239 -15.074  0.00  0.00    +0.253 C 
ATOM     34  H   UNL     1      28.927 -25.285 -15.036  0.00  0.00    +0.150 HD
BRANCH  33  35
ATOM     35  C   UNL     1      27.872 -23.395 -16.255  0.00  0.00    +0.227 C 
BRANCH  35  36
ATOM     36  O   UNL     1      27.735 -22.174 -16.948  0.00  0.00    -0.342 OA
ATOM     37  C   UNL     1      26.384 -21.720 -16.964  0.00  0.00    +0.175 C 
ENDBRANCH  35  36
ENDBRANCH  33  35
ENDBRANCH  30  32
ENDBRANCH  29  30
ENDBRANCH   8  28
TORSDOF 8
ENDMDL
MODEL 5
REMARK VINA RESULT:     -11.5      1.695      2.522
REMARK  Name = 9874913
REMARK  8 active torsions:
REMARK  status: ('A' for Active; 'I' for Inactive)
REMARK    1  A    between atoms: N_1  and  C_13
REMARK    2  A    between atoms: C_8  and  C_28
REMARK    3  A    between atoms: C_16  and  O_20
REMARK    4  A    between atoms: O_20  and  C_22
REMARK    5  A    between atoms: C_29  and  C_30
REMARK    6  A    between atoms: C_30  and  N_32
REMARK    7  A    between atoms: C_33  and  C_35
REMARK    8  A    between atoms: C_35  and  O_36
REMARK                            x       y       z     vdW  Elec       q    Type
REMARK                         _______ _______ _______ _____ _____    ______ ____
ROOT
ATOM      1  N   UNL     1      34.715 -21.088 -19.334  0.00  0.00    -0.301 N 
ATOM      2  N   UNL     1      32.378 -21.305 -19.166  0.00  0.00    -0.233 NA
ATOM      3  N   UNL     1      31.372 -22.297 -17.214  0.00  0.00    -0.248 NA
ATOM      4  C   UNL     1      33.757 -22.092 -17.345  0.00  0.00    +0.116 C 
ATOM      5  C   UNL     1      33.580 -21.506 -18.595  0.00  0.00    +0.115 C 
ATOM      6  C   UNL     1      32.588 -22.483 -16.673  0.00  0.00    +0.067 C 
ATOM      7  C   UNL     1      35.024 -22.293 -16.768  0.00  0.00    -0.013 C 
ATOM      8  C   UNL     1      35.132 -22.885 -15.515  0.00  0.00    -0.004 C 
ATOM      9  C   UNL     1      32.726 -23.072 -15.418  0.00  0.00    +0.015 C 
ATOM     10  C   UNL     1      33.981 -23.276 -14.839  0.00  0.00    +0.001 C 
ATOM     11  C   UNL     1      31.333 -21.717 -18.431  0.00  0.00    +0.251 C 
ATOM     12  H   UNL     1      35.522 -21.624 -19.162  0.00  0.00    +0.153 HD
ENDROOT
BRANCH   1  13
ATOM     13  C   UNL     1      34.910 -20.056 -20.267  0.00  0.00    +0.049 C 
ATOM     14  C   UNL     1      34.251 -18.911 -22.289  0.00  0.00    +0.014 C 
ATOM     15  C   UNL     1      34.056 -19.935 -21.363  0.00  0.00    +0.013 C 
ATOM     16  C   UNL     1      35.301 -18.007 -22.120  0.00  0.00    +0.141 C 
ATOM     17  C   UNL     1      35.960 -19.153 -20.097  0.00  0.00    +0.018 C 
ATOM     18  C   UNL     1      36.154 -18.129 -21.024  0.00  0.00    +0.038 C 
ATOM     19  C   UNL     1      33.326 -18.796 -23.456  0.00  0.00    +0.034 C 
BRANCH  16  20
ATOM     20  O   UNL     1      35.505 -17.002 -23.015  0.00  0.00    -0.452 OA
BRANCH  20  22
ATOM     21  N   UNL     1      33.387 -14.175 -24.018  0.00  0.00    -0.245 NA
ATOM     22  C   UNL     1      34.699 -15.881 -22.916  0.00  0.00    +0.164 C 
ATOM     23  C   UNL     1      34.383 -15.334 -21.678  0.00  0.00    +0.040 C 
ATOM     24  C   UNL     1      34.180 -15.269 -24.046  0.00  0.00    +0.136 C 
ATOM     25  C   UNL     1      33.570 -14.208 -21.608  0.00  0.00    +0.018 C 
ATOM     26  C   UNL     1      33.102 -13.672 -22.797  0.00  0.00    +0.060 C 
ATOM     27  C   UNL     1      32.227 -12.463 -22.760  0.00  0.00    +0.052 C 
ENDBRANCH  20  22
ENDBRANCH  16  20
ENDBRANCH   1  13
BRANCH   8  28
ATOM     28  C   UNL     1      36.440 -23.094 -14.913  0.00  0.00    -0.003 C 
ATOM     29  C   UNL     1      37.314 -24.074 -15.240  0.00  0.00    -0.005 C 
BRANCH  29  30
ATOM     30  C   UNL     1      38.656 -24.239 -14.603  0.00  0.00    +0.116 C 
BRANCH  30  32
ATOM     31  O   UNL     1      37.244 -26.356 -13.217  0.00  0.00    -0.272 OA
ATOM     32  N   UNL     1      38.485 -24.388 -13.185  0.00  0.00    -0.298 N 
ATOM     33  C   UNL     1      37.788 -25.442 -12.604  0.00  0.00    +0.253 C 
ATOM     34  H   UNL     1      38.881 -23.707 -12.594  0.00  0.00    +0.150 HD
BRANCH  33  35
ATOM     35  C   UNL     1      37.767 -25.344 -11.093  0.00  0.00    +0.227 C 
BRANCH  35  36
ATOM     36  O   UNL     1      37.165 -24.136 -10.679  0.00  0.00    -0.342 OA
ATOM     37  C   UNL     1      35.767 -24.119 -10.952  0.00  0.00    +0.175 C 
ENDBRANCH  35  36
ENDBRANCH  33  35
ENDBRANCH  30  32
ENDBRANCH  29  30
ENDBRANCH   8  28
TORSDOF 8
ENDMDL
MODEL 6
REMARK VINA RESULT:     -11.1      2.480      4.323
REMARK  Name = 9874913
REMARK  8 active torsions:
REMARK  status: ('A' for Active; 'I' for Inactive)
REMARK    1  A    between atoms: N_1  and  C_13
REMARK    2  A    between atoms: C_8  and  C_28
REMARK    3  A    between atoms: C_16  and  O_20
REMARK    4  A    between atoms: O_20  and  C_22
REMARK    5  A    between atoms: C_29  and  C_30
REMARK    6  A    between atoms: C_30  and  N_32
REMARK    7  A    between atoms: C_33  and  C_35
REMARK    8  A    between atoms: C_35  and  O_36
REMARK                            x       y       z     vdW  Elec       q    Type
REMARK                         _______ _______ _______ _____ _____    ______ ____
ROOT
ATOM      1  N   UNL     1      34.608 -18.892 -20.882  0.00  0.00    -0.301 N 
ATOM      2  N   UNL     1      32.414 -19.733 -21.005  0.00  0.00    -0.233 NA
ATOM      3  N   UNL     1      31.689 -21.500 -19.535  0.00  0.00    -0.248 NA
ATOM      4  C   UNL     1      33.933 -20.670 -19.376  0.00  0.00    +0.116 C 
ATOM      5  C   UNL     1      33.619 -19.791 -20.409  0.00  0.00    +0.115 C 
ATOM      6  C   UNL     1      32.905 -21.531 -18.962  0.00  0.00    +0.067 C 
ATOM      7  C   UNL     1      35.201 -20.713 -18.769  0.00  0.00    -0.013 C 
ATOM      8  C   UNL     1      35.450 -21.616 -17.741  0.00  0.00    -0.004 C 
ATOM      9  C   UNL     1      33.182 -22.425 -17.930  0.00  0.00    +0.015 C 
ATOM     10  C   UNL     1      34.439 -22.474 -17.321  0.00  0.00    +0.001 C 
ATOM     11  C   UNL     1      31.510 -20.602 -20.526  0.00  0.00    +0.251 C 
ATOM     12  H   UNL     1      35.527 -19.234 -20.801  0.00  0.00    +0.153 HD
ENDROOT
BRANCH   1  13
ATOM     13  C   UNL     1      34.529 -17.609 -21.446  0.00  0.00    +0.049 C 
ATOM     14  C   UNL     1      34.354 -16.184 -23.388  0.00  0.00    +0.014 C 
ATOM     15  C   UNL     1      34.431 -17.459 -22.829  0.00  0.00    +0.013 C 
ATOM     16  C   UNL     1      34.376 -15.058 -22.565  0.00  0.00    +0.141 C 
ATOM     17  C   UNL     1      34.551 -16.483 -20.622  0.00  0.00    +0.018 C 
ATOM     18  C   UNL     1      34.474 -15.208 -21.182  0.00  0.00    +0.038 C 
ATOM     19  C   UNL     1      34.248 -16.042 -24.871  0.00  0.00    +0.034 C 
BRANCH  16  20
ATOM     20  O   UNL     1      34.301 -13.806 -23.095  0.00  0.00    -0.452 OA
BRANCH  20  22
ATOM     21  N   UNL     1      32.128 -10.864 -22.770  0.00  0.00    -0.245 NA
ATOM     22  C   UNL     1      33.333 -12.952 -22.595  0.00  0.00    +0.164 C 
ATOM     23  C   UNL     1      32.602 -13.287 -21.460  0.00  0.00    +0.040 C 
ATOM     24  C   UNL     1      33.060 -11.740 -23.207  0.00  0.00    +0.136 C 
ATOM     25  C   UNL     1      31.634 -12.412 -20.980  0.00  0.00    +0.018 C 
ATOM     26  C   UNL     1      31.437 -11.224 -21.665  0.00  0.00    +0.060 C 
ATOM     27  C   UNL     1      30.407 -10.260 -21.177  0.00  0.00    +0.052 C 
ENDBRANCH  20  22
ENDBRANCH  16  20
ENDBRANCH   1  13
BRANCH   8  28
ATOM     28  C   UNL     1      36.759 -21.664 -17.109  0.00  0.00    -0.003 C 
ATOM     29  C   UNL     1      37.123 -22.497 -16.106  0.00  0.00    -0.005 C 
BRANCH  29  30
ATOM     30  C   UNL     1      38.488 -22.520 -15.498  0.00  0.00    +0.116 C 
BRANCH  30  32
ATOM     31  O   UNL     1      39.754 -25.123 -15.627  0.00  0.00    -0.272 OA
ATOM     32  N   UNL     1      38.524 -23.522 -14.470  0.00  0.00    -0.298 N 
ATOM     33  C   UNL     1      39.159 -24.751 -14.620  0.00  0.00    +0.253 C 
ATOM     34  H   UNL     1      38.076 -23.329 -13.615  0.00  0.00    +0.150 HD
BRANCH  33  35
ATOM     35  C   UNL     1      39.037 -25.608 -13.378  0.00  0.00    +0.227 C 
BRANCH  35  36
ATOM     36  O   UNL     1      37.747 -26.171 -13.284  0.00  0.00    -0.342 OA
ATOM     37  C   UNL     1      37.058 -25.730 -12.118  0.00  0.00    +0.175 C 
ENDBRANCH  35  36
ENDBRANCH  33  35
ENDBRANCH  30  32
ENDBRANCH  29  30
ENDBRANCH   8  28
TORSDOF 8
ENDMDL
MODEL 7
REMARK VINA RESULT:     -11.1      7.951     14.244
REMARK  Name = 9874913
REMARK  8 active torsions:
REMARK  status: ('A' for Active; 'I' for Inactive)
REMARK    1  A    between atoms: N_1  and  C_13
REMARK    2  A    between atoms: C_8  and  C_28
REMARK    3  A    between atoms: C_16  and  O_20
REMARK    4  A    between atoms: O_20  and  C_22
REMARK    5  A    between atoms: C_29  and  C_30
REMARK    6  A    between atoms: C_30  and  N_32
REMARK    7  A    between atoms: C_33  and  C_35
REMARK    8  A    between atoms: C_35  and  O_36
REMARK                            x       y       z     vdW  Elec       q    Type
REMARK                         _______ _______ _______ _____ _____    ______ ____
ROOT
ATOM      1  N   UNL     1      31.684  -8.376 -23.218  0.00  0.00    -0.301 N 
ATOM      2  N   UNL     1      31.191  -8.059 -20.939  0.00  0.00    -0.233 NA
ATOM      3  N   UNL     1      31.231  -9.915 -19.402  0.00  0.00    -0.248 NA
ATOM      4  C   UNL     1      31.741 -10.280 -21.716  0.00  0.00    +0.116 C 
ATOM      5  C   UNL     1      31.534  -8.919 -21.916  0.00  0.00    +0.115 C 
ATOM      6  C   UNL     1      31.573 -10.745 -20.402  0.00  0.00    +0.067 C 
ATOM      7  C   UNL     1      32.099 -11.159 -22.754  0.00  0.00    -0.013 C 
ATOM      8  C   UNL     1      32.291 -12.511 -22.487  0.00  0.00    -0.004 C 
ATOM      9  C   UNL     1      31.773 -12.103 -20.163  0.00  0.00    +0.015 C 
ATOM     10  C   UNL     1      32.128 -12.983 -21.189  0.00  0.00    +0.001 C 
ATOM     11  C   UNL     1      31.059  -8.617 -19.725  0.00  0.00    +0.251 C 
ATOM     12  H   UNL     1      31.470  -9.010 -23.940  0.00  0.00    +0.153 HD
ENDROOT
BRANCH   1  13
ATOM     13  C   UNL     1      32.079  -7.109 -23.675  0.00  0.00    +0.049 C 
ATOM     14  C   UNL     1      31.525  -4.840 -24.290  0.00  0.00    +0.014 C 
ATOM     15  C   UNL     1      31.132  -6.098 -23.834  0.00  0.00    +0.013 C 
ATOM     16  C   UNL     1      32.866  -4.593 -24.589  0.00  0.00    +0.141 C 
ATOM     17  C   UNL     1      33.420  -6.863 -23.974  0.00  0.00    +0.018 C 
ATOM     18  C   UNL     1      33.812  -5.605 -24.431  0.00  0.00    +0.038 C 
ATOM     19  C   UNL     1      30.498  -3.768 -24.452  0.00  0.00    +0.034 C 
BRANCH  16  20
ATOM     20  O   UNL     1      33.266  -3.370 -25.035  0.00  0.00    -0.452 OA
BRANCH  20  22
ATOM     21  N   UNL     1      35.879  -2.938 -27.577  0.00  0.00    -0.245 NA
ATOM     22  C   UNL     1      33.876  -3.308 -26.276  0.00  0.00    +0.164 C 
ATOM     23  C   UNL     1      33.154  -3.542 -27.441  0.00  0.00    +0.040 C 
ATOM     24  C   UNL     1      35.224  -3.012 -26.397  0.00  0.00    +0.136 C 
ATOM     25  C   UNL     1      33.793  -3.475 -28.674  0.00  0.00    +0.018 C 
ATOM     26  C   UNL     1      35.145  -3.171 -28.688  0.00  0.00    +0.060 C 
ATOM     27  C   UNL     1      35.863  -3.090 -29.993  0.00  0.00    +0.052 C 
ENDBRANCH  20  22
ENDBRANCH  16  20
ENDBRANCH   1  13
BRANCH   8  28
ATOM     28  C   UNL     1      32.662 -13.424 -23.556  0.00  0.00    -0.003 C 
ATOM     29  C   UNL     1      33.637 -14.360 -23.495  0.00  0.00    -0.005 C 
BRANCH  29  30
ATOM     30  C   UNL     1      33.972 -15.288 -24.617  0.00  0.00    +0.116 C 
BRANCH  30  32
ATOM     31  O   UNL     1      32.411 -17.679 -25.114  0.00  0.00    -0.272 OA
ATOM     32  N   UNL     1      34.199 -16.602 -24.084  0.00  0.00    -0.298 N 
ATOM     33  C   UNL     1      33.394 -17.698 -24.378  0.00  0.00    +0.253 C 
ATOM     34  H   UNL     1      34.964 -16.734 -23.478  0.00  0.00    +0.150 HD
BRANCH  33  35
ATOM     35  C   UNL     1      33.868 -18.954 -23.678  0.00  0.00    +0.227 C 
BRANCH  35  36
ATOM     36  O   UNL     1      34.659 -18.631 -22.554  0.00  0.00    -0.342 OA
ATOM     37  C   UNL     1      34.182 -19.263 -21.370  0.00  0.00    +0.175 C 
ENDBRANCH  35  36
ENDBRANCH  33  35
ENDBRANCH  30  32
ENDBRANCH  29  30
ENDBRANCH   8  28
TORSDOF 8
ENDMDL
MODEL 8
REMARK VINA RESULT:     -11.0      4.822      9.748
REMARK  Name = 9874913
REMARK  8 active torsions:
REMARK  status: ('A' for Active; 'I' for Inactive)
REMARK    1  A    between atoms: N_1  and  C_13
REMARK    2  A    between atoms: C_8  and  C_28
REMARK    3  A    between atoms: C_16  and  O_20
REMARK    4  A    between atoms: O_20  and  C_22
REMARK    5  A    between atoms: C_29  and  C_30
REMARK    6  A    between atoms: C_30  and  N_32
REMARK    7  A    between atoms: C_33  and  C_35
REMARK    8  A    between atoms: C_35  and  O_36
REMARK                            x       y       z     vdW  Elec       q    Type
REMARK                         _______ _______ _______ _____ _____    ______ ____
ROOT
ATOM      1  N   UNL     1      33.697 -13.324 -22.529  0.00  0.00    -0.301 N 
ATOM      2  N   UNL     1      32.917 -13.854 -24.685  0.00  0.00    -0.233 NA
ATOM      3  N   UNL     1      33.070 -16.105 -25.530  0.00  0.00    -0.248 NA
ATOM      4  C   UNL     1      33.875 -15.608 -23.327  0.00  0.00    +0.116 C 
ATOM      5  C   UNL     1      33.488 -14.289 -23.547  0.00  0.00    +0.115 C 
ATOM      6  C   UNL     1      33.639 -16.506 -24.380  0.00  0.00    +0.067 C 
ATOM      7  C   UNL     1      34.471 -16.039 -22.128  0.00  0.00    -0.013 C 
ATOM      8  C   UNL     1      34.834 -17.373 -21.972  0.00  0.00    -0.004 C 
ATOM      9  C   UNL     1      34.012 -17.836 -24.196  0.00  0.00    +0.015 C 
ATOM     10  C   UNL     1      34.605 -18.272 -23.008  0.00  0.00    +0.001 C 
ATOM     11  C   UNL     1      32.740 -14.801 -25.620  0.00  0.00    +0.251 C 
ATOM     12  H   UNL     1      34.476 -13.511 -21.958  0.00  0.00    +0.153 HD
ENDROOT
BRANCH   1  13
ATOM     13  C   UNL     1      33.006 -12.152 -22.179  0.00  0.00    +0.049 C 
ATOM     14  C   UNL     1      31.880 -10.803 -20.523  0.00  0.00    +0.014 C 
ATOM     15  C   UNL     1      32.567 -11.966 -20.869  0.00  0.00    +0.013 C 
ATOM     16  C   UNL     1      31.632  -9.826 -21.488  0.00  0.00    +0.141 C 
ATOM     17  C   UNL     1      32.758 -11.176 -23.145  0.00  0.00    +0.018 C 
ATOM     18  C   UNL     1      32.070 -10.013 -22.798  0.00  0.00    +0.038 C 
ATOM     19  C   UNL     1      31.419 -10.619 -19.115  0.00  0.00    +0.034 C 
BRANCH  16  20
ATOM     20  O   UNL     1      30.962  -8.684 -21.166  0.00  0.00    -0.452 OA
BRANCH  20  22
ATOM     21  N   UNL     1      30.785  -5.845 -23.487  0.00  0.00    -0.245 NA
ATOM     22  C   UNL     1      31.318  -7.523 -21.830  0.00  0.00    +0.164 C 
ATOM     23  C   UNL     1      32.509  -6.868 -21.539  0.00  0.00    +0.040 C 
ATOM     24  C   UNL     1      30.498  -6.975 -22.804  0.00  0.00    +0.136 C 
ATOM     25  C   UNL     1      32.840  -5.702 -22.221  0.00  0.00    +0.018 C 
ATOM     26  C   UNL     1      31.952  -5.236 -23.177  0.00  0.00    +0.060 C 
ATOM     27  C   UNL     1      32.275  -3.988 -23.929  0.00  0.00    +0.052 C 
ENDBRANCH  20  22
ENDBRANCH  16  20
ENDBRANCH   1  13
BRANCH   8  28
ATOM     28  C   UNL     1      35.450 -17.825 -20.734  0.00  0.00    -0.003 C 
ATOM     29  C   UNL     1      35.892 -19.078 -20.482  0.00  0.00    -0.005 C 
BRANCH  29  30
ATOM     30  C   UNL     1      36.534 -19.492 -19.198  0.00  0.00    +0.116 C 
BRANCH  30  32
ATOM     31  O   UNL     1      37.091 -20.914 -16.735  0.00  0.00    -0.272 OA
ATOM     32  N   UNL     1      35.751 -20.538 -18.600  0.00  0.00    -0.298 N 
ATOM     33  C   UNL     1      36.097 -21.168 -17.409  0.00  0.00    +0.253 C 
ATOM     34  H   UNL     1      34.928 -20.824 -19.059  0.00  0.00    +0.150 HD
BRANCH  33  35
ATOM     35  C   UNL     1      35.091 -22.230 -17.017  0.00  0.00    +0.227 C 
BRANCH  35  36
ATOM     36  O   UNL     1      35.627 -23.083 -16.029  0.00  0.00    -0.342 OA
ATOM     37  C   UNL     1      34.957 -22.937 -14.780  0.00  0.00    +0.175 C 
ENDBRANCH  35  36
ENDBRANCH  33  35
ENDBRANCH  30  32
ENDBRANCH  29  30
ENDBRANCH   8  28
TORSDOF 8
ENDMDL
MODEL 9
REMARK VINA RESULT:     -10.8      8.444     15.027
REMARK  Name = 9874913
REMARK  8 active torsions:
REMARK  status: ('A' for Active; 'I' for Inactive)
REMARK    1  A    between atoms: N_1  and  C_13
REMARK    2  A    between atoms: C_8  and  C_28
REMARK    3  A    between atoms: C_16  and  O_20
REMARK    4  A    between atoms: O_20  and  C_22
REMARK    5  A    between atoms: C_29  and  C_30
REMARK    6  A    between atoms: C_30  and  N_32
REMARK    7  A    between atoms: C_33  and  C_35
REMARK    8  A    between atoms: C_35  and  O_36
REMARK                            x       y       z     vdW  Elec       q    Type
REMARK                         _______ _______ _______ _____ _____    ______ ____
ROOT
ATOM      1  N   UNL     1      32.050  -7.118 -23.755  0.00  0.00    -0.301 N 
ATOM      2  N   UNL     1      31.627  -5.922 -21.773  0.00  0.00    -0.233 NA
ATOM      3  N   UNL     1      31.241  -7.081 -19.696  0.00  0.00    -0.248 NA
ATOM      4  C   UNL     1      31.669  -8.337 -21.693  0.00  0.00    +0.116 C 
ATOM      5  C   UNL     1      31.774  -7.123 -22.364  0.00  0.00    +0.115 C 
ATOM      6  C   UNL     1      31.393  -8.262 -20.318  0.00  0.00    +0.067 C 
ATOM      7  C   UNL     1      31.826  -9.580 -22.333  0.00  0.00    -0.013 C 
ATOM      8  C   UNL     1      31.709 -10.758 -21.603  0.00  0.00    -0.004 C 
ATOM      9  C   UNL     1      31.282  -9.458 -19.612  0.00  0.00    +0.015 C 
ATOM     10  C   UNL     1      31.436 -10.697 -20.241  0.00  0.00    +0.001 C 
ATOM     11  C   UNL     1      31.366  -5.975 -20.457  0.00  0.00    +0.251 C 
ATOM     12  H   UNL     1      31.702  -7.906 -24.232  0.00  0.00    +0.153 HD
ENDROOT
BRANCH   1  13
ATOM     13  C   UNL     1      32.722  -6.206 -24.584  0.00  0.00    +0.049 C 
ATOM     14  C   UNL     1      33.084  -5.235 -26.766  0.00  0.00    +0.014 C 
ATOM     15  C   UNL     1      32.415  -6.141 -25.943  0.00  0.00    +0.013 C 
ATOM     16  C   UNL     1      34.061  -4.395 -26.231  0.00  0.00    +0.141 C 
ATOM     17  C   UNL     1      33.699  -5.366 -24.048  0.00  0.00    +0.018 C 
ATOM     18  C   UNL     1      34.368  -4.462 -24.872  0.00  0.00    +0.038 C 
ATOM     19  C   UNL     1      32.741  -5.177 -28.219  0.00  0.00    +0.034 C 
BRANCH  16  20
ATOM     20  O   UNL     1      34.723  -3.506 -27.021  0.00  0.00    -0.452 OA
BRANCH  20  22
ATOM     21  N   UNL     1      37.510  -5.068 -28.830  0.00  0.00    -0.245 NA
ATOM     22  C   UNL     1      36.019  -3.820 -27.395  0.00  0.00    +0.164 C 
ATOM     23  C   UNL     1      37.108  -3.238 -26.756  0.00  0.00    +0.040 C 
ATOM     24  C   UNL     1      36.271  -4.720 -28.417  0.00  0.00    +0.136 C 
ATOM     25  C   UNL     1      38.399  -3.571 -27.153  0.00  0.00    +0.018 C 
ATOM     26  C   UNL     1      38.545  -4.483 -28.187  0.00  0.00    +0.060 C 
ATOM     27  C   UNL     1      39.915  -4.864 -28.638  0.00  0.00    +0.052 C 
ENDBRANCH  20  22
ENDBRANCH  16  20
ENDBRANCH   1  13
BRANCH   8  28
ATOM     28  C   UNL     1      31.871 -12.046 -22.259  0.00  0.00    -0.003 C 
ATOM     29  C   UNL     1      32.747 -12.324 -23.251  0.00  0.00    -0.005 C 
BRANCH  29  30
ATOM     30  C   UNL     1      32.888 -13.670 -23.885  0.00  0.00    +0.116 C 
BRANCH  30  32
ATOM     31  O   UNL     1      34.205 -16.178 -24.491  0.00  0.00    -0.272 OA
ATOM     32  N   UNL     1      33.543 -14.554 -22.962  0.00  0.00    -0.298 N 
ATOM     33  C   UNL     1      34.152 -15.745 -23.344  0.00  0.00    +0.253 C 
ATOM     34  H   UNL     1      33.561 -14.304 -22.010  0.00  0.00    +0.150 HD
BRANCH  33  35
ATOM     35  C   UNL     1      34.762 -16.474 -22.165  0.00  0.00    +0.227 C 
BRANCH  35  36
ATOM     36  O   UNL     1      35.365 -17.680 -22.582  0.00  0.00    -0.342 OA
ATOM     37  C   UNL     1      36.412 -18.082 -21.703  0.00  0.00    +0.175 C 
ENDBRANCH  35  36
ENDBRANCH  33  35
ENDBRANCH  30  32
ENDBRANCH  29  30
ENDBRANCH   8  28
TORSDOF 8
ENDMDL
