MODEL 1
REMARK VINA RESULT:     -11.4      0.000      0.000
REMARK  Name = 44631903
REMARK  1 active torsions:
REMARK  status: ('A' for Active; 'I' for Inactive)
REMARK    1  A    between atoms: C_19  and  C_24
REMARK                            x       y       z     vdW  Elec       q    Type
REMARK                         _______ _______ _______ _____ _____    ______ ____
ROOT
ATOM      1  S   UNL     1      31.174  -7.070 -20.739  0.00  0.00    -0.081 S 
ATOM      2  O   UNL     1      31.830  -4.282 -21.304  0.00  0.00    -0.270 OA
ATOM      3  N   UNL     1      33.137  -7.435 -24.059  0.00  0.00    -0.331 N 
ATOM      4  N   UNL     1      32.445  -4.468 -23.451  0.00  0.00    -0.300 N 
ATOM      5  N   UNL     1      32.276 -12.620 -22.227  0.00  0.00    -0.406 NA
ATOM      6  C   UNL     1      32.751  -5.098 -24.726  0.00  0.00    +0.091 C 
ATOM      7  C   UNL     1      32.504  -7.559 -22.864  0.00  0.00    +0.052 A 
ATOM      8  C   UNL     1      32.211  -8.872 -22.276  0.00  0.00    +0.008 A 
ATOM      9  C   UNL     1      33.753  -6.229 -24.559  0.00  0.00    +0.107 C 
ATOM     10  C   UNL     1      32.036  -6.497 -22.105  0.00  0.00    +0.096 A 
ATOM     11  C   UNL     1      31.407  -8.712 -21.145  0.00  0.00    +0.028 A 
ATOM     12  C   UNL     1      32.566 -10.240 -22.631  0.00  0.00    +0.098 C 
ATOM     13  C   UNL     1      32.094  -5.043 -22.242  0.00  0.00    +0.253 C 
ATOM     14  C   UNL     1      32.011 -11.336 -21.922  0.00  0.00    +0.117 C 
ATOM     15  C   UNL     1      31.484  -5.476 -25.488  0.00  0.00    +0.023 C 
ATOM     16  C   UNL     1      30.880  -9.801 -20.435  0.00  0.00    +0.009 C 
ATOM     17  C   UNL     1      31.175 -11.093 -20.855  0.00  0.00    +0.029 C 
ATOM     18  C   UNL     1      33.483 -10.576 -23.654  0.00  0.00    -0.012 C 
ATOM     19  C   UNL     1      33.133 -12.877 -23.235  0.00  0.00    +0.132 C 
ATOM     20  C   UNL     1      33.766 -11.900 -23.966  0.00  0.00    +0.028 C 
ATOM     21  H   UNL     1      33.177  -8.234 -24.634  0.00  0.00    +0.147 HD
ATOM     22  H   UNL     1      32.496  -3.485 -23.447  0.00  0.00    +0.150 HD
ENDROOT
BRANCH  19  24
ATOM     23  N   UNL     1      33.101 -16.175 -24.971  0.00  0.00    -0.248 NA
ATOM     24  C   UNL     1      33.367 -14.278 -23.497  0.00  0.00    +0.049 C 
ATOM     25  C   UNL     1      34.049 -15.073 -22.584  0.00  0.00    +0.005 C 
ATOM     26  C   UNL     1      32.917 -14.872 -24.665  0.00  0.00    +0.101 C 
ATOM     27  C   UNL     1      34.259 -16.419 -22.863  0.00  0.00    +0.015 C 
ATOM     28  C   UNL     1      33.769 -16.918 -24.060  0.00  0.00    +0.059 C 
ATOM     29  C   UNL     1      33.976 -18.358 -24.391  0.00  0.00    +0.052 C 
ENDBRANCH  19  24
TORSDOF 1
ENDMDL
MODEL 2
REMARK VINA RESULT:     -10.9      9.407     14.193
REMARK  Name = 44631903
REMARK  1 active torsions:
REMARK  status: ('A' for Active; 'I' for Inactive)
REMARK    1  A    between atoms: C_19  and  C_24
REMARK                            x       y       z     vdW  Elec       q    Type
REMARK                         _______ _______ _______ _____ _____    ______ ____
ROOT
ATOM      1  S   UNL     1      33.234 -24.004 -15.565  0.00  0.00    -0.081 S 
ATOM      2  O   UNL     1      34.884 -25.594 -13.756  0.00  0.00    -0.270 OA
ATOM      3  N   UNL     1      36.711 -22.389 -16.130  0.00  0.00    -0.331 N 
ATOM      4  N   UNL     1      36.714 -24.302 -13.682  0.00  0.00    -0.300 N 
ATOM      5  N   UNL     1      33.343 -20.108 -19.929  0.00  0.00    -0.406 NA
ATOM      6  C   UNL     1      37.607 -23.195 -13.985  0.00  0.00    +0.091 C 
ATOM      7  C   UNL     1      35.432 -22.848 -16.160  0.00  0.00    +0.052 A 
ATOM      8  C   UNL     1      34.444 -22.320 -17.111  0.00  0.00    +0.008 A 
ATOM      9  C   UNL     1      37.820 -23.048 -15.483  0.00  0.00    +0.107 C 
ATOM     10  C   UNL     1      34.915 -23.801 -15.297  0.00  0.00    +0.096 A 
ATOM     11  C   UNL     1      33.181 -22.835 -16.808  0.00  0.00    +0.028 A 
ATOM     12  C   UNL     1      34.518 -21.403 -18.241  0.00  0.00    +0.098 C 
ATOM     13  C   UNL     1      35.479 -24.616 -14.223  0.00  0.00    +0.253 C 
ATOM     14  C   UNL     1      33.338 -20.978 -18.903  0.00  0.00    +0.117 C 
ATOM     15  C   UNL     1      37.180 -21.914 -13.272  0.00  0.00    +0.023 C 
ATOM     16  C   UNL     1      32.020 -22.426 -17.482  0.00  0.00    +0.009 C 
ATOM     17  C   UNL     1      32.122 -21.487 -18.502  0.00  0.00    +0.029 C 
ATOM     18  C   UNL     1      35.730 -20.905 -18.772  0.00  0.00    -0.012 C 
ATOM     19  C   UNL     1      34.528 -19.641 -20.370  0.00  0.00    +0.132 C 
ATOM     20  C   UNL     1      35.740 -20.012 -19.838  0.00  0.00    +0.028 C 
ATOM     21  H   UNL     1      36.896 -21.536 -16.586  0.00  0.00    +0.147 HD
ATOM     22  H   UNL     1      37.036 -24.923 -12.989  0.00  0.00    +0.150 HD
ENDROOT
BRANCH  19  24
ATOM     23  N   UNL     1      34.838 -16.492 -22.338  0.00  0.00    -0.248 NA
ATOM     24  C   UNL     1      34.448 -18.715 -21.475  0.00  0.00    +0.049 C 
ATOM     25  C   UNL     1      33.928 -19.109 -22.703  0.00  0.00    +0.005 C 
ATOM     26  C   UNL     1      34.885 -17.407 -21.345  0.00  0.00    +0.101 C 
ATOM     27  C   UNL     1      33.863 -18.195 -23.749  0.00  0.00    +0.015 C 
ATOM     28  C   UNL     1      34.326 -16.910 -23.518  0.00  0.00    +0.059 C 
ATOM     29  C   UNL     1      34.271 -15.904 -24.618  0.00  0.00    +0.052 C 
ENDBRANCH  19  24
TORSDOF 1
ENDMDL
MODEL 3
REMARK VINA RESULT:     -10.2      0.936      1.016
REMARK  Name = 44631903
REMARK  1 active torsions:
REMARK  status: ('A' for Active; 'I' for Inactive)
REMARK    1  A    between atoms: C_19  and  C_24
REMARK                            x       y       z     vdW  Elec       q    Type
REMARK                         _______ _______ _______ _____ _____    ______ ____
ROOT
ATOM      1  S   UNL     1      30.800  -6.098 -21.575  0.00  0.00    -0.081 S 
ATOM      2  O   UNL     1      31.542  -3.366 -22.287  0.00  0.00    -0.270 OA
ATOM      3  N   UNL     1      33.320  -6.746 -24.445  0.00  0.00    -0.331 N 
ATOM      4  N   UNL     1      32.529  -3.748 -24.263  0.00  0.00    -0.300 N 
ATOM      5  N   UNL     1      32.154 -11.744 -22.293  0.00  0.00    -0.406 NA
ATOM      6  C   UNL     1      33.057  -4.492 -25.396  0.00  0.00    +0.091 C 
ATOM      7  C   UNL     1      32.486  -6.765 -23.373  0.00  0.00    +0.052 A 
ATOM      8  C   UNL     1      32.094  -8.021 -22.720  0.00  0.00    +0.008 A 
ATOM      9  C   UNL     1      34.014  -5.583 -24.944  0.00  0.00    +0.107 C 
ATOM     10  C   UNL     1      31.889  -5.644 -22.817  0.00  0.00    +0.096 A 
ATOM     11  C   UNL     1      31.103  -7.767 -21.770  0.00  0.00    +0.028 A 
ATOM     12  C   UNL     1      32.508  -9.410 -22.871  0.00  0.00    +0.098 C 
ATOM     13  C   UNL     1      31.970  -4.209 -23.085  0.00  0.00    +0.253 C 
ATOM     14  C   UNL     1      31.837 -10.443 -22.167  0.00  0.00    +0.117 C 
ATOM     15  C   UNL     1      31.945  -4.965 -26.329  0.00  0.00    +0.023 C 
ATOM     16  C   UNL     1      30.459  -8.792 -21.061  0.00  0.00    +0.009 C 
ATOM     17  C   UNL     1      30.825 -10.112 -21.293  0.00  0.00    +0.029 C 
ATOM     18  C   UNL     1      33.593  -9.826 -23.678  0.00  0.00    -0.012 C 
ATOM     19  C   UNL     1      33.176 -12.082 -23.103  0.00  0.00    +0.132 C 
ATOM     20  C   UNL     1      33.928 -11.169 -23.804  0.00  0.00    +0.028 C 
ATOM     21  H   UNL     1      33.463  -7.596 -24.922  0.00  0.00    +0.147 HD
ATOM     22  H   UNL     1      32.577  -2.768 -24.347  0.00  0.00    +0.150 HD
ENDROOT
BRANCH  19  24
ATOM     23  N   UNL     1      33.429 -15.538 -24.475  0.00  0.00    -0.248 NA
ATOM     24  C   UNL     1      33.454 -13.497 -23.181  0.00  0.00    +0.049 C 
ATOM     25  C   UNL     1      33.990 -14.182 -22.097  0.00  0.00    +0.005 C 
ATOM     26  C   UNL     1      33.193 -14.215 -24.337  0.00  0.00    +0.101 C 
ATOM     27  C   UNL     1      34.247 -15.545 -22.201  0.00  0.00    +0.015 C 
ATOM     28  C   UNL     1      33.951 -16.171 -23.401  0.00  0.00    +0.059 C 
ATOM     29  C   UNL     1      34.213 -17.633 -23.547  0.00  0.00    +0.052 C 
ENDBRANCH  19  24
TORSDOF 1
ENDMDL
MODEL 4
REMARK VINA RESULT:      -8.7     10.891     15.449
REMARK  Name = 44631903
REMARK  1 active torsions:
REMARK  status: ('A' for Active; 'I' for Inactive)
REMARK    1  A    between atoms: C_19  and  C_24
REMARK                            x       y       z     vdW  Elec       q    Type
REMARK                         _______ _______ _______ _____ _____    ______ ____
ROOT
ATOM      1  S   UNL     1      34.059 -24.613 -13.476  0.00  0.00    -0.081 S 
ATOM      2  O   UNL     1      35.892 -25.867 -11.581  0.00  0.00    -0.270 OA
ATOM      3  N   UNL     1      37.407 -22.935 -14.471  0.00  0.00    -0.331 N 
ATOM      4  N   UNL     1      37.652 -24.496 -11.797  0.00  0.00    -0.300 N 
ATOM      5  N   UNL     1      33.711 -21.345 -18.316  0.00  0.00    -0.406 NA
ATOM      6  C   UNL     1      38.466 -23.401 -12.300  0.00  0.00    +0.091 C 
ATOM      7  C   UNL     1      36.155 -23.450 -14.359  0.00  0.00    +0.052 A 
ATOM      8  C   UNL     1      35.088 -23.102 -15.306  0.00  0.00    +0.008 A 
ATOM      9  C   UNL     1      38.585 -23.449 -13.814  0.00  0.00    +0.107 C 
ATOM     10  C   UNL     1      35.740 -24.301 -13.346  0.00  0.00    +0.096 A 
ATOM     11  C   UNL     1      33.873 -23.627 -14.858  0.00  0.00    +0.028 A 
ATOM     12  C   UNL     1      35.048 -22.344 -16.550  0.00  0.00    +0.098 C 
ATOM     13  C   UNL     1      36.407 -24.935 -12.211  0.00  0.00    +0.253 C 
ATOM     14  C   UNL     1      33.811 -22.067 -17.185  0.00  0.00    +0.117 C 
ATOM     15  C   UNL     1      38.013 -22.056 -11.738  0.00  0.00    +0.023 C 
ATOM     16  C   UNL     1      32.656 -23.366 -15.504  0.00  0.00    +0.009 C 
ATOM     17  C   UNL     1      32.649 -22.570 -16.644  0.00  0.00    +0.029 C 
ATOM     18  C   UNL     1      36.199 -21.868 -17.219  0.00  0.00    -0.012 C 
ATOM     19  C   UNL     1      34.842 -20.888 -18.890  0.00  0.00    +0.132 C 
ATOM     20  C   UNL     1      36.101 -21.129 -18.392  0.00  0.00    +0.028 C 
ATOM     21  H   UNL     1      37.520 -22.145 -15.047  0.00  0.00    +0.147 HD
ATOM     22  H   UNL     1      38.046 -25.002 -11.049  0.00  0.00    +0.150 HD
ENDROOT
BRANCH  19  24
ATOM     23  N   UNL     1      35.573 -18.657 -21.784  0.00  0.00    -0.248 NA
ATOM     24  C   UNL     1      34.650 -20.126 -20.101  0.00  0.00    +0.049 C 
ATOM     25  C   UNL     1      33.419 -20.105 -20.747  0.00  0.00    +0.005 C 
ATOM     26  C   UNL     1      35.685 -19.391 -20.655  0.00  0.00    +0.101 C 
ATOM     27  C   UNL     1      33.264 -19.361 -21.911  0.00  0.00    +0.015 C 
ATOM     28  C   UNL     1      34.362 -18.660 -22.385  0.00  0.00    +0.059 C 
ATOM     29  C   UNL     1      34.230 -17.851 -23.631  0.00  0.00    +0.052 C 
ENDBRANCH  19  24
TORSDOF 1
ENDMDL
MODEL 5
REMARK VINA RESULT:      -8.7      9.611     14.361
REMARK  Name = 44631903
REMARK  1 active torsions:
REMARK  status: ('A' for Active; 'I' for Inactive)
REMARK    1  A    between atoms: C_19  and  C_24
REMARK                            x       y       z     vdW  Elec       q    Type
REMARK                         _______ _______ _______ _____ _____    ______ ____
ROOT
ATOM      1  S   UNL     1      34.034 -23.653 -14.597  0.00  0.00    -0.081 S 
ATOM      2  O   UNL     1      32.133 -24.648 -12.617  0.00  0.00    -0.270 OA
ATOM      3  N   UNL     1      30.669 -22.899 -16.365  0.00  0.00    -0.331 N 
ATOM      4  N   UNL     1      30.281 -24.718 -13.877  0.00  0.00    -0.300 N 
ATOM      5  N   UNL     1      34.599 -20.515 -19.503  0.00  0.00    -0.406 NA
ATOM      6  C   UNL     1      29.423 -24.556 -15.040  0.00  0.00    +0.091 C 
ATOM      7  C   UNL     1      31.946 -22.986 -15.908  0.00  0.00    +0.052 A 
ATOM      8  C   UNL     1      33.073 -22.405 -16.648  0.00  0.00    +0.008 A 
ATOM      9  C   UNL     1      29.482 -23.136 -15.579  0.00  0.00    +0.107 C 
ATOM     10  C   UNL     1      32.327 -23.650 -14.752  0.00  0.00    +0.096 A 
ATOM     11  C   UNL     1      34.276 -22.790 -16.050  0.00  0.00    +0.028 A 
ATOM     12  C   UNL     1      33.177 -21.560 -17.831  0.00  0.00    +0.098 C 
ATOM     13  C   UNL     1      31.602 -24.352 -13.694  0.00  0.00    +0.253 C 
ATOM     14  C   UNL     1      34.445 -21.262 -18.394  0.00  0.00    +0.117 C 
ATOM     15  C   UNL     1      29.672 -25.645 -16.082  0.00  0.00    +0.023 C 
ATOM     16  C   UNL     1      35.526 -22.472 -16.601  0.00  0.00    +0.009 C 
ATOM     17  C   UNL     1      35.583 -21.733 -17.777  0.00  0.00    +0.029 C 
ATOM     18  C   UNL     1      32.068 -20.964 -18.473  0.00  0.00    -0.012 C 
ATOM     19  C   UNL     1      33.501 -20.002 -20.091  0.00  0.00    +0.132 C 
ATOM     20  C   UNL     1      32.224 -20.186 -19.615  0.00  0.00    +0.028 C 
ATOM     21  H   UNL     1      30.544 -22.656 -17.311  0.00  0.00    +0.147 HD
ATOM     22  H   UNL     1      29.857 -25.153 -13.102  0.00  0.00    +0.150 HD
ENDROOT
BRANCH  19  24
ATOM     23  N   UNL     1      33.210 -18.709 -23.574  0.00  0.00    -0.248 NA
ATOM     24  C   UNL     1      33.752 -19.211 -21.272  0.00  0.00    +0.049 C 
ATOM     25  C   UNL     1      34.730 -18.224 -21.280  0.00  0.00    +0.005 C 
ATOM     26  C   UNL     1      33.026 -19.413 -22.436  0.00  0.00    +0.101 C 
ATOM     27  C   UNL     1      34.950 -17.479 -22.433  0.00  0.00    +0.015 C 
ATOM     28  C   UNL     1      34.171 -17.758 -23.544  0.00  0.00    +0.059 C 
ATOM     29  C   UNL     1      34.380 -16.977 -24.798  0.00  0.00    +0.052 C 
ENDBRANCH  19  24
TORSDOF 1
ENDMDL
