MODEL 1
REMARK VINA RESULT:     -10.0      0.000      0.000
REMARK  Name = 657061
REMARK  8 active torsions:
REMARK  status: ('A' for Active; 'I' for Inactive)
REMARK    1  A    between atoms: C_6  and  O_12
REMARK    2  A    between atoms: C_6  and  C_27
REMARK    3  A    between atoms: O_12  and  C_13
REMARK    4  A    between atoms: C_18  and  O_19
REMARK    5  A    between atoms: O_19  and  C_21
REMARK    6  A    between atoms: C_27  and  C_28
REMARK    7  A    between atoms: C_28  and  O_29
REMARK    8  A    between atoms: O_29  and  C_30
REMARK                            x       y       z     vdW  Elec       q    Type
REMARK                         _______ _______ _______ _____ _____    ______ ____
ROOT
ATOM      1  O   UNL     1      37.192 -21.758 -13.080  0.00  0.00    -0.270 OA
ATOM      2  O   UNL     1      33.078 -23.823 -13.846  0.00  0.00    -0.270 OA
ATOM      3  O   UNL     1      35.821 -25.276 -10.459  0.00  0.00    -0.252 OA
ATOM      4  N   UNL     1      36.564 -23.588 -11.835  0.00  0.00    -0.236 N 
ATOM      5  N   UNL     1      34.493 -24.629 -12.222  0.00  0.00    -0.236 N 
ATOM      6  C   UNL     1      35.385 -23.119 -13.916  0.00  0.00    +0.270 C 
ATOM      7  C   UNL     1      36.458 -22.732 -12.919  0.00  0.00    +0.274 C 
ATOM      8  C   UNL     1      34.199 -23.865 -13.341  0.00  0.00    +0.274 C 
ATOM      9  C   UNL     1      35.646 -24.559 -11.446  0.00  0.00    +0.312 C 
ATOM     10  H   UNL     1      37.372 -23.499 -11.279  0.00  0.00    +0.159 HD
ATOM     11  H   UNL     1      33.816 -25.288 -11.948  0.00  0.00    +0.159 HD
ENDROOT
BRANCH   6  12
ATOM     12  O   UNL     1      34.884 -21.932 -14.506  0.00  0.00    -0.465 OA
BRANCH  12  13
ATOM     13  C   UNL     1      35.050 -21.792 -15.861  0.00  0.00    +0.140 C 
ATOM     14  C   UNL     1      36.242 -21.280 -16.356  0.00  0.00    +0.040 C 
ATOM     15  C   UNL     1      34.023 -22.162 -16.721  0.00  0.00    +0.040 C 
ATOM     16  C   UNL     1      36.411 -21.136 -17.734  0.00  0.00    +0.041 C 
ATOM     17  C   UNL     1      34.192 -22.018 -18.098  0.00  0.00    +0.041 C 
ATOM     18  C   UNL     1      35.386 -21.506 -18.604  0.00  0.00    +0.145 C 
BRANCH  18  19
ATOM     19  O   UNL     1      35.551 -21.366 -19.948  0.00  0.00    -0.453 OA
BRANCH  19  21
ATOM     20  F   UNL     1      34.725 -16.389 -22.115  0.00  0.00    -0.204 F 
ATOM     21  C   UNL     1      35.342 -20.110 -20.495  0.00  0.00    +0.145 C 
ATOM     22  C   UNL     1      34.058 -19.733 -20.846  0.00  0.00    +0.040 C 
ATOM     23  C   UNL     1      36.422 -19.266 -20.674  0.00  0.00    +0.040 C 
ATOM     24  C   UNL     1      33.849 -18.469 -21.397  0.00  0.00    +0.033 C 
ATOM     25  C   UNL     1      36.213 -18.002 -21.224  0.00  0.00    +0.033 C 
ATOM     26  C   UNL     1      34.926 -17.603 -21.586  0.00  0.00    +0.140 C 
ENDBRANCH  19  21
ENDBRANCH  18  19
ENDBRANCH  12  13
ENDBRANCH   6  12
BRANCH   6  27
ATOM     27  C   UNL     1      36.018 -24.000 -14.999  0.00  0.00    +0.090 C 
BRANCH  27  28
ATOM     28  C   UNL     1      35.801 -25.472 -14.710  0.00  0.00    +0.147 C 
BRANCH  28  29
ATOM     29  O   UNL     1      36.943 -25.968 -14.028  0.00  0.00    -0.354 OA
BRANCH  29  30
ATOM     30  C   UNL     1      38.149 -25.494 -14.614  0.00  0.00    +0.142 C 
ATOM     31  C   UNL     1      39.205 -25.373 -13.538  0.00  0.00    +0.035 C 
ENDBRANCH  29  30
ENDBRANCH  28  29
ENDBRANCH  27  28
ENDBRANCH   6  27
TORSDOF 8
ENDMDL
MODEL 2
REMARK VINA RESULT:      -9.9      1.339      3.275
REMARK  Name = 657061
REMARK  8 active torsions:
REMARK  status: ('A' for Active; 'I' for Inactive)
REMARK    1  A    between atoms: C_6  and  O_12
REMARK    2  A    between atoms: C_6  and  C_27
REMARK    3  A    between atoms: O_12  and  C_13
REMARK    4  A    between atoms: C_18  and  O_19
REMARK    5  A    between atoms: O_19  and  C_21
REMARK    6  A    between atoms: C_27  and  C_28
REMARK    7  A    between atoms: C_28  and  O_29
REMARK    8  A    between atoms: O_29  and  C_30
REMARK                            x       y       z     vdW  Elec       q    Type
REMARK                         _______ _______ _______ _____ _____    ______ ____
ROOT
ATOM      1  O   UNL     1      34.451 -24.723 -15.750  0.00  0.00    -0.270 OA
ATOM      2  O   UNL     1      37.264 -22.050 -13.159  0.00  0.00    -0.270 OA
ATOM      3  O   UNL     1      38.567 -26.273 -14.417  0.00  0.00    -0.252 OA
ATOM      4  N   UNL     1      36.462 -25.548 -14.995  0.00  0.00    -0.236 N 
ATOM      5  N   UNL     1      37.878 -24.202 -13.689  0.00  0.00    -0.236 N 
ATOM      6  C   UNL     1      35.544 -23.544 -13.952  0.00  0.00    +0.270 C 
ATOM      7  C   UNL     1      35.417 -24.637 -14.994  0.00  0.00    +0.274 C 
ATOM      8  C   UNL     1      36.961 -23.169 -13.571  0.00  0.00    +0.274 C 
ATOM      9  C   UNL     1      37.690 -25.409 -14.357  0.00  0.00    +0.312 C 
ATOM     10  H   UNL     1      36.321 -26.380 -15.502  0.00  0.00    +0.159 HD
ATOM     11  H   UNL     1      38.750 -24.069 -13.255  0.00  0.00    +0.159 HD
ENDROOT
BRANCH   6  12
ATOM     12  O   UNL     1      34.927 -22.376 -14.463  0.00  0.00    -0.465 OA
BRANCH  12  13
ATOM     13  C   UNL     1      35.046 -22.147 -15.811  0.00  0.00    +0.140 C 
ATOM     14  C   UNL     1      36.268 -21.742 -16.332  0.00  0.00    +0.040 C 
ATOM     15  C   UNL     1      33.944 -22.322 -16.638  0.00  0.00    +0.040 C 
ATOM     16  C   UNL     1      36.390 -21.509 -17.703  0.00  0.00    +0.041 C 
ATOM     17  C   UNL     1      34.065 -22.089 -18.007  0.00  0.00    +0.041 C 
ATOM     18  C   UNL     1      35.288 -21.682 -18.540  0.00  0.00    +0.145 C 
BRANCH  18  19
ATOM     19  O   UNL     1      35.406 -21.455 -19.877  0.00  0.00    -0.453 OA
BRANCH  19  21
ATOM     20  F   UNL     1      34.756 -16.301 -21.655  0.00  0.00    -0.204 F 
ATOM     21  C   UNL     1      35.243 -20.155 -20.325  0.00  0.00    +0.145 C 
ATOM     22  C   UNL     1      36.362 -19.375 -20.556  0.00  0.00    +0.040 C 
ATOM     23  C   UNL     1      33.965 -19.669 -20.531  0.00  0.00    +0.040 C 
ATOM     24  C   UNL     1      36.197 -18.066 -21.007  0.00  0.00    +0.033 C 
ATOM     25  C   UNL     1      33.799 -18.361 -20.984  0.00  0.00    +0.033 C 
ATOM     26  C   UNL     1      34.915 -17.559 -21.221  0.00  0.00    +0.140 C 
ENDBRANCH  19  21
ENDBRANCH  18  19
ENDBRANCH  12  13
ENDBRANCH   6  12
BRANCH   6  27
ATOM     27  C   UNL     1      34.815 -23.994 -12.682  0.00  0.00    +0.090 C 
BRANCH  27  28
ATOM     28  C   UNL     1      33.417 -23.413 -12.613  0.00  0.00    +0.147 C 
BRANCH  28  29
ATOM     29  O   UNL     1      32.484 -24.478 -12.725  0.00  0.00    -0.354 OA
BRANCH  29  30
ATOM     30  C   UNL     1      31.515 -24.220 -13.734  0.00  0.00    +0.142 C 
ATOM     31  C   UNL     1      31.431 -22.727 -13.966  0.00  0.00    +0.035 C 
ENDBRANCH  29  30
ENDBRANCH  28  29
ENDBRANCH  27  28
ENDBRANCH   6  27
TORSDOF 8
ENDMDL
MODEL 3
REMARK VINA RESULT:      -9.3      1.420      2.978
REMARK  Name = 657061
REMARK  8 active torsions:
REMARK  status: ('A' for Active; 'I' for Inactive)
REMARK    1  A    between atoms: C_6  and  O_12
REMARK    2  A    between atoms: C_6  and  C_27
REMARK    3  A    between atoms: O_12  and  C_13
REMARK    4  A    between atoms: C_18  and  O_19
REMARK    5  A    between atoms: O_19  and  C_21
REMARK    6  A    between atoms: C_27  and  C_28
REMARK    7  A    between atoms: C_28  and  O_29
REMARK    8  A    between atoms: O_29  and  C_30
REMARK                            x       y       z     vdW  Elec       q    Type
REMARK                         _______ _______ _______ _____ _____    ______ ____
ROOT
ATOM      1  O   UNL     1      34.299 -23.909 -13.410  0.00  0.00    -0.270 OA
ATOM      2  O   UNL     1      38.295 -22.776 -15.537  0.00  0.00    -0.270 OA
ATOM      3  O   UNL     1      37.178 -27.182 -14.868  0.00  0.00    -0.252 OA
ATOM      4  N   UNL     1      35.785 -25.550 -14.037  0.00  0.00    -0.236 N 
ATOM      5  N   UNL     1      37.798 -24.980 -15.107  0.00  0.00    -0.236 N 
ATOM      6  C   UNL     1      36.558 -23.241 -13.929  0.00  0.00    +0.270 C 
ATOM      7  C   UNL     1      35.428 -24.237 -13.773  0.00  0.00    +0.274 C 
ATOM      8  C   UNL     1      37.622 -23.615 -14.941  0.00  0.00    +0.274 C 
ATOM      9  C   UNL     1      36.945 -25.988 -14.669  0.00  0.00    +0.312 C 
ATOM     10  H   UNL     1      35.151 -26.247 -13.749  0.00  0.00    +0.159 HD
ATOM     11  H   UNL     1      38.610 -25.265 -15.583  0.00  0.00    +0.159 HD
ENDROOT
BRANCH   6  12
ATOM     12  O   UNL     1      36.002 -22.007 -14.346  0.00  0.00    -0.465 OA
BRANCH  12  13
ATOM     13  C   UNL     1      35.676 -21.888 -15.674  0.00  0.00    +0.140 C 
ATOM     14  C   UNL     1      36.541 -21.226 -16.536  0.00  0.00    +0.040 C 
ATOM     15  C   UNL     1      34.485 -22.430 -16.140  0.00  0.00    +0.040 C 
ATOM     16  C   UNL     1      36.209 -21.105 -17.886  0.00  0.00    +0.041 C 
ATOM     17  C   UNL     1      34.153 -22.308 -17.489  0.00  0.00    +0.041 C 
ATOM     18  C   UNL     1      35.015 -21.646 -18.362  0.00  0.00    +0.145 C 
BRANCH  18  19
ATOM     19  O   UNL     1      34.692 -21.528 -19.679  0.00  0.00    -0.453 OA
BRANCH  19  21
ATOM     20  F   UNL     1      35.403 -16.627 -22.050  0.00  0.00    -0.204 F 
ATOM     21  C   UNL     1      34.872 -20.291 -20.277  0.00  0.00    +0.145 C 
ATOM     22  C   UNL     1      36.144 -19.751 -20.339  0.00  0.00    +0.040 C 
ATOM     23  C   UNL     1      33.775 -19.629 -20.797  0.00  0.00    +0.040 C 
ATOM     24  C   UNL     1      36.325 -18.506 -20.941  0.00  0.00    +0.033 C 
ATOM     25  C   UNL     1      33.956 -18.385 -21.401  0.00  0.00    +0.033 C 
ATOM     26  C   UNL     1      35.230 -17.823 -21.472  0.00  0.00    +0.140 C 
ENDBRANCH  19  21
ENDBRANCH  18  19
ENDBRANCH  12  13
ENDBRANCH   6  12
BRANCH   6  27
ATOM     27  C   UNL     1      37.241 -23.060 -12.569  0.00  0.00    +0.090 C 
BRANCH  27  28
ATOM     28  C   UNL     1      37.438 -24.391 -11.869  0.00  0.00    +0.147 C 
BRANCH  28  29
ATOM     29  O   UNL     1      37.218 -24.202 -10.479  0.00  0.00    -0.354 OA
BRANCH  29  30
ATOM     30  C   UNL     1      36.112 -23.342 -10.236  0.00  0.00    +0.142 C 
ATOM     31  C   UNL     1      34.894 -24.184  -9.921  0.00  0.00    +0.035 C 
ENDBRANCH  29  30
ENDBRANCH  28  29
ENDBRANCH  27  28
ENDBRANCH   6  27
TORSDOF 8
ENDMDL
MODEL 4
REMARK VINA RESULT:      -9.2      1.942      3.005
REMARK  Name = 657061
REMARK  8 active torsions:
REMARK  status: ('A' for Active; 'I' for Inactive)
REMARK    1  A    between atoms: C_6  and  O_12
REMARK    2  A    between atoms: C_6  and  C_27
REMARK    3  A    between atoms: O_12  and  C_13
REMARK    4  A    between atoms: C_18  and  O_19
REMARK    5  A    between atoms: O_19  and  C_21
REMARK    6  A    between atoms: C_27  and  C_28
REMARK    7  A    between atoms: C_28  and  O_29
REMARK    8  A    between atoms: O_29  and  C_30
REMARK                            x       y       z     vdW  Elec       q    Type
REMARK                         _______ _______ _______ _____ _____    ______ ____
ROOT
ATOM      1  O   UNL     1      31.847 -22.475 -14.121  0.00  0.00    -0.270 OA
ATOM      2  O   UNL     1      35.246 -25.330 -15.557  0.00  0.00    -0.270 OA
ATOM      3  O   UNL     1      34.917 -24.137 -11.132  0.00  0.00    -0.252 OA
ATOM      4  N   UNL     1      33.444 -23.213 -12.638  0.00  0.00    -0.236 N 
ATOM      5  N   UNL     1      35.157 -24.650 -13.362  0.00  0.00    -0.236 N 
ATOM      6  C   UNL     1      33.872 -23.419 -15.030  0.00  0.00    +0.270 C 
ATOM      7  C   UNL     1      32.941 -22.997 -13.912  0.00  0.00    +0.274 C 
ATOM      8  C   UNL     1      34.807 -24.564 -14.701  0.00  0.00    +0.274 C 
ATOM      9  C   UNL     1      34.543 -23.996 -12.298  0.00  0.00    +0.312 C 
ATOM     10  H   UNL     1      32.973 -22.768 -11.896  0.00  0.00    +0.159 HD
ATOM     11  H   UNL     1      35.918 -25.233 -13.141  0.00  0.00    +0.159 HD
ENDROOT
BRANCH   6  12
ATOM     12  O   UNL     1      33.079 -23.832 -16.129  0.00  0.00    -0.465 OA
BRANCH  12  13
ATOM     13  C   UNL     1      33.001 -22.975 -17.198  0.00  0.00    +0.140 C 
ATOM     14  C   UNL     1      33.989 -23.002 -18.173  0.00  0.00    +0.040 C 
ATOM     15  C   UNL     1      31.935 -22.088 -17.290  0.00  0.00    +0.040 C 
ATOM     16  C   UNL     1      33.910 -22.129 -19.259  0.00  0.00    +0.041 C 
ATOM     17  C   UNL     1      31.856 -21.216 -18.376  0.00  0.00    +0.041 C 
ATOM     18  C   UNL     1      32.844 -21.237 -19.359  0.00  0.00    +0.145 C 
BRANCH  18  19
ATOM     19  O   UNL     1      32.767 -20.386 -20.419  0.00  0.00    -0.453 OA
BRANCH  19  21
ATOM     20  F   UNL     1      37.376 -17.845 -21.985  0.00  0.00    -0.204 F 
ATOM     21  C   UNL     1      33.929 -19.745 -20.815  0.00  0.00    +0.145 C 
ATOM     22  C   UNL     1      33.929 -19.008 -21.986  0.00  0.00    +0.040 C 
ATOM     23  C   UNL     1      35.061 -19.857 -20.028  0.00  0.00    +0.040 C 
ATOM     24  C   UNL     1      35.099 -18.364 -22.384  0.00  0.00    +0.033 C 
ATOM     25  C   UNL     1      36.231 -19.210 -20.425  0.00  0.00    +0.033 C 
ATOM     26  C   UNL     1      36.251 -18.465 -21.603  0.00  0.00    +0.140 C 
ENDBRANCH  19  21
ENDBRANCH  18  19
ENDBRANCH  12  13
ENDBRANCH   6  12
BRANCH   6  27
ATOM     27  C   UNL     1      34.724 -22.213 -15.438  0.00  0.00    +0.090 C 
BRANCH  27  28
ATOM     28  C   UNL     1      36.135 -22.326 -14.896  0.00  0.00    +0.147 C 
BRANCH  28  29
ATOM     29  O   UNL     1      37.033 -22.385 -15.995  0.00  0.00    -0.354 OA
BRANCH  29  30
ATOM     30  C   UNL     1      36.682 -21.452 -17.008  0.00  0.00    +0.142 C 
ATOM     31  C   UNL     1      37.287 -20.107 -16.670  0.00  0.00    +0.035 C 
ENDBRANCH  29  30
ENDBRANCH  28  29
ENDBRANCH  27  28
ENDBRANCH   6  27
TORSDOF 8
ENDMDL
MODEL 5
REMARK VINA RESULT:      -9.2      4.484      6.342
REMARK  Name = 657061
REMARK  8 active torsions:
REMARK  status: ('A' for Active; 'I' for Inactive)
REMARK    1  A    between atoms: C_6  and  O_12
REMARK    2  A    between atoms: C_6  and  C_27
REMARK    3  A    between atoms: O_12  and  C_13
REMARK    4  A    between atoms: C_18  and  O_19
REMARK    5  A    between atoms: O_19  and  C_21
REMARK    6  A    between atoms: C_27  and  C_28
REMARK    7  A    between atoms: C_28  and  O_29
REMARK    8  A    between atoms: O_29  and  C_30
REMARK                            x       y       z     vdW  Elec       q    Type
REMARK                         _______ _______ _______ _____ _____    ______ ____
ROOT
ATOM      1  O   UNL     1      36.284 -26.938 -14.670  0.00  0.00    -0.270 OA
ATOM      2  O   UNL     1      38.052 -22.684 -15.413  0.00  0.00    -0.270 OA
ATOM      3  O   UNL     1      40.712 -26.066 -13.802  0.00  0.00    -0.252 OA
ATOM      4  N   UNL     1      38.473 -26.482 -14.129  0.00  0.00    -0.236 N 
ATOM      5  N   UNL     1      39.363 -24.339 -14.501  0.00  0.00    -0.236 N 
ATOM      6  C   UNL     1      36.941 -24.623 -14.504  0.00  0.00    +0.270 C 
ATOM      7  C   UNL     1      37.177 -26.119 -14.461  0.00  0.00    +0.274 C 
ATOM      8  C   UNL     1      38.148 -23.783 -14.869  0.00  0.00    +0.274 C 
ATOM      9  C   UNL     1      39.592 -25.654 -14.106  0.00  0.00    +0.312 C 
ATOM     10  H   UNL     1      38.618 -27.425 -13.885  0.00  0.00    +0.159 HD
ATOM     11  H   UNL     1      40.145 -23.743 -14.521  0.00  0.00    +0.159 HD
ENDROOT
BRANCH   6  12
ATOM     12  O   UNL     1      35.944 -24.364 -15.477  0.00  0.00    -0.465 OA
BRANCH  12  13
ATOM     13  C   UNL     1      34.712 -23.971 -15.017  0.00  0.00    +0.140 C 
ATOM     14  C   UNL     1      34.072 -24.725 -14.042  0.00  0.00    +0.040 C 
ATOM     15  C   UNL     1      34.120 -22.825 -15.533  0.00  0.00    +0.040 C 
ATOM     16  C   UNL     1      32.819 -24.326 -13.574  0.00  0.00    +0.041 C 
ATOM     17  C   UNL     1      32.868 -22.427 -15.065  0.00  0.00    +0.041 C 
ATOM     18  C   UNL     1      32.218 -23.177 -14.087  0.00  0.00    +0.145 C 
BRANCH  18  19
ATOM     19  O   UNL     1      30.996 -22.788 -13.630  0.00  0.00    -0.453 OA
BRANCH  19  21
ATOM     20  F   UNL     1      26.713 -23.350 -17.020  0.00  0.00    -0.204 F 
ATOM     21  C   UNL     1      29.915 -22.929 -14.485  0.00  0.00    +0.145 C 
ATOM     22  C   UNL     1      29.130 -21.826 -14.769  0.00  0.00    +0.040 C 
ATOM     23  C   UNL     1      29.648 -24.170 -15.034  0.00  0.00    +0.040 C 
ATOM     24  C   UNL     1      28.042 -21.969 -15.629  0.00  0.00    +0.033 C 
ATOM     25  C   UNL     1      28.561 -24.313 -15.896  0.00  0.00    +0.033 C 
ATOM     26  C   UNL     1      27.758 -23.212 -16.193  0.00  0.00    +0.140 C 
ENDBRANCH  19  21
ENDBRANCH  18  19
ENDBRANCH  12  13
ENDBRANCH   6  12
BRANCH   6  27
ATOM     27  C   UNL     1      36.444 -24.167 -13.128  0.00  0.00    +0.090 C 
BRANCH  27  28
ATOM     28  C   UNL     1      37.015 -25.031 -12.021  0.00  0.00    +0.147 C 
BRANCH  28  29
ATOM     29  O   UNL     1      37.259 -24.207 -10.891  0.00  0.00    -0.354 OA
BRANCH  29  30
ATOM     30  C   UNL     1      36.176 -23.319 -10.647  0.00  0.00    +0.142 C 
ATOM     31  C   UNL     1      35.140 -24.026  -9.801  0.00  0.00    +0.035 C 
ENDBRANCH  29  30
ENDBRANCH  28  29
ENDBRANCH  27  28
ENDBRANCH   6  27
TORSDOF 8
ENDMDL
MODEL 6
REMARK VINA RESULT:      -8.9      2.105      3.316
REMARK  Name = 657061
REMARK  8 active torsions:
REMARK  status: ('A' for Active; 'I' for Inactive)
REMARK    1  A    between atoms: C_6  and  O_12
REMARK    2  A    between atoms: C_6  and  C_27
REMARK    3  A    between atoms: O_12  and  C_13
REMARK    4  A    between atoms: C_18  and  O_19
REMARK    5  A    between atoms: O_19  and  C_21
REMARK    6  A    between atoms: C_27  and  C_28
REMARK    7  A    between atoms: C_28  and  O_29
REMARK    8  A    between atoms: O_29  and  C_30
REMARK                            x       y       z     vdW  Elec       q    Type
REMARK                         _______ _______ _______ _____ _____    ______ ____
ROOT
ATOM      1  O   UNL     1      31.245 -22.176 -16.617  0.00  0.00    -0.270 OA
ATOM      2  O   UNL     1      34.827 -25.018 -15.688  0.00  0.00    -0.270 OA
ATOM      3  O   UNL     1      31.446 -24.452 -12.629  0.00  0.00    -0.252 OA
ATOM      4  N   UNL     1      31.393 -23.225 -14.574  0.00  0.00    -0.236 N 
ATOM      5  N   UNL     1      33.197 -24.654 -14.106  0.00  0.00    -0.236 N 
ATOM      6  C   UNL     1      33.376 -23.114 -15.988  0.00  0.00    +0.270 C 
ATOM      7  C   UNL     1      31.908 -22.794 -15.787  0.00  0.00    +0.274 C 
ATOM      8  C   UNL     1      33.876 -24.355 -15.277  0.00  0.00    +0.274 C 
ATOM      9  C   UNL     1      31.982 -24.120 -13.688  0.00  0.00    +0.312 C 
ATOM     10  H   UNL     1      30.516 -22.860 -14.314  0.00  0.00    +0.159 HD
ATOM     11  H   UNL     1      33.619 -25.313 -13.509  0.00  0.00    +0.159 HD
ENDROOT
BRANCH   6  12
ATOM     12  O   UNL     1      33.596 -23.311 -17.374  0.00  0.00    -0.465 OA
BRANCH  12  13
ATOM     13  C   UNL     1      34.200 -22.288 -18.060  0.00  0.00    +0.140 C 
ATOM     14  C   UNL     1      33.463 -21.547 -18.976  0.00  0.00    +0.040 C 
ATOM     15  C   UNL     1      35.541 -22.005 -17.832  0.00  0.00    +0.040 C 
ATOM     16  C   UNL     1      34.078 -20.507 -19.674  0.00  0.00    +0.041 C 
ATOM     17  C   UNL     1      36.155 -20.965 -18.530  0.00  0.00    +0.041 C 
ATOM     18  C   UNL     1      35.423 -20.217 -19.450  0.00  0.00    +0.145 C 
BRANCH  18  19
ATOM     19  O   UNL     1      36.022 -19.201 -20.131  0.00  0.00    -0.453 OA
BRANCH  19  21
ATOM     20  F   UNL     1      33.352 -17.099 -24.444  0.00  0.00    -0.204 F 
ATOM     21  C   UNL     1      35.348 -18.671 -21.220  0.00  0.00    +0.145 C 
ATOM     22  C   UNL     1      34.880 -19.524 -22.203  0.00  0.00    +0.040 C 
ATOM     23  C   UNL     1      35.161 -17.303 -21.294  0.00  0.00    +0.040 C 
ATOM     24  C   UNL     1      34.202 -18.990 -23.299  0.00  0.00    +0.033 C 
ATOM     25  C   UNL     1      34.482 -16.769 -22.389  0.00  0.00    +0.033 C 
ATOM     26  C   UNL     1      34.003 -17.612 -23.392  0.00  0.00    +0.140 C 
ENDBRANCH  19  21
ENDBRANCH  18  19
ENDBRANCH  12  13
ENDBRANCH   6  12
BRANCH   6  27
ATOM     27  C   UNL     1      34.207 -21.922 -15.503  0.00  0.00    +0.090 C 
BRANCH  27  28
ATOM     28  C   UNL     1      35.163 -22.329 -14.399  0.00  0.00    +0.147 C 
BRANCH  28  29
ATOM     29  O   UNL     1      36.478 -21.957 -14.785  0.00  0.00    -0.354 OA
BRANCH  29  30
ATOM     30  C   UNL     1      37.363 -23.070 -14.766  0.00  0.00    +0.142 C 
ATOM     31  C   UNL     1      37.250 -23.766 -13.427  0.00  0.00    +0.035 C 
ENDBRANCH  29  30
ENDBRANCH  28  29
ENDBRANCH  27  28
ENDBRANCH   6  27
TORSDOF 8
ENDMDL
MODEL 7
REMARK VINA RESULT:      -8.7     10.757     15.552
REMARK  Name = 657061
REMARK  8 active torsions:
REMARK  status: ('A' for Active; 'I' for Inactive)
REMARK    1  A    between atoms: C_6  and  O_12
REMARK    2  A    between atoms: C_6  and  C_27
REMARK    3  A    between atoms: O_12  and  C_13
REMARK    4  A    between atoms: C_18  and  O_19
REMARK    5  A    between atoms: O_19  and  C_21
REMARK    6  A    between atoms: C_27  and  C_28
REMARK    7  A    between atoms: C_28  and  O_29
REMARK    8  A    between atoms: O_29  and  C_30
REMARK                            x       y       z     vdW  Elec       q    Type
REMARK                         _______ _______ _______ _____ _____    ______ ____
ROOT
ATOM      1  O   UNL     1      30.300  -7.772 -24.261  0.00  0.00    -0.270 OA
ATOM      2  O   UNL     1      31.389  -8.838 -19.850  0.00  0.00    -0.270 OA
ATOM      3  O   UNL     1      30.765  -4.462 -21.105  0.00  0.00    -0.252 OA
ATOM      4  N   UNL     1      30.639  -6.102 -22.714  0.00  0.00    -0.236 N 
ATOM      5  N   UNL     1      31.189  -6.639 -20.494  0.00  0.00    -0.236 N 
ATOM      6  C   UNL     1      31.435  -8.351 -22.212  0.00  0.00    +0.270 C 
ATOM      7  C   UNL     1      30.728  -7.410 -23.166  0.00  0.00    +0.274 C 
ATOM      8  C   UNL     1      31.326  -7.996 -20.744  0.00  0.00    +0.274 C 
ATOM      9  C   UNL     1      30.873  -5.649 -21.419  0.00  0.00    +0.312 C 
ATOM     10  H   UNL     1      30.381  -5.422 -23.379  0.00  0.00    +0.159 HD
ATOM     11  H   UNL     1      31.330  -6.346 -19.565  0.00  0.00    +0.159 HD
ENDROOT
BRANCH   6  12
ATOM     12  O   UNL     1      30.872  -9.642 -22.371  0.00  0.00    -0.465 OA
BRANCH  12  13
ATOM     13  C   UNL     1      31.713 -10.713 -22.204  0.00  0.00    +0.140 C 
ATOM     14  C   UNL     1      32.675 -10.987 -23.169  0.00  0.00    +0.040 C 
ATOM     15  C   UNL     1      31.593 -11.511 -21.074  0.00  0.00    +0.040 C 
ATOM     16  C   UNL     1      33.530 -12.077 -23.000  0.00  0.00    +0.041 C 
ATOM     17  C   UNL     1      32.448 -12.600 -20.905  0.00  0.00    +0.041 C 
ATOM     18  C   UNL     1      33.416 -12.883 -21.868  0.00  0.00    +0.145 C 
BRANCH  18  19
ATOM     19  O   UNL     1      34.250 -13.945 -21.702  0.00  0.00    -0.453 OA
BRANCH  19  21
ATOM     20  F   UNL     1      33.581 -18.258 -25.034  0.00  0.00    -0.204 F 
ATOM     21  C   UNL     1      34.081 -15.033 -22.544  0.00  0.00    +0.145 C 
ATOM     22  C   UNL     1      33.406 -14.863 -23.739  0.00  0.00    +0.040 C 
ATOM     23  C   UNL     1      34.592 -16.262 -22.166  0.00  0.00    +0.040 C 
ATOM     24  C   UNL     1      33.235 -15.959 -24.585  0.00  0.00    +0.033 C 
ATOM     25  C   UNL     1      34.423 -17.357 -23.013  0.00  0.00    +0.033 C 
ATOM     26  C   UNL     1      33.744 -17.206 -24.222  0.00  0.00    +0.140 C 
ENDBRANCH  19  21
ENDBRANCH  18  19
ENDBRANCH  12  13
ENDBRANCH   6  12
BRANCH   6  27
ATOM     27  C   UNL     1      32.922  -8.393 -22.581  0.00  0.00    +0.090 C 
BRANCH  27  28
ATOM     28  C   UNL     1      33.256  -7.367 -23.645  0.00  0.00    +0.147 C 
BRANCH  28  29
ATOM     29  O   UNL     1      33.892  -6.262 -23.018  0.00  0.00    -0.354 OA
BRANCH  29  30
ATOM     30  C   UNL     1      33.865  -5.105 -23.845  0.00  0.00    +0.142 C 
ATOM     31  C   UNL     1      34.057  -5.525 -25.286  0.00  0.00    +0.035 C 
ENDBRANCH  29  30
ENDBRANCH  28  29
ENDBRANCH  27  28
ENDBRANCH   6  27
TORSDOF 8
ENDMDL
MODEL 8
REMARK VINA RESULT:      -8.5      3.773      6.025
REMARK  Name = 657061
REMARK  8 active torsions:
REMARK  status: ('A' for Active; 'I' for Inactive)
REMARK    1  A    between atoms: C_6  and  O_12
REMARK    2  A    between atoms: C_6  and  C_27
REMARK    3  A    between atoms: O_12  and  C_13
REMARK    4  A    between atoms: C_18  and  O_19
REMARK    5  A    between atoms: O_19  and  C_21
REMARK    6  A    between atoms: C_27  and  C_28
REMARK    7  A    between atoms: C_28  and  O_29
REMARK    8  A    between atoms: O_29  and  C_30
REMARK                            x       y       z     vdW  Elec       q    Type
REMARK                         _______ _______ _______ _____ _____    ______ ____
ROOT
ATOM      1  O   UNL     1      36.355 -22.127 -12.066  0.00  0.00    -0.270 OA
ATOM      2  O   UNL     1      35.355 -25.269 -15.368  0.00  0.00    -0.270 OA
ATOM      3  O   UNL     1      37.122 -26.600 -11.341  0.00  0.00    -0.252 OA
ATOM      4  N   UNL     1      36.845 -24.351 -11.736  0.00  0.00    -0.236 N 
ATOM      5  N   UNL     1      36.343 -25.933 -13.400  0.00  0.00    -0.236 N 
ATOM      6  C   UNL     1      36.383 -23.569 -13.999  0.00  0.00    +0.270 C 
ATOM      7  C   UNL     1      36.508 -23.259 -12.521  0.00  0.00    +0.274 C 
ATOM      8  C   UNL     1      35.959 -24.984 -14.335  0.00  0.00    +0.274 C 
ATOM      9  C   UNL     1      36.808 -25.691 -12.111  0.00  0.00    +0.312 C 
ATOM     10  H   UNL     1      37.139 -24.159 -10.816  0.00  0.00    +0.159 HD
ATOM     11  H   UNL     1      36.281 -26.875 -13.677  0.00  0.00    +0.159 HD
ENDROOT
BRANCH   6  12
ATOM     12  O   UNL     1      35.409 -22.700 -14.550  0.00  0.00    -0.465 OA
BRANCH  12  13
ATOM     13  C   UNL     1      34.094 -23.069 -14.407  0.00  0.00    +0.140 C 
ATOM     14  C   UNL     1      33.652 -23.575 -13.192  0.00  0.00    +0.040 C 
ATOM     15  C   UNL     1      33.223 -22.932 -15.481  0.00  0.00    +0.040 C 
ATOM     16  C   UNL     1      32.315 -23.950 -13.048  0.00  0.00    +0.041 C 
ATOM     17  C   UNL     1      31.887 -23.307 -15.336  0.00  0.00    +0.041 C 
ATOM     18  C   UNL     1      31.434 -23.816 -14.120  0.00  0.00    +0.145 C 
BRANCH  18  19
ATOM     19  O   UNL     1      30.131 -24.182 -13.978  0.00  0.00    -0.453 OA
BRANCH  19  21
ATOM     20  F   UNL     1      26.471 -21.957 -17.415  0.00  0.00    -0.204 F 
ATOM     21  C   UNL     1      29.207 -23.620 -14.845  0.00  0.00    +0.145 C 
ATOM     22  C   UNL     1      28.879 -22.284 -14.707  0.00  0.00    +0.040 C 
ATOM     23  C   UNL     1      28.638 -24.410 -15.827  0.00  0.00    +0.040 C 
ATOM     24  C   UNL     1      27.949 -21.719 -15.579  0.00  0.00    +0.033 C 
ATOM     25  C   UNL     1      27.710 -23.845 -16.701  0.00  0.00    +0.033 C 
ATOM     26  C   UNL     1      27.364 -22.500 -16.576  0.00  0.00    +0.140 C 
ENDBRANCH  19  21
ENDBRANCH  18  19
ENDBRANCH  12  13
ENDBRANCH   6  12
BRANCH   6  27
ATOM     27  C   UNL     1      37.737 -23.309 -14.668  0.00  0.00    +0.090 C 
BRANCH  27  28
ATOM     28  C   UNL     1      37.573 -22.543 -15.966  0.00  0.00    +0.147 C 
BRANCH  28  29
ATOM     29  O   UNL     1      37.490 -21.158 -15.661  0.00  0.00    -0.354 OA
BRANCH  29  30
ATOM     30  C   UNL     1      36.999 -20.408 -16.765  0.00  0.00    +0.142 C 
ATOM     31  C   UNL     1      36.181 -21.319 -17.654  0.00  0.00    +0.035 C 
ENDBRANCH  29  30
ENDBRANCH  28  29
ENDBRANCH  27  28
ENDBRANCH   6  27
TORSDOF 8
ENDMDL
MODEL 9
REMARK VINA RESULT:      -8.4     11.467     16.252
REMARK  Name = 657061
REMARK  8 active torsions:
REMARK  status: ('A' for Active; 'I' for Inactive)
REMARK    1  A    between atoms: C_6  and  O_12
REMARK    2  A    between atoms: C_6  and  C_27
REMARK    3  A    between atoms: O_12  and  C_13
REMARK    4  A    between atoms: C_18  and  O_19
REMARK    5  A    between atoms: O_19  and  C_21
REMARK    6  A    between atoms: C_27  and  C_28
REMARK    7  A    between atoms: C_28  and  O_29
REMARK    8  A    between atoms: O_29  and  C_30
REMARK                            x       y       z     vdW  Elec       q    Type
REMARK                         _______ _______ _______ _____ _____    ______ ____
ROOT
ATOM      1  O   UNL     1      29.857  -7.649 -23.300  0.00  0.00    -0.270 OA
ATOM      2  O   UNL     1      32.419  -6.747 -19.506  0.00  0.00    -0.270 OA
ATOM      3  O   UNL     1      30.779  -3.314 -22.082  0.00  0.00    -0.252 OA
ATOM      4  N   UNL     1      30.406  -5.480 -22.761  0.00  0.00    -0.236 N 
ATOM      5  N   UNL     1      31.698  -5.026 -20.851  0.00  0.00    -0.236 N 
ATOM      6  C   UNL     1      31.649  -7.303 -21.724  0.00  0.00    +0.270 C 
ATOM      7  C   UNL     1      30.545  -6.856 -22.660  0.00  0.00    +0.274 C 
ATOM      8  C   UNL     1      31.952  -6.361 -20.577  0.00  0.00    +0.274 C 
ATOM      9  C   UNL     1      30.962  -4.522 -21.919  0.00  0.00    +0.312 C 
ATOM     10  H   UNL     1      29.854  -5.146 -23.505  0.00  0.00    +0.159 HD
ATOM     11  H   UNL     1      32.075  -4.368 -20.226  0.00  0.00    +0.159 HD
ENDROOT
BRANCH   6  12
ATOM     12  O   UNL     1      31.267  -8.543 -21.154  0.00  0.00    -0.465 OA
BRANCH  12  13
ATOM     13  C   UNL     1      31.673  -9.680 -21.807  0.00  0.00    +0.140 C 
ATOM     14  C   UNL     1      32.628  -9.590 -22.812  0.00  0.00    +0.040 C 
ATOM     15  C   UNL     1      31.122 -10.906 -21.457  0.00  0.00    +0.040 C 
ATOM     16  C   UNL     1      33.040 -10.746 -23.476  0.00  0.00    +0.041 C 
ATOM     17  C   UNL     1      31.535 -12.061 -22.122  0.00  0.00    +0.041 C 
ATOM     18  C   UNL     1      32.493 -11.981 -23.131  0.00  0.00    +0.145 C 
BRANCH  18  19
ATOM     19  O   UNL     1      32.896 -13.108 -23.779  0.00  0.00    -0.453 OA
BRANCH  19  21
ATOM     20  F   UNL     1      35.075 -17.145 -20.762  0.00  0.00    -0.204 F 
ATOM     21  C   UNL     1      33.446 -14.126 -23.017  0.00  0.00    +0.145 C 
ATOM     22  C   UNL     1      33.550 -13.963 -21.647  0.00  0.00    +0.040 C 
ATOM     23  C   UNL     1      33.876 -15.280 -23.646  0.00  0.00    +0.040 C 
ATOM     24  C   UNL     1      34.104 -14.988 -20.881  0.00  0.00    +0.033 C 
ATOM     25  C   UNL     1      34.428 -16.306 -22.880  0.00  0.00    +0.033 C 
ATOM     26  C   UNL     1      34.543 -16.160 -21.498  0.00  0.00    +0.140 C 
ENDBRANCH  19  21
ENDBRANCH  18  19
ENDBRANCH  12  13
ENDBRANCH   6  12
BRANCH   6  27
ATOM     27  C   UNL     1      32.935  -7.489 -22.537  0.00  0.00    +0.090 C 
BRANCH  27  28
ATOM     28  C   UNL     1      33.841  -6.279 -22.421  0.00  0.00    +0.147 C 
BRANCH  28  29
ATOM     29  O   UNL     1      33.583  -5.419 -23.521  0.00  0.00    -0.354 OA
BRANCH  29  30
ATOM     30  C   UNL     1      33.620  -6.124 -24.756  0.00  0.00    +0.142 C 
ATOM     31  C   UNL     1      32.627  -5.498 -25.710  0.00  0.00    +0.035 C 
ENDBRANCH  29  30
ENDBRANCH  28  29
ENDBRANCH  27  28
ENDBRANCH   6  27
TORSDOF 8
ENDMDL
