MODEL 1
REMARK VINA RESULT:     -12.3      0.000      0.000
REMARK  Name = 11234049
REMARK  5 active torsions:
REMARK  status: ('A' for Active; 'I' for Inactive)
REMARK    1  A    between atoms: C_2  and  N_10
REMARK    2  A    between atoms: C_5  and  C_18
REMARK    3  A    between atoms: C_11  and  C_14
REMARK    4  A    between atoms: C_14  and  O_15
REMARK    5  A    between atoms: C_22  and  C_27
REMARK                            x       y       z     vdW  Elec       q    Type
REMARK                         _______ _______ _______ _____ _____    ______ ____
ROOT
ATOM      1  F   UNL     1      32.859 -22.106 -18.102  0.00  0.00    -0.204 F 
ATOM      2  C   UNL     1      35.520 -22.869 -15.739  0.00  0.00    +0.059 C 
ATOM      3  C   UNL     1      34.268 -22.858 -16.364  0.00  0.00    +0.045 C 
ATOM      4  C   UNL     1      36.566 -22.117 -16.281  0.00  0.00    +0.015 C 
ATOM      5  C   UNL     1      35.115 -21.355 -18.055  0.00  0.00    +0.029 C 
ATOM      6  C   UNL     1      34.066 -22.103 -17.518  0.00  0.00    +0.141 C 
ATOM      7  C   UNL     1      36.365 -21.363 -17.436  0.00  0.00    +0.004 C 
ENDROOT
BRANCH   2  10
ATOM      8  O   UNL     1      36.120 -25.357 -13.150  0.00  0.00    -0.434 OA
ATOM      9  O   UNL     1      36.092 -25.833 -15.367  0.00  0.00    -0.226 OA
ATOM     10  N   UNL     1      35.726 -23.639 -14.559  0.00  0.00    -0.221 N 
ATOM     11  C   UNL     1      36.165 -24.168 -12.350  0.00  0.00    +0.220 C 
ATOM     12  C   UNL     1      35.569 -23.096 -13.236  0.00  0.00    +0.148 C 
ATOM     13  C   UNL     1      35.994 -25.003 -14.475  0.00  0.00    +0.409 C 
BRANCH  11  14
ATOM     14  C   UNL     1      37.611 -23.889 -11.962  0.00  0.00    +0.183 C 
BRANCH  14  15
ATOM     15  O   UNL     1      37.813 -22.487 -11.941  0.00  0.00    -0.378 OA
ATOM     16  H   UNL     1      37.157 -22.058 -12.512  0.00  0.00    +0.211 HD
ENDBRANCH  14  15
ENDBRANCH  11  14
ENDBRANCH   2  10
BRANCH   5  18
ATOM     17  N   UNL     1      33.399 -19.759 -20.955  0.00  0.00    -0.234 NA
ATOM     18  C   UNL     1      34.910 -20.569 -19.254  0.00  0.00    +0.021 C 
ATOM     19  C   UNL     1      35.963 -19.889 -19.849  0.00  0.00    +0.004 C 
ATOM     20  C   UNL     1      33.659 -20.475 -19.837  0.00  0.00    +0.100 C 
ATOM     21  C   UNL     1      35.736 -19.142 -21.000  0.00  0.00    +0.029 C 
ATOM     22  C   UNL     1      34.448 -19.110 -21.508  0.00  0.00    +0.146 C 
BRANCH  22  27
ATOM     23  N   UNL     1      34.411 -17.052 -22.818  0.00  0.00    -0.105 NA
ATOM     24  N   UNL     1      33.962 -16.863 -24.066  0.00  0.00    -0.113 N 
ATOM     25  N   UNL     1      33.588 -18.921 -23.796  0.00  0.00    -0.085 NA
ATOM     26  N   UNL     1      33.466 -17.943 -24.684  0.00  0.00    -0.018 NA
ATOM     27  C   UNL     1      34.156 -18.357 -22.694  0.00  0.00    +0.092 C 
ATOM     28  C   UNL     1      34.009 -15.574 -24.706  0.00  0.00    +0.163 C 
ENDBRANCH  22  27
ENDBRANCH   5  18
TORSDOF 5
ENDMDL
MODEL 2
REMARK VINA RESULT:     -12.1      1.155      1.407
REMARK  Name = 11234049
REMARK  5 active torsions:
REMARK  status: ('A' for Active; 'I' for Inactive)
REMARK    1  A    between atoms: C_2  and  N_10
REMARK    2  A    between atoms: C_5  and  C_18
REMARK    3  A    between atoms: C_11  and  C_14
REMARK    4  A    between atoms: C_14  and  O_15
REMARK    5  A    between atoms: C_22  and  C_27
REMARK                            x       y       z     vdW  Elec       q    Type
REMARK                         _______ _______ _______ _____ _____    ______ ____
ROOT
ATOM      1  F   UNL     1      32.969 -22.487 -17.528  0.00  0.00    -0.204 F 
ATOM      2  C   UNL     1      35.742 -23.066 -15.245  0.00  0.00    +0.059 C 
ATOM      3  C   UNL     1      34.472 -23.132 -15.827  0.00  0.00    +0.045 C 
ATOM      4  C   UNL     1      36.730 -22.272 -15.836  0.00  0.00    +0.015 C 
ATOM      5  C   UNL     1      35.183 -21.621 -17.572  0.00  0.00    +0.029 C 
ATOM      6  C   UNL     1      34.192 -22.411 -16.987  0.00  0.00    +0.141 C 
ATOM      7  C   UNL     1      36.451 -21.553 -16.997  0.00  0.00    +0.004 C 
ENDROOT
BRANCH   2  10
ATOM      8  O   UNL     1      37.037 -25.125 -12.535  0.00  0.00    -0.434 OA
ATOM      9  O   UNL     1      38.118 -24.815 -14.504  0.00  0.00    -0.226 OA
ATOM     10  N   UNL     1      36.027 -23.802 -14.059  0.00  0.00    -0.221 N 
ATOM     11  C   UNL     1      35.925 -24.519 -11.862  0.00  0.00    +0.220 C 
ATOM     12  C   UNL     1      35.090 -23.926 -12.975  0.00  0.00    +0.148 C 
ATOM     13  C   UNL     1      37.153 -24.577 -13.793  0.00  0.00    +0.409 C 
BRANCH  11  14
ATOM     14  C   UNL     1      36.450 -23.476 -10.885  0.00  0.00    +0.183 C 
BRANCH  14  15
ATOM     15  O   UNL     1      36.005 -23.810  -9.582  0.00  0.00    -0.378 OA
ATOM     16  H   UNL     1      35.574 -23.040  -9.180  0.00  0.00    +0.211 HD
ENDBRANCH  14  15
ENDBRANCH  11  14
ENDBRANCH   2  10
BRANCH   5  18
ATOM     17  N   UNL     1      35.704 -19.478 -20.578  0.00  0.00    -0.234 NA
ATOM     18  C   UNL     1      34.898 -20.870 -18.777  0.00  0.00    +0.021 C 
ATOM     19  C   UNL     1      33.610 -20.809 -19.291  0.00  0.00    +0.004 C 
ATOM     20  C   UNL     1      35.902 -20.195 -19.449  0.00  0.00    +0.100 C 
ATOM     21  C   UNL     1      33.366 -20.081 -20.451  0.00  0.00    +0.029 C 
ATOM     22  C   UNL     1      34.438 -19.439 -21.050  0.00  0.00    +0.146 C 
BRANCH  22  27
ATOM     23  N   UNL     1      34.496 -17.364 -22.332  0.00  0.00    -0.105 NA
ATOM     24  N   UNL     1      34.159 -17.162 -23.613  0.00  0.00    -0.113 N 
ATOM     25  N   UNL     1      33.786 -19.229 -23.404  0.00  0.00    -0.085 NA
ATOM     26  N   UNL     1      33.733 -18.240 -24.287  0.00  0.00    -0.018 NA
ATOM     27  C   UNL     1      34.245 -18.673 -22.248  0.00  0.00    +0.092 C 
ATOM     28  C   UNL     1      34.248 -15.864 -24.229  0.00  0.00    +0.163 C 
ENDBRANCH  22  27
ENDBRANCH   5  18
TORSDOF 5
ENDMDL
MODEL 3
REMARK VINA RESULT:     -11.8      4.675      9.947
REMARK  Name = 11234049
REMARK  5 active torsions:
REMARK  status: ('A' for Active; 'I' for Inactive)
REMARK    1  A    between atoms: C_2  and  N_10
REMARK    2  A    between atoms: C_5  and  C_18
REMARK    3  A    between atoms: C_11  and  C_14
REMARK    4  A    between atoms: C_14  and  O_15
REMARK    5  A    between atoms: C_22  and  C_27
REMARK                            x       y       z     vdW  Elec       q    Type
REMARK                         _______ _______ _______ _____ _____    ______ ____
ROOT
ATOM      1  F   UNL     1      32.647 -20.759 -19.633  0.00  0.00    -0.204 F 
ATOM      2  C   UNL     1      34.557 -18.603 -21.857  0.00  0.00    +0.059 C 
ATOM      3  C   UNL     1      33.485 -19.297 -21.286  0.00  0.00    +0.045 C 
ATOM      4  C   UNL     1      35.831 -18.719 -21.294  0.00  0.00    +0.015 C 
ATOM      5  C   UNL     1      34.961 -20.213 -19.607  0.00  0.00    +0.029 C 
ATOM      6  C   UNL     1      33.686 -20.101 -20.164  0.00  0.00    +0.141 C 
ATOM      7  C   UNL     1      36.033 -19.521 -20.171  0.00  0.00    +0.004 C 
ENDROOT
BRANCH   2  10
ATOM      8  O   UNL     1      33.708 -17.046 -25.037  0.00  0.00    -0.434 OA
ATOM      9  O   UNL     1      33.138 -19.171 -24.486  0.00  0.00    -0.226 OA
ATOM     10  N   UNL     1      34.351 -17.783 -23.003  0.00  0.00    -0.221 N 
ATOM     11  C   UNL     1      34.213 -15.900 -24.340  0.00  0.00    +0.220 C 
ATOM     12  C   UNL     1      34.936 -16.477 -23.143  0.00  0.00    +0.148 C 
ATOM     13  C   UNL     1      33.676 -18.119 -24.174  0.00  0.00    +0.409 C 
BRANCH  11  14
ATOM     14  C   UNL     1      33.044 -15.001 -23.959  0.00  0.00    +0.183 C 
BRANCH  14  15
ATOM     15  O   UNL     1      32.592 -14.328 -25.121  0.00  0.00    -0.378 OA
ATOM     16  H   UNL     1      31.744 -13.897 -24.935  0.00  0.00    +0.211 HD
ENDBRANCH  14  15
ENDBRANCH  11  14
ENDBRANCH   2  10
BRANCH   5  18
ATOM     17  N   UNL     1      34.335 -22.729 -16.928  0.00  0.00    -0.234 NA
ATOM     18  C   UNL     1      35.175 -21.046 -18.442  0.00  0.00    +0.021 C 
ATOM     19  C   UNL     1      36.367 -20.987 -17.732  0.00  0.00    +0.004 C 
ATOM     20  C   UNL     1      34.198 -21.924 -18.006  0.00  0.00    +0.100 C 
ATOM     21  C   UNL     1      36.544 -21.799 -16.617  0.00  0.00    +0.029 C 
ATOM     22  C   UNL     1      35.507 -22.645 -16.260  0.00  0.00    +0.146 C 
BRANCH  22  27
ATOM     23  N   UNL     1      36.354 -24.628 -15.121  0.00  0.00    -0.105 NA
ATOM     24  N   UNL     1      36.140 -25.024 -13.859  0.00  0.00    -0.113 N 
ATOM     25  N   UNL     1      35.022 -23.236 -13.931  0.00  0.00    -0.085 NA
ATOM     26  N   UNL     1      35.356 -24.229 -13.117  0.00  0.00    -0.018 NA
ATOM     27  C   UNL     1      35.634 -23.504 -15.118  0.00  0.00    +0.092 C 
ATOM     28  C   UNL     1      36.716 -26.233 -13.330  0.00  0.00    +0.163 C 
ENDBRANCH  22  27
ENDBRANCH   5  18
TORSDOF 5
ENDMDL
MODEL 4
REMARK VINA RESULT:     -11.8      8.632     13.241
REMARK  Name = 11234049
REMARK  5 active torsions:
REMARK  status: ('A' for Active; 'I' for Inactive)
REMARK    1  A    between atoms: C_2  and  N_10
REMARK    2  A    between atoms: C_5  and  C_18
REMARK    3  A    between atoms: C_11  and  C_14
REMARK    4  A    between atoms: C_14  and  O_15
REMARK    5  A    between atoms: C_22  and  C_27
REMARK                            x       y       z     vdW  Elec       q    Type
REMARK                         _______ _______ _______ _____ _____    ______ ____
ROOT
ATOM      1  F   UNL     1      31.514 -12.779 -20.247  0.00  0.00    -0.204 F 
ATOM      2  C   UNL     1      31.879  -9.963 -22.524  0.00  0.00    +0.059 C 
ATOM      3  C   UNL     1      31.424 -10.761 -21.469  0.00  0.00    +0.045 C 
ATOM      4  C   UNL     1      32.879 -10.448 -23.372  0.00  0.00    +0.015 C 
ATOM      5  C   UNL     1      32.963 -12.508 -22.114  0.00  0.00    +0.029 C 
ATOM      6  C   UNL     1      31.964 -12.029 -21.264  0.00  0.00    +0.141 C 
ATOM      7  C   UNL     1      33.421 -11.716 -23.167  0.00  0.00    +0.004 C 
ENDROOT
BRANCH   2  10
ATOM      8  O   UNL     1      30.584  -6.562 -22.400  0.00  0.00    -0.434 OA
ATOM      9  O   UNL     1      31.426  -7.653 -20.599  0.00  0.00    -0.226 OA
ATOM     10  N   UNL     1      31.326  -8.667 -22.734  0.00  0.00    -0.221 N 
ATOM     11  C   UNL     1      30.577  -6.767 -23.819  0.00  0.00    +0.220 C 
ATOM     12  C   UNL     1      30.743  -8.261 -23.984  0.00  0.00    +0.148 C 
ATOM     13  C   UNL     1      31.161  -7.655 -21.792  0.00  0.00    +0.409 C 
BRANCH  11  14
ATOM     14  C   UNL     1      31.714  -5.965 -24.438  0.00  0.00    +0.183 C 
BRANCH  14  15
ATOM     15  O   UNL     1      31.539  -5.942 -25.845  0.00  0.00    -0.378 OA
ATOM     16  H   UNL     1      31.593  -5.027 -26.162  0.00  0.00    +0.211 HD
ENDBRANCH  14  15
ENDBRANCH  11  14
ENDBRANCH   2  10
BRANCH   5  18
ATOM     17  N   UNL     1      34.213 -15.554 -20.365  0.00  0.00    -0.234 NA
ATOM     18  C   UNL     1      33.527 -13.825 -21.906  0.00  0.00    +0.021 C 
ATOM     19  C   UNL     1      33.914 -14.613 -22.981  0.00  0.00    +0.004 C 
ATOM     20  C   UNL     1      33.694 -14.333 -20.629  0.00  0.00    +0.100 C 
ATOM     21  C   UNL     1      34.453 -15.874 -22.749  0.00  0.00    +0.029 C 
ATOM     22  C   UNL     1      34.580 -16.294 -21.435  0.00  0.00    +0.146 C 
BRANCH  22  27
ATOM     23  N   UNL     1      34.418 -18.584 -20.612  0.00  0.00    -0.105 NA
ATOM     24  N   UNL     1      35.376 -19.518 -20.542  0.00  0.00    -0.113 N 
ATOM     25  N   UNL     1      36.437 -17.893 -21.371  0.00  0.00    -0.085 NA
ATOM     26  N   UNL     1      36.589 -19.152 -20.981  0.00  0.00    -0.018 NA
ATOM     27  C   UNL     1      35.130 -17.585 -21.138  0.00  0.00    +0.092 C 
ATOM     28  C   UNL     1      35.120 -20.837 -20.024  0.00  0.00    +0.163 C 
ENDBRANCH  22  27
ENDBRANCH   5  18
TORSDOF 5
ENDMDL
MODEL 5
REMARK VINA RESULT:     -11.6      9.170     13.800
REMARK  Name = 11234049
REMARK  5 active torsions:
REMARK  status: ('A' for Active; 'I' for Inactive)
REMARK    1  A    between atoms: C_2  and  N_10
REMARK    2  A    between atoms: C_5  and  C_18
REMARK    3  A    between atoms: C_11  and  C_14
REMARK    4  A    between atoms: C_14  and  O_15
REMARK    5  A    between atoms: C_22  and  C_27
REMARK                            x       y       z     vdW  Elec       q    Type
REMARK                         _______ _______ _______ _____ _____    ______ ____
ROOT
ATOM      1  F   UNL     1      33.968 -11.090 -24.101  0.00  0.00    -0.204 F 
ATOM      2  C   UNL     1      31.557  -9.044 -22.299  0.00  0.00    +0.059 C 
ATOM      3  C   UNL     1      32.514  -9.442 -23.238  0.00  0.00    +0.045 C 
ATOM      4  C   UNL     1      31.141  -9.946 -21.315  0.00  0.00    +0.015 C 
ATOM      5  C   UNL     1      32.631 -11.624 -22.207  0.00  0.00    +0.029 C 
ATOM      6  C   UNL     1      33.050 -10.728 -23.192  0.00  0.00    +0.141 C 
ATOM      7  C   UNL     1      31.676 -11.233 -21.270  0.00  0.00    +0.004 C 
ENDROOT
BRANCH   2  10
ATOM      8  O   UNL     1      30.429  -5.618 -21.801  0.00  0.00    -0.434 OA
ATOM      9  O   UNL     1      31.629  -6.781 -20.268  0.00  0.00    -0.226 OA
ATOM     10  N   UNL     1      31.010  -7.730 -22.345  0.00  0.00    -0.221 N 
ATOM     11  C   UNL     1      30.088  -5.781 -23.184  0.00  0.00    +0.220 C 
ATOM     12  C   UNL     1      30.167  -7.273 -23.418  0.00  0.00    +0.148 C 
ATOM     13  C   UNL     1      31.097  -6.742 -21.368  0.00  0.00    +0.409 C 
BRANCH  11  14
ATOM     14  C   UNL     1      31.075  -4.988 -24.031  0.00  0.00    +0.183 C 
BRANCH  14  15
ATOM     15  O   UNL     1      31.411  -5.755 -25.174  0.00  0.00    -0.378 OA
ATOM     16  H   UNL     1      32.010  -6.474 -24.916  0.00  0.00    +0.211 HD
ENDBRANCH  14  15
ENDBRANCH  11  14
ENDBRANCH   2  10
BRANCH   5  18
ATOM     17  N   UNL     1      34.104 -14.762 -20.836  0.00  0.00    -0.234 NA
ATOM     18  C   UNL     1      33.185 -12.961 -22.156  0.00  0.00    +0.021 C 
ATOM     19  C   UNL     1      33.332 -13.717 -23.311  0.00  0.00    +0.004 C 
ATOM     20  C   UNL     1      33.581 -13.520 -20.954  0.00  0.00    +0.100 C 
ATOM     21  C   UNL     1      33.867 -14.998 -23.230  0.00  0.00    +0.029 C 
ATOM     22  C   UNL     1      34.234 -15.470 -21.980  0.00  0.00    +0.146 C 
BRANCH  22  27
ATOM     23  N   UNL     1      35.237 -17.272 -20.678  0.00  0.00    -0.105 NA
ATOM     24  N   UNL     1      35.634 -18.483 -21.092  0.00  0.00    -0.113 N 
ATOM     25  N   UNL     1      34.912 -17.643 -22.888  0.00  0.00    -0.085 NA
ATOM     26  N   UNL     1      35.460 -18.746 -22.395  0.00  0.00    -0.018 NA
ATOM     27  C   UNL     1      34.792 -16.784 -21.838  0.00  0.00    +0.092 C 
ATOM     28  C   UNL     1      36.215 -19.444 -20.191  0.00  0.00    +0.163 C 
ENDBRANCH  22  27
ENDBRANCH   5  18
TORSDOF 5
ENDMDL
MODEL 6
REMARK VINA RESULT:     -11.6      1.347      1.976
REMARK  Name = 11234049
REMARK  5 active torsions:
REMARK  status: ('A' for Active; 'I' for Inactive)
REMARK    1  A    between atoms: C_2  and  N_10
REMARK    2  A    between atoms: C_5  and  C_18
REMARK    3  A    between atoms: C_11  and  C_14
REMARK    4  A    between atoms: C_14  and  O_15
REMARK    5  A    between atoms: C_22  and  C_27
REMARK                            x       y       z     vdW  Elec       q    Type
REMARK                         _______ _______ _______ _____ _____    ______ ____
ROOT
ATOM      1  F   UNL     1      37.201 -20.035 -17.592  0.00  0.00    -0.204 F 
ATOM      2  C   UNL     1      35.665 -22.775 -15.754  0.00  0.00    +0.059 C 
ATOM      3  C   UNL     1      36.555 -21.757 -16.112  0.00  0.00    +0.045 C 
ATOM      4  C   UNL     1      34.553 -23.033 -16.562  0.00  0.00    +0.015 C 
ATOM      5  C   UNL     1      35.225 -21.269 -18.068  0.00  0.00    +0.029 C 
ATOM      6  C   UNL     1      36.336 -21.006 -17.266  0.00  0.00    +0.141 C 
ATOM      7  C   UNL     1      34.333 -22.281 -17.715  0.00  0.00    +0.004 C 
ENDROOT
BRANCH   2  10
ATOM      8  O   UNL     1      35.593 -24.597 -12.603  0.00  0.00    -0.434 OA
ATOM      9  O   UNL     1      33.809 -23.486 -13.452  0.00  0.00    -0.226 OA
ATOM     10  N   UNL     1      35.890 -23.543 -14.576  0.00  0.00    -0.221 N 
ATOM     11  C   UNL     1      36.874 -25.018 -13.091  0.00  0.00    +0.220 C 
ATOM     12  C   UNL     1      37.185 -24.052 -14.213  0.00  0.00    +0.148 C 
ATOM     13  C   UNL     1      34.975 -23.832 -13.566  0.00  0.00    +0.409 C 
BRANCH  11  14
ATOM     14  C   UNL     1      36.773 -26.465 -13.555  0.00  0.00    +0.183 C 
BRANCH  14  15
ATOM     15  O   UNL     1      37.949 -26.793 -14.275  0.00  0.00    -0.378 OA
ATOM     16  H   UNL     1      38.339 -25.985 -14.642  0.00  0.00    +0.211 HD
ENDBRANCH  14  15
ENDBRANCH  11  14
ENDBRANCH   2  10
BRANCH   5  18
ATOM     17  N   UNL     1      33.441 -19.682 -20.932  0.00  0.00    -0.234 NA
ATOM     18  C   UNL     1      34.992 -20.491 -19.268  0.00  0.00    +0.021 C 
ATOM     19  C   UNL     1      36.034 -19.824 -19.898  0.00  0.00    +0.004 C 
ATOM     20  C   UNL     1      33.726 -20.392 -19.816  0.00  0.00    +0.100 C 
ATOM     21  C   UNL     1      35.781 -19.085 -21.049  0.00  0.00    +0.029 C 
ATOM     22  C   UNL     1      34.479 -19.047 -21.521  0.00  0.00    +0.146 C 
BRANCH  22  27
ATOM     23  N   UNL     1      34.383 -16.991 -22.830  0.00  0.00    -0.105 NA
ATOM     24  N   UNL     1      33.920 -16.812 -24.074  0.00  0.00    -0.113 N 
ATOM     25  N   UNL     1      33.597 -18.879 -23.802  0.00  0.00    -0.085 NA
ATOM     26  N   UNL     1      33.444 -17.904 -24.689  0.00  0.00    -0.018 NA
ATOM     27  C   UNL     1      34.159 -18.301 -22.704  0.00  0.00    +0.092 C 
ATOM     28  C   UNL     1      33.931 -15.522 -24.714  0.00  0.00    +0.163 C 
ENDBRANCH  22  27
ENDBRANCH   5  18
TORSDOF 5
ENDMDL
MODEL 7
REMARK VINA RESULT:     -11.6      9.258     14.003
REMARK  Name = 11234049
REMARK  5 active torsions:
REMARK  status: ('A' for Active; 'I' for Inactive)
REMARK    1  A    between atoms: C_2  and  N_10
REMARK    2  A    between atoms: C_5  and  C_18
REMARK    3  A    between atoms: C_11  and  C_14
REMARK    4  A    between atoms: C_14  and  O_15
REMARK    5  A    between atoms: C_22  and  C_27
REMARK                            x       y       z     vdW  Elec       q    Type
REMARK                         _______ _______ _______ _____ _____    ______ ____
ROOT
ATOM      1  F   UNL     1      30.820 -11.918 -20.959  0.00  0.00    -0.204 F 
ATOM      2  C   UNL     1      31.614  -8.859 -22.765  0.00  0.00    +0.059 C 
ATOM      3  C   UNL     1      30.955  -9.773 -21.935  0.00  0.00    +0.045 C 
ATOM      4  C   UNL     1      32.790  -9.244 -23.415  0.00  0.00    +0.015 C 
ATOM      5  C   UNL     1      32.642 -11.435 -22.409  0.00  0.00    +0.029 C 
ATOM      6  C   UNL     1      31.467 -11.057 -21.758  0.00  0.00    +0.141 C 
ATOM      7  C   UNL     1      33.304 -10.528 -23.237  0.00  0.00    +0.004 C 
ENDROOT
BRANCH   2  10
ATOM      8  O   UNL     1      30.393  -5.434 -22.569  0.00  0.00    -0.434 OA
ATOM      9  O   UNL     1      31.210  -6.581 -20.791  0.00  0.00    -0.226 OA
ATOM     10  N   UNL     1      31.089  -7.548 -22.947  0.00  0.00    -0.221 N 
ATOM     11  C   UNL     1      30.382  -5.609 -23.992  0.00  0.00    +0.220 C 
ATOM     12  C   UNL     1      30.516  -7.103 -24.189  0.00  0.00    +0.148 C 
ATOM     13  C   UNL     1      30.946  -6.552 -21.984  0.00  0.00    +0.409 C 
BRANCH  11  14
ATOM     14  C   UNL     1      31.536  -4.818 -24.594  0.00  0.00    +0.183 C 
BRANCH  14  15
ATOM     15  O   UNL     1      31.788  -5.306 -25.900  0.00  0.00    -0.378 OA
ATOM     16  H   UNL     1      31.768  -6.276 -25.892  0.00  0.00    +0.211 HD
ENDBRANCH  14  15
ENDBRANCH  11  14
ENDBRANCH   2  10
BRANCH   5  18
ATOM     17  N   UNL     1      34.018 -14.804 -23.218  0.00  0.00    -0.234 NA
ATOM     18  C   UNL     1      33.179 -12.768 -22.228  0.00  0.00    +0.021 C 
ATOM     19  C   UNL     1      33.373 -13.292 -20.957  0.00  0.00    +0.004 C 
ATOM     20  C   UNL     1      33.513 -13.554 -23.317  0.00  0.00    +0.100 C 
ATOM     21  C   UNL     1      33.890 -14.575 -20.815  0.00  0.00    +0.029 C 
ATOM     22  C   UNL     1      34.193 -15.283 -21.966  0.00  0.00    +0.146 C 
BRANCH  22  27
ATOM     23  N   UNL     1      35.179 -17.150 -20.743  0.00  0.00    -0.105 NA
ATOM     24  N   UNL     1      35.548 -18.352 -21.206  0.00  0.00    -0.113 N 
ATOM     25  N   UNL     1      34.820 -17.434 -22.961  0.00  0.00    -0.085 NA
ATOM     26  N   UNL     1      35.354 -18.564 -22.515  0.00  0.00    -0.018 NA
ATOM     27  C   UNL     1      34.729 -16.612 -21.879  0.00  0.00    +0.092 C 
ATOM     28  C   UNL     1      36.123 -19.356 -20.348  0.00  0.00    +0.163 C 
ENDBRANCH  22  27
ENDBRANCH   5  18
TORSDOF 5
ENDMDL
MODEL 8
REMARK VINA RESULT:     -11.6      7.862     11.362
REMARK  Name = 11234049
REMARK  5 active torsions:
REMARK  status: ('A' for Active; 'I' for Inactive)
REMARK    1  A    between atoms: C_2  and  N_10
REMARK    2  A    between atoms: C_5  and  C_18
REMARK    3  A    between atoms: C_11  and  C_14
REMARK    4  A    between atoms: C_14  and  O_15
REMARK    5  A    between atoms: C_22  and  C_27
REMARK                            x       y       z     vdW  Elec       q    Type
REMARK                         _______ _______ _______ _____ _____    ______ ____
ROOT
ATOM      1  F   UNL     1      32.674 -12.492 -25.075  0.00  0.00    -0.204 F 
ATOM      2  C   UNL     1      33.757 -14.950 -22.620  0.00  0.00    +0.059 C 
ATOM      3  C   UNL     1      33.404 -14.368 -23.841  0.00  0.00    +0.045 C 
ATOM      4  C   UNL     1      33.712 -14.183 -21.452  0.00  0.00    +0.015 C 
ATOM      5  C   UNL     1      32.966 -12.270 -22.725  0.00  0.00    +0.029 C 
ATOM      6  C   UNL     1      33.009 -13.031 -23.894  0.00  0.00    +0.141 C 
ATOM      7  C   UNL     1      33.319 -12.846 -21.505  0.00  0.00    +0.004 C 
ENDROOT
BRANCH   2  10
ATOM      8  O   UNL     1      34.654 -18.440 -23.146  0.00  0.00    -0.434 OA
ATOM      9  O   UNL     1      33.936 -17.064 -24.799  0.00  0.00    -0.226 OA
ATOM     10  N   UNL     1      34.159 -16.315 -22.566  0.00  0.00    -0.221 N 
ATOM     11  C   UNL     1      35.107 -18.280 -21.794  0.00  0.00    +0.220 C 
ATOM     12  C   UNL     1      34.464 -16.990 -21.333  0.00  0.00    +0.148 C 
ATOM     13  C   UNL     1      34.222 -17.222 -23.621  0.00  0.00    +0.409 C 
BRANCH  11  14
ATOM     14  C   UNL     1      36.629 -18.228 -21.787  0.00  0.00    +0.183 C 
BRANCH  14  15
ATOM     15  O   UNL     1      37.078 -18.278 -20.444  0.00  0.00    -0.378 OA
ATOM     16  H   UNL     1      36.653 -19.021 -19.990  0.00  0.00    +0.211 HD
ENDBRANCH  14  15
ENDBRANCH  11  14
ENDBRANCH   2  10
BRANCH   5  18
ATOM     17  N   UNL     1      30.886  -9.207 -22.293  0.00  0.00    -0.234 NA
ATOM     18  C   UNL     1      32.557 -10.882 -22.774  0.00  0.00    +0.021 C 
ATOM     19  C   UNL     1      33.388  -9.913 -23.320  0.00  0.00    +0.004 C 
ATOM     20  C   UNL     1      31.328 -10.485 -22.278  0.00  0.00    +0.100 C 
ATOM     21  C   UNL     1      32.968  -8.588 -23.354  0.00  0.00    +0.029 C 
ATOM     22  C   UNL     1      31.720  -8.290 -22.832  0.00  0.00    +0.146 C 
BRANCH  22  27
ATOM     23  N   UNL     1      30.870  -6.282 -21.739  0.00  0.00    -0.105 NA
ATOM     24  N   UNL     1      30.514  -5.114 -22.292  0.00  0.00    -0.113 N 
ATOM     25  N   UNL     1      31.108  -6.217 -23.990  0.00  0.00    -0.085 NA
ATOM     26  N   UNL     1      30.639  -5.031 -23.624  0.00  0.00    -0.018 NA
ATOM     27  C   UNL     1      31.235  -6.939 -22.841  0.00  0.00    +0.092 C 
ATOM     28  C   UNL     1      30.025  -4.014 -21.503  0.00  0.00    +0.163 C 
ENDBRANCH  22  27
ENDBRANCH   5  18
TORSDOF 5
ENDMDL
MODEL 9
REMARK VINA RESULT:     -11.2      9.332     13.895
REMARK  Name = 11234049
REMARK  5 active torsions:
REMARK  status: ('A' for Active; 'I' for Inactive)
REMARK    1  A    between atoms: C_2  and  N_10
REMARK    2  A    between atoms: C_5  and  C_18
REMARK    3  A    between atoms: C_11  and  C_14
REMARK    4  A    between atoms: C_14  and  O_15
REMARK    5  A    between atoms: C_22  and  C_27
REMARK                            x       y       z     vdW  Elec       q    Type
REMARK                         _______ _______ _______ _____ _____    ______ ____
ROOT
ATOM      1  F   UNL     1      31.079 -11.813 -21.217  0.00  0.00    -0.204 F 
ATOM      2  C   UNL     1      32.144  -8.759 -22.885  0.00  0.00    +0.059 C 
ATOM      3  C   UNL     1      31.402  -9.648 -22.100  0.00  0.00    +0.045 C 
ATOM      4  C   UNL     1      33.291  -9.213 -23.542  0.00  0.00    +0.015 C 
ATOM      5  C   UNL     1      32.950 -11.424 -22.632  0.00  0.00    +0.029 C 
ATOM      6  C   UNL     1      31.804 -10.977 -21.973  0.00  0.00    +0.141 C 
ATOM      7  C   UNL     1      33.694 -10.542 -23.415  0.00  0.00    +0.004 C 
ENDROOT
BRANCH   2  10
ATOM      8  O   UNL     1      30.811  -5.495 -23.795  0.00  0.00    -0.434 OA
ATOM      9  O   UNL     1      30.548  -7.357 -25.062  0.00  0.00    -0.226 OA
ATOM     10  N   UNL     1      31.733  -7.402 -23.015  0.00  0.00    -0.221 N 
ATOM     11  C   UNL     1      31.247  -5.209 -22.459  0.00  0.00    +0.220 C 
ATOM     12  C   UNL     1      32.146  -6.371 -22.100  0.00  0.00    +0.148 C 
ATOM     13  C   UNL     1      30.989  -6.837 -24.048  0.00  0.00    +0.409 C 
BRANCH  11  14
ATOM     14  C   UNL     1      30.025  -5.095 -21.557  0.00  0.00    +0.183 C 
BRANCH  14  15
ATOM     15  O   UNL     1      30.265  -4.081 -20.596  0.00  0.00    -0.378 OA
ATOM     16  H   UNL     1      29.818  -4.311 -19.767  0.00  0.00    +0.211 HD
ENDBRANCH  14  15
ENDBRANCH  11  14
ENDBRANCH   2  10
BRANCH   5  18
ATOM     17  N   UNL     1      34.091 -14.616 -21.080  0.00  0.00    -0.234 NA
ATOM     18  C   UNL     1      33.372 -12.804 -22.504  0.00  0.00    +0.021 C 
ATOM     19  C   UNL     1      33.465 -13.627 -23.618  0.00  0.00    +0.004 C 
ATOM     20  C   UNL     1      33.692 -13.338 -21.268  0.00  0.00    +0.100 C 
ATOM     21  C   UNL     1      33.873 -14.948 -23.464  0.00  0.00    +0.029 C 
ATOM     22  C   UNL     1      34.172 -15.389 -22.186  0.00  0.00    +0.146 C 
BRANCH  22  27
ATOM     23  N   UNL     1      35.178 -17.157 -20.840  0.00  0.00    -0.105 NA
ATOM     24  N   UNL     1      35.364 -18.447 -21.155  0.00  0.00    -0.113 N 
ATOM     25  N   UNL     1      34.442 -17.716 -22.907  0.00  0.00    -0.085 NA
ATOM     26  N   UNL     1      34.942 -18.822 -22.371  0.00  0.00    -0.018 NA
ATOM     27  C   UNL     1      34.598 -16.742 -21.968  0.00  0.00    +0.092 C 
ATOM     28  C   UNL     1      35.980 -19.374 -20.243  0.00  0.00    +0.163 C 
ENDBRANCH  22  27
ENDBRANCH   5  18
TORSDOF 5
ENDMDL
