MODEL 1
REMARK VINA RESULT:     -13.5      0.000      0.000
REMARK  Name = 24978486
REMARK  5 active torsions:
REMARK  status: ('A' for Active; 'I' for Inactive)
REMARK    1  A    between atoms: O_1  and  C_6
REMARK    2  A    between atoms: O_1  and  C_18
REMARK    3  A    between atoms: C_18  and  C_20
REMARK    4  A    between atoms: N_19  and  C_26
REMARK    5  A    between atoms: C_26  and  C_29
REMARK                            x       y       z     vdW  Elec       q    Type
REMARK                         _______ _______ _______ _____ _____    ______ ____
ROOT
ATOM      1  O   UNL     1      34.566 -21.561 -18.389  0.00  0.00    -0.479 OA
ENDROOT
BRANCH   1   6
ATOM      2  N   UNL     1      32.255 -23.391 -14.544  0.00  0.00    -0.332 NA
ATOM      3  N   UNL     1      30.953 -22.784 -16.479  0.00  0.00    -0.317 NA
ATOM      4  N   UNL     1      31.955 -21.895 -18.387  0.00  0.00    -0.335 N 
ATOM      5  N   UNL     1      29.926 -23.677 -14.572  0.00  0.00    -0.283 N 
ATOM      6  C   UNL     1      34.533 -22.075 -17.117  0.00  0.00    +0.130 C 
ATOM      7  C   UNL     1      33.351 -22.481 -16.473  0.00  0.00    +0.177 C 
ATOM      8  C   UNL     1      35.754 -22.182 -16.460  0.00  0.00    +0.033 C 
ATOM      9  C   UNL     1      33.379 -22.999 -15.168  0.00  0.00    +0.137 C 
ATOM     10  C   UNL     1      32.098 -22.401 -17.075  0.00  0.00    +0.181 C 
ATOM     11  C   UNL     1      35.796 -22.693 -15.167  0.00  0.00    +0.005 C 
ATOM     12  C   UNL     1      34.615 -23.095 -14.534  0.00  0.00    +0.030 C 
ATOM     13  C   UNL     1      31.103 -23.263 -15.233  0.00  0.00    +0.197 C 
ATOM     14  H   UNL     1      31.064 -21.844 -18.801  0.00  0.00    +0.144 HD
ATOM     15  H   UNL     1      32.749 -21.595 -18.887  0.00  0.00    +0.144 HD
ATOM     16  H   UNL     1      29.977 -24.036 -13.656  0.00  0.00    +0.156 HD
ATOM     17  H   UNL     1      29.055 -23.608 -15.026  0.00  0.00    +0.156 HD
ENDBRANCH   1   6
BRANCH   1  18
ATOM     18  C   UNL     1      35.809 -21.062 -18.848  0.00  0.00    +0.205 C 
BRANCH  18  20
ATOM     19  N   UNL     1      34.759 -17.911 -21.609  0.00  0.00    +0.390 N 
ATOM     20  C   UNL     1      35.580 -20.326 -20.166  0.00  0.00    +0.040 C 
ATOM     21  C   UNL     1      36.473 -19.086 -20.267  0.00  0.00    -0.019 C 
ATOM     22  C   UNL     1      34.111 -19.921 -20.322  0.00  0.00    -0.019 C 
ATOM     23  C   UNL     1      36.176 -18.289 -21.539  0.00  0.00    -0.077 C 
ATOM     24  C   UNL     1      33.893 -19.097 -21.592  0.00  0.00    -0.077 C 
ATOM     25  H   UNL     1      34.541 -17.350 -20.785  0.00  0.00    -0.079 HD
BRANCH  19  26
ATOM     26  C   UNL     1      34.502 -17.107 -22.804  0.00  0.00    -0.049 C 
BRANCH  26  29
ATOM     27 CL   UNL     1      33.714 -15.257 -25.093  0.00  0.00    -0.082 Cl
ATOM     28 CL   UNL     1      32.956 -12.260 -24.218  0.00  0.00    -0.081 Cl
ATOM     29  C   UNL     1      34.136 -15.688 -22.458  0.00  0.00    -0.032 C 
ATOM     30  C   UNL     1      33.761 -14.762 -23.432  0.00  0.00    +0.062 C 
ATOM     31  C   UNL     1      34.180 -15.309 -21.116  0.00  0.00    -0.005 C 
ATOM     32  C   UNL     1      33.430 -13.458 -23.063  0.00  0.00    +0.068 C 
ATOM     33  C   UNL     1      33.849 -14.005 -20.748  0.00  0.00    +0.001 C 
ATOM     34  C   UNL     1      33.474 -13.080 -21.722  0.00  0.00    +0.012 C 
ENDBRANCH  26  29
ENDBRANCH  19  26
ENDBRANCH  18  20
ENDBRANCH   1  18
TORSDOF 5
ENDMDL
MODEL 2
REMARK VINA RESULT:     -13.4      2.039      2.938
REMARK  Name = 24978486
REMARK  5 active torsions:
REMARK  status: ('A' for Active; 'I' for Inactive)
REMARK    1  A    between atoms: O_1  and  C_6
REMARK    2  A    between atoms: O_1  and  C_18
REMARK    3  A    between atoms: C_18  and  C_20
REMARK    4  A    between atoms: N_19  and  C_26
REMARK    5  A    between atoms: C_26  and  C_29
REMARK                            x       y       z     vdW  Elec       q    Type
REMARK                         _______ _______ _______ _____ _____    ______ ____
ROOT
ATOM      1  O   UNL     1      34.699 -21.995 -17.882  0.00  0.00    -0.479 OA
ENDROOT
BRANCH   1   6
ATOM      2  N   UNL     1      35.283 -23.155 -13.214  0.00  0.00    -0.332 NA
ATOM      3  N   UNL     1      37.218 -22.464 -14.472  0.00  0.00    -0.317 NA
ATOM      4  N   UNL     1      37.060 -21.882 -16.724  0.00  0.00    -0.335 N 
ATOM      5  N   UNL     1      37.400 -23.045 -12.209  0.00  0.00    -0.283 N 
ATOM      6  C   UNL     1      34.230 -22.409 -16.660  0.00  0.00    +0.130 C 
ATOM      7  C   UNL     1      35.047 -22.570 -15.528  0.00  0.00    +0.177 C 
ATOM      8  C   UNL     1      32.867 -22.676 -16.578  0.00  0.00    +0.033 C 
ATOM      9  C   UNL     1      34.510 -22.998 -14.303  0.00  0.00    +0.137 C 
ATOM     10  C   UNL     1      36.416 -22.318 -15.543  0.00  0.00    +0.181 C 
ATOM     11  C   UNL     1      32.323 -23.102 -15.371  0.00  0.00    +0.005 C 
ATOM     12  C   UNL     1      33.143 -23.259 -14.249  0.00  0.00    +0.030 C 
ATOM     13  C   UNL     1      36.595 -22.879 -13.357  0.00  0.00    +0.197 C 
ATOM     14  H   UNL     1      38.029 -21.708 -16.721  0.00  0.00    +0.144 HD
ATOM     15  H   UNL     1      36.538 -21.752 -17.549  0.00  0.00    +0.144 HD
ATOM     16  H   UNL     1      36.995 -23.347 -11.364  0.00  0.00    +0.156 HD
ATOM     17  H   UNL     1      38.366 -22.858 -12.253  0.00  0.00    +0.156 HD
ENDBRANCH   1   6
BRANCH   1  18
ATOM     18  C   UNL     1      33.787 -22.026 -18.965  0.00  0.00    +0.205 C 
BRANCH  18  20
ATOM     19  N   UNL     1      34.837 -18.359 -20.991  0.00  0.00    +0.390 N 
ATOM     20  C   UNL     1      34.292 -21.082 -20.053  0.00  0.00    +0.040 C 
ATOM     21  C   UNL     1      35.495 -20.270 -19.563  0.00  0.00    -0.019 C 
ATOM     22  C   UNL     1      33.181 -20.135 -20.517  0.00  0.00    -0.019 C 
ATOM     23  C   UNL     1      35.942 -19.251 -20.613  0.00  0.00    -0.077 C 
ATOM     24  C   UNL     1      33.705 -19.120 -21.535  0.00  0.00    -0.077 C 
ATOM     25  H   UNL     1      34.518 -17.879 -20.149  0.00  0.00    -0.079 HD
BRANCH  19  26
ATOM     26  C   UNL     1      35.294 -17.359 -21.955  0.00  0.00    -0.049 C 
BRANCH  26  29
ATOM     27 CL   UNL     1      34.433 -15.992 -24.539  0.00  0.00    -0.082 Cl
ATOM     28 CL   UNL     1      32.792 -13.257 -24.146  0.00  0.00    -0.081 Cl
ATOM     29  C   UNL     1      34.521 -16.072 -21.838  0.00  0.00    -0.032 C 
ATOM     30  C   UNL     1      34.081 -15.369 -22.959  0.00  0.00    +0.062 C 
ATOM     31  C   UNL     1      34.249 -15.586 -20.559  0.00  0.00    -0.005 C 
ATOM     32  C   UNL     1      33.368 -14.180 -22.801  0.00  0.00    +0.068 C 
ATOM     33  C   UNL     1      33.536 -14.398 -20.401  0.00  0.00    +0.001 C 
ATOM     34  C   UNL     1      33.096 -13.695 -21.522  0.00  0.00    +0.012 C 
ENDBRANCH  26  29
ENDBRANCH  19  26
ENDBRANCH  18  20
ENDBRANCH   1  18
TORSDOF 5
ENDMDL
MODEL 3
REMARK VINA RESULT:     -12.7      4.222      9.799
REMARK  Name = 24978486
REMARK  5 active torsions:
REMARK  status: ('A' for Active; 'I' for Inactive)
REMARK    1  A    between atoms: O_1  and  C_6
REMARK    2  A    between atoms: O_1  and  C_18
REMARK    3  A    between atoms: C_18  and  C_20
REMARK    4  A    between atoms: N_19  and  C_26
REMARK    5  A    between atoms: C_26  and  C_29
REMARK                            x       y       z     vdW  Elec       q    Type
REMARK                         _______ _______ _______ _____ _____    ______ ____
ROOT
ATOM      1  O   UNL     1      34.537 -17.462 -22.153  0.00  0.00    -0.479 OA
ENDROOT
BRANCH   1   6
ATOM      2  N   UNL     1      33.028 -13.213 -23.926  0.00  0.00    -0.332 NA
ATOM      3  N   UNL     1      33.290 -15.060 -25.451  0.00  0.00    -0.317 NA
ATOM      4  N   UNL     1      34.010 -17.152 -24.714  0.00  0.00    -0.335 N 
ATOM      5  N   UNL     1      32.565 -12.967 -26.213  0.00  0.00    -0.283 N 
ATOM      6  C   UNL     1      34.184 -16.142 -22.022  0.00  0.00    +0.130 C 
ATOM      7  C   UNL     1      33.772 -15.337 -23.099  0.00  0.00    +0.177 C 
ATOM      8  C   UNL     1      34.251 -15.607 -20.740  0.00  0.00    +0.033 C 
ATOM      9  C   UNL     1      33.424 -13.991 -22.903  0.00  0.00    +0.137 C 
ATOM     10  C   UNL     1      33.682 -15.811 -24.405  0.00  0.00    +0.181 C 
ATOM     11  C   UNL     1      33.910 -14.275 -20.534  0.00  0.00    +0.005 C 
ATOM     12  C   UNL     1      33.500 -13.481 -21.610  0.00  0.00    +0.030 C 
ATOM     13  C   UNL     1      32.983 -13.789 -25.144  0.00  0.00    +0.197 C 
ATOM     14  H   UNL     1      33.942 -17.475 -25.641  0.00  0.00    +0.144 HD
ATOM     15  H   UNL     1      34.305 -17.763 -24.000  0.00  0.00    +0.144 HD
ATOM     16  H   UNL     1      32.327 -12.026 -26.045  0.00  0.00    +0.156 HD
ATOM     17  H   UNL     1      32.512 -13.333 -27.125  0.00  0.00    +0.156 HD
ENDBRANCH   1   6
BRANCH   1  18
ATOM     18  C   UNL     1      35.362 -18.010 -21.141  0.00  0.00    +0.205 C 
BRANCH  18  20
ATOM     19  N   UNL     1      33.844 -21.382 -18.910  0.00  0.00    +0.390 N 
ATOM     20  C   UNL     1      34.876 -19.424 -20.831  0.00  0.00    +0.040 C 
ATOM     21  C   UNL     1      33.423 -19.413 -20.347  0.00  0.00    -0.019 C 
ATOM     22  C   UNL     1      35.767 -20.093 -19.779  0.00  0.00    -0.019 C 
ATOM     23  C   UNL     1      32.962 -20.814 -19.938  0.00  0.00    -0.077 C 
ATOM     24  C   UNL     1      35.229 -21.471 -19.389  0.00  0.00    -0.077 C 
ATOM     25  H   UNL     1      33.829 -20.758 -18.102  0.00  0.00    -0.079 HD
BRANCH  19  26
ATOM     26  C   UNL     1      33.361 -22.698 -18.493  0.00  0.00    -0.049 C 
BRANCH  26  29
ATOM     27 CL   UNL     1      35.254 -23.056 -16.133  0.00  0.00    -0.082 Cl
ATOM     28 CL   UNL     1      33.854 -22.964 -13.243  0.00  0.00    -0.081 Cl
ATOM     29  C   UNL     1      32.764 -22.666 -17.111  0.00  0.00    -0.032 C 
ATOM     30  C   UNL     1      33.544 -22.819 -15.965  0.00  0.00    +0.062 C 
ATOM     31  C   UNL     1      31.387 -22.475 -16.997  0.00  0.00    -0.005 C 
ATOM     32  C   UNL     1      32.947 -22.782 -14.704  0.00  0.00    +0.068 C 
ATOM     33  C   UNL     1      30.790 -22.436 -15.737  0.00  0.00    +0.001 C 
ATOM     34  C   UNL     1      31.571 -22.590 -14.591  0.00  0.00    +0.012 C 
ENDBRANCH  26  29
ENDBRANCH  19  26
ENDBRANCH  18  20
ENDBRANCH   1  18
TORSDOF 5
ENDMDL
MODEL 4
REMARK VINA RESULT:     -12.6      2.016      3.303
REMARK  Name = 24978486
REMARK  5 active torsions:
REMARK  status: ('A' for Active; 'I' for Inactive)
REMARK    1  A    between atoms: O_1  and  C_6
REMARK    2  A    between atoms: O_1  and  C_18
REMARK    3  A    between atoms: C_18  and  C_20
REMARK    4  A    between atoms: N_19  and  C_26
REMARK    5  A    between atoms: C_26  and  C_29
REMARK                            x       y       z     vdW  Elec       q    Type
REMARK                         _______ _______ _______ _____ _____    ______ ____
ROOT
ATOM      1  O   UNL     1      33.385 -22.426 -16.911  0.00  0.00    -0.479 OA
ENDROOT
BRANCH   1   6
ATOM      2  N   UNL     1      33.919 -23.841 -12.307  0.00  0.00    -0.332 NA
ATOM      3  N   UNL     1      35.874 -23.117 -13.516  0.00  0.00    -0.317 NA
ATOM      4  N   UNL     1      35.740 -22.414 -15.735  0.00  0.00    -0.335 N 
ATOM      5  N   UNL     1      36.030 -23.819 -11.286  0.00  0.00    -0.283 N 
ATOM      6  C   UNL     1      32.901 -22.896 -15.716  0.00  0.00    +0.130 C 
ATOM      7  C   UNL     1      33.708 -23.130 -14.588  0.00  0.00    +0.177 C 
ATOM      8  C   UNL     1      31.534 -23.145 -15.655  0.00  0.00    +0.033 C 
ATOM      9  C   UNL     1      33.156 -23.614 -13.392  0.00  0.00    +0.137 C 
ATOM     10  C   UNL     1      35.081 -22.901 -14.582  0.00  0.00    +0.181 C 
ATOM     11  C   UNL     1      30.975 -23.625 -14.477  0.00  0.00    +0.005 C 
ATOM     12  C   UNL     1      31.785 -23.855 -13.359  0.00  0.00    +0.030 C 
ATOM     13  C   UNL     1      35.236 -23.580 -12.428  0.00  0.00    +0.197 C 
ATOM     14  H   UNL     1      36.711 -22.256 -15.717  0.00  0.00    +0.144 HD
ATOM     15  H   UNL     1      35.226 -22.232 -16.555  0.00  0.00    +0.144 HD
ATOM     16  H   UNL     1      35.615 -24.159 -10.460  0.00  0.00    +0.156 HD
ATOM     17  H   UNL     1      36.999 -23.646 -11.314  0.00  0.00    +0.156 HD
ENDBRANCH   1   6
BRANCH   1  18
ATOM     18  C   UNL     1      32.434 -22.123 -17.915  0.00  0.00    +0.205 C 
BRANCH  18  20
ATOM     19  N   UNL     1      34.570 -19.374 -20.471  0.00  0.00    +0.390 N 
ATOM     20  C   UNL     1      33.172 -21.576 -19.134  0.00  0.00    +0.040 C 
ATOM     21  C   UNL     1      34.607 -21.176 -18.776  0.00  0.00    -0.019 C 
ATOM     22  C   UNL     1      32.433 -20.374 -19.731  0.00  0.00    -0.019 C 
ATOM     23  C   UNL     1      35.319 -20.534 -19.969  0.00  0.00    -0.077 C 
ATOM     24  C   UNL     1      33.217 -19.759 -20.892  0.00  0.00    -0.077 C 
ATOM     25  H   UNL     1      34.485 -18.701 -19.710  0.00  0.00    -0.079 HD
BRANCH  19  26
ATOM     26  C   UNL     1      35.289 -18.742 -21.577  0.00  0.00    -0.049 C 
BRANCH  26  29
ATOM     27 CL   UNL     1      34.355 -18.226 -24.431  0.00  0.00    -0.082 Cl
ATOM     28 CL   UNL     1      33.209 -15.274 -24.972  0.00  0.00    -0.081 Cl
ATOM     29  C   UNL     1      34.742 -17.375 -21.894  0.00  0.00    -0.032 C 
ATOM     30  C   UNL     1      34.288 -17.038 -23.169  0.00  0.00    +0.062 C 
ATOM     31  C   UNL     1      34.696 -16.434 -20.866  0.00  0.00    -0.005 C 
ATOM     32  C   UNL     1      33.788 -15.759 -23.416  0.00  0.00    +0.068 C 
ATOM     33  C   UNL     1      34.196 -15.155 -21.113  0.00  0.00    +0.001 C 
ATOM     34  C   UNL     1      33.742 -14.818 -22.388  0.00  0.00    +0.012 C 
ENDBRANCH  26  29
ENDBRANCH  19  26
ENDBRANCH  18  20
ENDBRANCH   1  18
TORSDOF 5
ENDMDL
MODEL 5
REMARK VINA RESULT:     -12.1      4.348      9.771
REMARK  Name = 24978486
REMARK  5 active torsions:
REMARK  status: ('A' for Active; 'I' for Inactive)
REMARK    1  A    between atoms: O_1  and  C_6
REMARK    2  A    between atoms: O_1  and  C_18
REMARK    3  A    between atoms: C_18  and  C_20
REMARK    4  A    between atoms: N_19  and  C_26
REMARK    5  A    between atoms: C_26  and  C_29
REMARK                            x       y       z     vdW  Elec       q    Type
REMARK                         _______ _______ _______ _____ _____    ______ ____
ROOT
ATOM      1  O   UNL     1      34.650 -16.511 -21.742  0.00  0.00    -0.479 OA
ENDROOT
BRANCH   1   6
ATOM      2  N   UNL     1      32.356 -12.553 -23.341  0.00  0.00    -0.332 NA
ATOM      3  N   UNL     1      32.728 -12.782 -20.971  0.00  0.00    -0.317 NA
ATOM      4  N   UNL     1      33.820 -14.642 -20.085  0.00  0.00    -0.335 N 
ATOM      5  N   UNL     1      31.628 -10.904 -21.840  0.00  0.00    -0.283 N 
ATOM      6  C   UNL     1      34.124 -15.724 -22.736  0.00  0.00    +0.130 C 
ATOM      7  C   UNL     1      33.487 -14.494 -22.498  0.00  0.00    +0.177 C 
ATOM      8  C   UNL     1      34.246 -16.203 -24.036  0.00  0.00    +0.033 C 
ATOM      9  C   UNL     1      32.967 -13.732 -23.557  0.00  0.00    +0.137 C 
ATOM     10  C   UNL     1      33.333 -13.957 -21.223  0.00  0.00    +0.181 C 
ATOM     11  C   UNL     1      33.735 -15.459 -25.093  0.00  0.00    +0.005 C 
ATOM     12  C   UNL     1      33.103 -14.236 -24.848  0.00  0.00    +0.030 C 
ATOM     13  C   UNL     1      32.270 -12.142 -22.059  0.00  0.00    +0.197 C 
ATOM     14  H   UNL     1      33.705 -14.252 -19.189  0.00  0.00    +0.144 HD
ATOM     15  H   UNL     1      34.275 -15.508 -20.190  0.00  0.00    +0.144 HD
ATOM     16  H   UNL     1      31.273 -10.392 -22.602  0.00  0.00    +0.156 HD
ATOM     17  H   UNL     1      31.536 -10.552 -20.925  0.00  0.00    +0.156 HD
ENDBRANCH   1   6
BRANCH   1  18
ATOM     18  C   UNL     1      35.656 -17.435 -22.117  0.00  0.00    +0.205 C 
BRANCH  18  20
ATOM     19  N   UNL     1      34.563 -20.508 -19.286  0.00  0.00    +0.390 N 
ATOM     20  C   UNL     1      35.287 -18.807 -21.561  0.00  0.00    +0.040 C 
ATOM     21  C   UNL     1      33.889 -18.791 -20.935  0.00  0.00    -0.019 C 
ATOM     22  C   UNL     1      36.314 -19.275 -20.524  0.00  0.00    -0.019 C 
ATOM     23  C   UNL     1      33.554 -20.137 -20.287  0.00  0.00    -0.077 C 
ATOM     24  C   UNL     1      35.899 -20.603 -19.890  0.00  0.00    -0.077 C 
ATOM     25  H   UNL     1      34.589 -19.774 -18.577  0.00  0.00    -0.079 HD
BRANCH  19  26
ATOM     26  C   UNL     1      34.202 -21.769 -18.639  0.00  0.00    -0.049 C 
BRANCH  26  29
ATOM     27 CL   UNL     1      32.655 -23.029 -16.337  0.00  0.00    -0.082 Cl
ATOM     28 CL   UNL     1      34.321 -23.379 -13.612  0.00  0.00    -0.081 Cl
ATOM     29  C   UNL     1      34.929 -21.959 -17.334  0.00  0.00    -0.032 C 
ATOM     30  C   UNL     1      34.310 -22.526 -16.220  0.00  0.00    +0.062 C 
ATOM     31  C   UNL     1      36.260 -21.549 -17.260  0.00  0.00    -0.005 C 
ATOM     32  C   UNL     1      35.024 -22.683 -15.031  0.00  0.00    +0.068 C 
ATOM     33  C   UNL     1      36.973 -21.706 -16.072  0.00  0.00    +0.001 C 
ATOM     34  C   UNL     1      36.355 -22.273 -14.957  0.00  0.00    +0.012 C 
ENDBRANCH  26  29
ENDBRANCH  19  26
ENDBRANCH  18  20
ENDBRANCH   1  18
TORSDOF 5
ENDMDL
MODEL 6
REMARK VINA RESULT:     -12.0      4.441      9.711
REMARK  Name = 24978486
REMARK  5 active torsions:
REMARK  status: ('A' for Active; 'I' for Inactive)
REMARK    1  A    between atoms: O_1  and  C_6
REMARK    2  A    between atoms: O_1  and  C_18
REMARK    3  A    between atoms: C_18  and  C_20
REMARK    4  A    between atoms: N_19  and  C_26
REMARK    5  A    between atoms: C_26  and  C_29
REMARK                            x       y       z     vdW  Elec       q    Type
REMARK                         _______ _______ _______ _____ _____    ______ ____
ROOT
ATOM      1  O   UNL     1      34.346 -15.893 -22.835  0.00  0.00    -0.479 OA
ENDROOT
BRANCH   1   6
ATOM      2  N   UNL     1      31.901 -11.731 -22.421  0.00  0.00    -0.332 NA
ATOM      3  N   UNL     1      32.579 -12.865 -20.406  0.00  0.00    -0.317 NA
ATOM      4  N   UNL     1      33.760 -14.873 -20.480  0.00  0.00    -0.335 N 
ATOM      5  N   UNL     1      31.392 -10.847 -20.309  0.00  0.00    -0.283 N 
ATOM      6  C   UNL     1      33.702 -14.800 -23.358  0.00  0.00    +0.130 C 
ATOM      7  C   UNL     1      33.114 -13.794 -22.572  0.00  0.00    +0.177 C 
ATOM      8  C   UNL     1      33.647 -14.718 -24.746  0.00  0.00    +0.033 C 
ATOM      9  C   UNL     1      32.466 -12.699 -23.165  0.00  0.00    +0.137 C 
ATOM     10  C   UNL     1      33.135 -13.816 -21.180  0.00  0.00    +0.181 C 
ATOM     11  C   UNL     1      33.008 -13.639 -25.345  0.00  0.00    +0.005 C 
ATOM     12  C   UNL     1      32.425 -12.642 -24.555  0.00  0.00    +0.030 C 
ATOM     13  C   UNL     1      31.987 -11.866 -21.083  0.00  0.00    +0.197 C 
ATOM     14  H   UNL     1      33.768 -14.877 -19.496  0.00  0.00    +0.144 HD
ATOM     15  H   UNL     1      34.190 -15.606 -20.979  0.00  0.00    +0.144 HD
ATOM     16  H   UNL     1      30.945 -10.090 -20.752  0.00  0.00    +0.156 HD
ATOM     17  H   UNL     1      31.425 -10.891 -19.325  0.00  0.00    +0.156 HD
ENDBRANCH   1   6
BRANCH   1  18
ATOM     18  C   UNL     1      34.202 -17.118 -23.531  0.00  0.00    +0.205 C 
BRANCH  18  20
ATOM     19  N   UNL     1      35.333 -19.602 -20.183  0.00  0.00    +0.390 N 
ATOM     20  C   UNL     1      34.895 -18.217 -22.729  0.00  0.00    +0.040 C 
ATOM     21  C   UNL     1      33.875 -19.196 -22.140  0.00  0.00    -0.019 C 
ATOM     22  C   UNL     1      35.750 -17.622 -21.606  0.00  0.00    -0.019 C 
ATOM     23  C   UNL     1      34.555 -20.241 -21.253  0.00  0.00    -0.077 C 
ATOM     24  C   UNL     1      36.368 -18.719 -20.736  0.00  0.00    -0.077 C 
ATOM     25  H   UNL     1      34.696 -19.031 -19.628  0.00  0.00    -0.079 HD
BRANCH  19  26
ATOM     26  C   UNL     1      35.934 -20.613 -19.314  0.00  0.00    -0.049 C 
BRANCH  26  29
ATOM     27 CL   UNL     1      36.836 -21.761 -16.640  0.00  0.00    -0.082 Cl
ATOM     28 CL   UNL     1      34.535 -23.237 -14.950  0.00  0.00    -0.081 Cl
ATOM     29  C   UNL     1      34.901 -21.318 -18.475  0.00  0.00    -0.032 C 
ATOM     30  C   UNL     1      35.211 -21.878 -17.236  0.00  0.00    +0.062 C 
ATOM     31  C   UNL     1      33.600 -21.402 -18.972  0.00  0.00    -0.005 C 
ATOM     32  C   UNL     1      34.221 -22.521 -16.494  0.00  0.00    +0.068 C 
ATOM     33  C   UNL     1      32.610 -22.044 -18.230  0.00  0.00    +0.001 C 
ATOM     34  C   UNL     1      32.920 -22.604 -16.990  0.00  0.00    +0.012 C 
ENDBRANCH  26  29
ENDBRANCH  19  26
ENDBRANCH  18  20
ENDBRANCH   1  18
TORSDOF 5
ENDMDL
MODEL 7
REMARK VINA RESULT:     -12.0      6.419     10.228
REMARK  Name = 24978486
REMARK  5 active torsions:
REMARK  status: ('A' for Active; 'I' for Inactive)
REMARK    1  A    between atoms: O_1  and  C_6
REMARK    2  A    between atoms: O_1  and  C_18
REMARK    3  A    between atoms: C_18  and  C_20
REMARK    4  A    between atoms: N_19  and  C_26
REMARK    5  A    between atoms: C_26  and  C_29
REMARK                            x       y       z     vdW  Elec       q    Type
REMARK                         _______ _______ _______ _____ _____    ______ ____
ROOT
ATOM      1  O   UNL     1      32.797 -12.566 -22.161  0.00  0.00    -0.479 OA
ENDROOT
BRANCH   1   6
ATOM      2  N   UNL     1      34.661 -16.988 -22.834  0.00  0.00    -0.332 NA
ATOM      3  N   UNL     1      34.605 -16.099 -20.595  0.00  0.00    -0.317 NA
ATOM      4  N   UNL     1      33.732 -13.983 -20.149  0.00  0.00    -0.335 N 
ATOM      5  N   UNL     1      35.487 -18.227 -21.021  0.00  0.00    -0.283 N 
ATOM      6  C   UNL     1      33.150 -13.634 -22.947  0.00  0.00    +0.130 C 
ATOM      7  C   UNL     1      33.748 -14.804 -22.447  0.00  0.00    +0.177 C 
ATOM      8  C   UNL     1      32.890 -13.514 -24.308  0.00  0.00    +0.033 C 
ATOM      9  C   UNL     1      34.089 -15.864 -23.302  0.00  0.00    +0.137 C 
ATOM     10  C   UNL     1      34.034 -14.988 -21.097  0.00  0.00    +0.181 C 
ATOM     11  C   UNL     1      33.224 -14.557 -25.166  0.00  0.00    +0.005 C 
ATOM     12  C   UNL     1      33.817 -15.718 -24.660  0.00  0.00    +0.030 C 
ATOM     13  C   UNL     1      34.888 -17.044 -21.506  0.00  0.00    +0.197 C 
ATOM     14  H   UNL     1      33.940 -14.126 -19.198  0.00  0.00    +0.144 HD
ATOM     15  H   UNL     1      33.313 -13.142 -20.441  0.00  0.00    +0.144 HD
ATOM     16  H   UNL     1      35.715 -18.954 -21.645  0.00  0.00    +0.156 HD
ATOM     17  H   UNL     1      35.676 -18.326 -20.060  0.00  0.00    +0.156 HD
ENDBRANCH   1   6
BRANCH   1  18
ATOM     18  C   UNL     1      31.455 -12.513 -21.714  0.00  0.00    +0.205 C 
BRANCH  18  20
ATOM     19  N   UNL     1      31.843  -8.277 -20.965  0.00  0.00    +0.390 N 
ATOM     20  C   UNL     1      31.067 -11.051 -21.510  0.00  0.00    +0.040 C 
ATOM     21  C   UNL     1      31.718 -10.156 -22.570  0.00  0.00    -0.019 C 
ATOM     22  C   UNL     1      31.461 -10.567 -20.111  0.00  0.00    -0.019 C 
ATOM     23  C   UNL     1      31.415  -8.678 -22.312  0.00  0.00    -0.077 C 
ATOM     24  C   UNL     1      31.167  -9.076 -19.935  0.00  0.00    -0.077 C 
ATOM     25  H   UNL     1      32.846  -8.449 -20.889  0.00  0.00    -0.079 HD
BRANCH  19  26
ATOM     26  C   UNL     1      31.594  -6.852 -20.753  0.00  0.00    -0.049 C 
BRANCH  26  29
ATOM     27 CL   UNL     1      29.716  -4.738 -21.887  0.00  0.00    -0.082 Cl
ATOM     28 CL   UNL     1      30.913  -3.028 -24.329  0.00  0.00    -0.081 Cl
ATOM     29  C   UNL     1      32.098  -6.017 -21.900  0.00  0.00    -0.032 C 
ATOM     30  C   UNL     1      31.317  -5.024 -22.491  0.00  0.00    +0.062 C 
ATOM     31  C   UNL     1      33.387  -6.262 -22.372  0.00  0.00    -0.005 C 
ATOM     32  C   UNL     1      31.826  -4.275 -23.552  0.00  0.00    +0.068 C 
ATOM     33  C   UNL     1      33.897  -5.513 -23.433  0.00  0.00    +0.001 C 
ATOM     34  C   UNL     1      33.115  -4.520 -24.023  0.00  0.00    +0.012 C 
ENDBRANCH  26  29
ENDBRANCH  19  26
ENDBRANCH  18  20
ENDBRANCH   1  18
TORSDOF 5
ENDMDL
MODEL 8
REMARK VINA RESULT:     -11.7      2.287      3.278
REMARK  Name = 24978486
REMARK  5 active torsions:
REMARK  status: ('A' for Active; 'I' for Inactive)
REMARK    1  A    between atoms: O_1  and  C_6
REMARK    2  A    between atoms: O_1  and  C_18
REMARK    3  A    between atoms: C_18  and  C_20
REMARK    4  A    between atoms: N_19  and  C_26
REMARK    5  A    between atoms: C_26  and  C_29
REMARK                            x       y       z     vdW  Elec       q    Type
REMARK                         _______ _______ _______ _____ _____    ______ ____
ROOT
ATOM      1  O   UNL     1      34.405 -22.010 -17.899  0.00  0.00    -0.479 OA
ENDROOT
BRANCH   1   6
ATOM      2  N   UNL     1      35.193 -23.186 -13.264  0.00  0.00    -0.332 NA
ATOM      3  N   UNL     1      37.060 -22.427 -14.585  0.00  0.00    -0.317 NA
ATOM      4  N   UNL     1      36.803 -21.833 -16.825  0.00  0.00    -0.335 N 
ATOM      5  N   UNL     1      37.341 -23.018 -12.335  0.00  0.00    -0.283 N 
ATOM      6  C   UNL     1      33.994 -22.448 -16.664  0.00  0.00    +0.130 C 
ATOM      7  C   UNL     1      34.856 -22.592 -15.563  0.00  0.00    +0.177 C 
ATOM      8  C   UNL     1      32.644 -22.758 -16.535  0.00  0.00    +0.033 C 
ATOM      9  C   UNL     1      34.377 -23.046 -14.324  0.00  0.00    +0.137 C 
ATOM     10  C   UNL     1      36.215 -22.297 -15.625  0.00  0.00    +0.181 C 
ATOM     11  C   UNL     1      32.157 -23.210 -15.314  0.00  0.00    +0.005 C 
ATOM     12  C   UNL     1      33.022 -23.350 -14.223  0.00  0.00    +0.030 C 
ATOM     13  C   UNL     1      36.490 -22.869 -13.452  0.00  0.00    +0.197 C 
ATOM     14  H   UNL     1      37.765 -21.628 -16.856  0.00  0.00    +0.144 HD
ATOM     15  H   UNL     1      36.247 -21.713 -17.630  0.00  0.00    +0.144 HD
ATOM     16  H   UNL     1      36.976 -23.339 -11.479  0.00  0.00    +0.156 HD
ATOM     17  H   UNL     1      38.298 -22.800 -12.412  0.00  0.00    +0.156 HD
ENDBRANCH   1   6
BRANCH   1  18
ATOM     18  C   UNL     1      33.399 -21.581 -18.797  0.00  0.00    +0.205 C 
BRANCH  18  20
ATOM     19  N   UNL     1      34.954 -18.401 -21.273  0.00  0.00    +0.390 N 
ATOM     20  C   UNL     1      34.067 -20.875 -19.974  0.00  0.00    +0.040 C 
ATOM     21  C   UNL     1      35.316 -20.113 -19.522  0.00  0.00    -0.019 C 
ATOM     22  C   UNL     1      33.094 -19.913 -20.663  0.00  0.00    -0.019 C 
ATOM     23  C   UNL     1      35.933 -19.321 -20.679  0.00  0.00    -0.077 C 
ATOM     24  C   UNL     1      33.784 -19.129 -21.781  0.00  0.00    -0.077 C 
ATOM     25  H   UNL     1      34.636 -17.764 -20.542  0.00  0.00    -0.079 HD
BRANCH  19  26
ATOM     26  C   UNL     1      35.572 -17.617 -22.341  0.00  0.00    -0.049 C 
BRANCH  26  29
ATOM     27 CL   UNL     1      34.487 -15.762 -20.181  0.00  0.00    -0.082 Cl
ATOM     28 CL   UNL     1      32.628 -13.371 -21.253  0.00  0.00    -0.081 Cl
ATOM     29  C   UNL     1      34.693 -16.476 -22.780  0.00  0.00    -0.032 C 
ATOM     30  C   UNL     1      34.147 -15.571 -21.871  0.00  0.00    +0.062 C 
ATOM     31  C   UNL     1      34.431 -16.339 -24.143  0.00  0.00    -0.005 C 
ATOM     32  C   UNL     1      33.338 -14.529 -22.325  0.00  0.00    +0.068 C 
ATOM     33  C   UNL     1      33.623 -15.297 -24.597  0.00  0.00    +0.001 C 
ATOM     34  C   UNL     1      33.076 -14.392 -23.688  0.00  0.00    +0.012 C 
ENDBRANCH  26  29
ENDBRANCH  19  26
ENDBRANCH  18  20
ENDBRANCH   1  18
TORSDOF 5
ENDMDL
MODEL 9
REMARK VINA RESULT:     -11.7      6.322     10.360
REMARK  Name = 24978486
REMARK  5 active torsions:
REMARK  status: ('A' for Active; 'I' for Inactive)
REMARK    1  A    between atoms: O_1  and  C_6
REMARK    2  A    between atoms: O_1  and  C_18
REMARK    3  A    between atoms: C_18  and  C_20
REMARK    4  A    between atoms: N_19  and  C_26
REMARK    5  A    between atoms: C_26  and  C_29
REMARK                            x       y       z     vdW  Elec       q    Type
REMARK                         _______ _______ _______ _____ _____    ______ ____
ROOT
ATOM      1  O   UNL     1      32.673 -12.295 -22.291  0.00  0.00    -0.479 OA
ENDROOT
BRANCH   1   6
ATOM      2  N   UNL     1      34.586 -16.718 -22.801  0.00  0.00    -0.332 NA
ATOM      3  N   UNL     1      34.471 -15.769 -20.589  0.00  0.00    -0.317 NA
ATOM      4  N   UNL     1      33.571 -13.650 -20.220  0.00  0.00    -0.335 N 
ATOM      5  N   UNL     1      35.378 -17.901 -20.937  0.00  0.00    -0.283 N 
ATOM      6  C   UNL     1      33.053 -13.380 -23.040  0.00  0.00    +0.130 C 
ATOM      7  C   UNL     1      33.648 -14.532 -22.495  0.00  0.00    +0.177 C 
ATOM      8  C   UNL     1      32.824 -13.299 -24.410  0.00  0.00    +0.033 C 
ATOM      9  C   UNL     1      34.017 -15.611 -23.313  0.00  0.00    +0.137 C 
ATOM     10  C   UNL     1      33.903 -14.677 -21.134  0.00  0.00    +0.181 C 
ATOM     11  C   UNL     1      33.186 -14.361 -25.231  0.00  0.00    +0.005 C 
ATOM     12  C   UNL     1      33.776 -15.503 -24.680  0.00  0.00    +0.030 C 
ATOM     13  C   UNL     1      34.782 -16.737 -21.468  0.00  0.00    +0.197 C 
ATOM     14  H   UNL     1      33.757 -13.765 -19.261  0.00  0.00    +0.144 HD
ATOM     15  H   UNL     1      33.153 -12.820 -20.545  0.00  0.00    +0.144 HD
ATOM     16  H   UNL     1      35.627 -18.643 -21.536  0.00  0.00    +0.156 HD
ATOM     17  H   UNL     1      35.545 -17.973 -19.969  0.00  0.00    +0.156 HD
ENDBRANCH   1   6
BRANCH   1  18
ATOM     18  C   UNL     1      31.324 -12.250 -21.863  0.00  0.00    +0.205 C 
BRANCH  18  20
ATOM     19  N   UNL     1      31.751  -8.030 -21.047  0.00  0.00    +0.390 N 
ATOM     20  C   UNL     1      30.948 -10.794 -21.597  0.00  0.00    +0.040 C 
ATOM     21  C   UNL     1      31.513  -9.872 -22.681  0.00  0.00    -0.019 C 
ATOM     22  C   UNL     1      31.443 -10.340 -20.220  0.00  0.00    -0.019 C 
ATOM     23  C   UNL     1      31.225  -8.402 -22.367  0.00  0.00    -0.077 C 
ATOM     24  C   UNL     1      31.157  -8.856 -19.988  0.00  0.00    -0.077 C 
ATOM     25  H   UNL     1      32.757  -8.197 -21.050  0.00  0.00    -0.079 HD
BRANCH  19  26
ATOM     26  C   UNL     1      31.513  -6.611 -20.784  0.00  0.00    -0.049 C 
BRANCH  26  29
ATOM     27 CL   UNL     1      34.240  -6.388 -22.124  0.00  0.00    -0.082 Cl
ATOM     28 CL   UNL     1      34.300  -4.597 -24.791  0.00  0.00    -0.081 Cl
ATOM     29  C   UNL     1      31.606  -5.784 -22.038  0.00  0.00    -0.032 C 
ATOM     30  C   UNL     1      32.808  -5.619 -22.727  0.00  0.00    +0.062 C 
ATOM     31  C   UNL     1      30.443  -5.173 -22.508  0.00  0.00    -0.005 C 
ATOM     32  C   UNL     1      32.846  -4.843 -23.887  0.00  0.00    +0.068 C 
ATOM     33  C   UNL     1      30.481  -4.398 -23.667  0.00  0.00    +0.001 C 
ATOM     34  C   UNL     1      31.683  -4.233 -24.356  0.00  0.00    +0.012 C 
ENDBRANCH  26  29
ENDBRANCH  19  26
ENDBRANCH  18  20
ENDBRANCH   1  18
TORSDOF 5
ENDMDL
