MODEL 1
REMARK VINA RESULT:     -12.4      0.000      0.000
REMARK  Name = 6852141
REMARK  6 active torsions:
REMARK  status: ('A' for Active; 'I' for Inactive)
REMARK    1  A    between atoms: C_3  and  N_18
REMARK    2  A    between atoms: C_7  and  C_31
REMARK    3  A    between atoms: C_9  and  C_13
REMARK    4  A    between atoms: C_19  and  C_21
REMARK    5  A    between atoms: C_24  and  O_28
REMARK    6  A    between atoms: C_31  and  O_32
REMARK                            x       y       z     vdW  Elec       q    Type
REMARK                         _______ _______ _______ _____ _____    ______ ____
ROOT
ATOM      1  C   UNL     1      31.445 -23.337 -15.109  0.00  0.00    +0.014 C 
ATOM      2  C   UNL     1      31.280 -24.121 -13.943  0.00  0.00    +0.001 C 
ATOM      3  C   UNL     1      32.729 -22.883 -15.455  0.00  0.00    +0.051 C 
ATOM      4  C   UNL     1      30.323 -23.030 -15.895  0.00  0.00    +0.004 C 
ATOM      5  C   UNL     1      32.402 -24.428 -13.156  0.00  0.00    +0.007 C 
ATOM      6  C   UNL     1      33.833 -23.199 -14.662  0.00  0.00    +0.021 C 
ATOM      7  C   UNL     1      33.670 -23.970 -13.515  0.00  0.00    +0.077 C 
ATOM      8  C   UNL     1      29.996 -24.574 -13.596  0.00  0.00    +0.000 C 
ATOM      9  C   UNL     1      29.056 -23.489 -15.536  0.00  0.00    +0.031 C 
ATOM     10  C   UNL     1      28.893 -24.260 -14.389  0.00  0.00    +0.003 C 
ENDROOT
BRANCH   9  13
ATOM     11  N   UNL     1      27.322 -21.896 -16.326  0.00  0.00    -0.343 N 
ATOM     12  N   UNL     1      27.387 -24.077 -17.163  0.00  0.00    -0.285 NA
ATOM     13  C   UNL     1      27.904 -23.162 -16.362  0.00  0.00    +0.117 C 
ATOM     14  H   UNL     1      26.543 -21.696 -16.894  0.00  0.00    +0.144 HD
ATOM     15  H   UNL     1      27.691 -21.202 -15.733  0.00  0.00    +0.144 HD
ATOM     16  H   UNL     1      26.608 -23.859 -17.722  0.00  0.00    +0.188 HD
ENDBRANCH   9  13
BRANCH   3  18
ATOM     17  O   UNL     1      33.252 -23.704 -18.290  0.00  0.00    -0.270 OA
ATOM     18  N   UNL     1      32.954 -22.104 -16.597  0.00  0.00    -0.280 N 
ATOM     19  C   UNL     1      33.194 -22.543 -17.901  0.00  0.00    +0.249 C 
ATOM     20  H   UNL     1      32.942 -21.129 -16.463  0.00  0.00    +0.155 HD
BRANCH  19  21
ATOM     21  C   UNL     1      33.427 -21.466 -18.899  0.00  0.00    +0.053 C 
ATOM     22  C   UNL     1      34.698 -20.971 -19.103  0.00  0.00    +0.016 C 
ATOM     23  C   UNL     1      32.334 -20.993 -19.599  0.00  0.00    +0.004 C 
ATOM     24  C   UNL     1      34.887 -19.961 -20.046  0.00  0.00    +0.130 C 
ATOM     25  C   UNL     1      35.871 -21.496 -18.336  0.00  0.00    +0.034 C 
ATOM     26  C   UNL     1      32.523 -19.982 -20.541  0.00  0.00    +0.003 C 
ATOM     27  C   UNL     1      33.799 -19.467 -20.765  0.00  0.00    +0.036 C 
BRANCH  24  28
ATOM     28  O   UNL     1      36.127 -19.445 -20.279  0.00  0.00    -0.506 OA
ATOM     29  H   UNL     1      36.564 -18.956 -19.610  0.00  0.00    +0.292 HD
ENDBRANCH  24  28
ENDBRANCH  19  21
ENDBRANCH   3  18
BRANCH   7  31
ATOM     30  O   UNL     1      35.955 -24.535 -13.131  0.00  0.00    -0.245 OA
ATOM     31  C   UNL     1      34.823 -24.297 -12.689  0.00  0.00    +0.341 C 
BRANCH  31  32
ATOM     32  O   UNL     1      34.502 -24.309 -11.359  0.00  0.00    -0.441 OA
ATOM     33  C   UNL     1      35.486 -23.800 -10.452  0.00  0.00    +0.256 C 
ENDBRANCH  31  32
ENDBRANCH   7  31
TORSDOF 6
ENDMDL
MODEL 2
REMARK VINA RESULT:     -12.0      2.486      5.020
REMARK  Name = 6852141
REMARK  6 active torsions:
REMARK  status: ('A' for Active; 'I' for Inactive)
REMARK    1  A    between atoms: C_3  and  N_18
REMARK    2  A    between atoms: C_7  and  C_31
REMARK    3  A    between atoms: C_9  and  C_13
REMARK    4  A    between atoms: C_19  and  C_21
REMARK    5  A    between atoms: C_24  and  O_28
REMARK    6  A    between atoms: C_31  and  O_32
REMARK                            x       y       z     vdW  Elec       q    Type
REMARK                         _______ _______ _______ _____ _____    ______ ____
ROOT
ATOM      1  C   UNL     1      32.991 -23.023 -15.222  0.00  0.00    +0.014 C 
ATOM      2  C   UNL     1      32.456 -23.819 -14.182  0.00  0.00    +0.001 C 
ATOM      3  C   UNL     1      32.138 -22.549 -16.232  0.00  0.00    +0.051 C 
ATOM      4  C   UNL     1      34.363 -22.724 -15.221  0.00  0.00    +0.004 C 
ATOM      5  C   UNL     1      31.084 -24.118 -14.181  0.00  0.00    +0.007 C 
ATOM      6  C   UNL     1      30.777 -22.855 -16.216  0.00  0.00    +0.021 C 
ATOM      7  C   UNL     1      30.251 -23.639 -15.193  0.00  0.00    +0.077 C 
ATOM      8  C   UNL     1      33.309 -24.293 -13.172  0.00  0.00    +0.000 C 
ATOM      9  C   UNL     1      35.196 -23.203 -14.210  0.00  0.00    +0.031 C 
ATOM     10  C   UNL     1      34.670 -23.986 -13.186  0.00  0.00    +0.003 C 
ENDROOT
BRANCH   9  13
ATOM     11  N   UNL     1      37.363 -22.960 -15.397  0.00  0.00    -0.343 N 
ATOM     12  N   UNL     1      37.218 -22.515 -13.107  0.00  0.00    -0.285 NA
ATOM     13  C   UNL     1      36.614 -22.883 -14.224  0.00  0.00    +0.117 C 
ATOM     14  H   UNL     1      38.322 -22.739 -15.384  0.00  0.00    +0.144 HD
ATOM     15  H   UNL     1      36.932 -23.236 -16.238  0.00  0.00    +0.144 HD
ATOM     16  H   UNL     1      38.178 -22.298 -13.114  0.00  0.00    +0.188 HD
ENDBRANCH   9  13
BRANCH   3  18
ATOM     17  O   UNL     1      33.323 -23.343 -18.869  0.00  0.00    -0.270 OA
ATOM     18  N   UNL     1      32.611 -21.758 -17.287  0.00  0.00    -0.280 N 
ATOM     19  C   UNL     1      33.157 -22.186 -18.501  0.00  0.00    +0.249 C 
ATOM     20  H   UNL     1      32.553 -20.784 -17.157  0.00  0.00    +0.155 HD
BRANCH  19  21
ATOM     21  C   UNL     1      33.598 -21.098 -19.413  0.00  0.00    +0.053 C 
ATOM     22  C   UNL     1      34.913 -20.679 -19.408  0.00  0.00    +0.016 C 
ATOM     23  C   UNL     1      32.653 -20.539 -20.250  0.00  0.00    +0.004 C 
ATOM     24  C   UNL     1      35.299 -19.657 -20.276  0.00  0.00    +0.130 C 
ATOM     25  C   UNL     1      35.925 -21.297 -18.496  0.00  0.00    +0.034 C 
ATOM     26  C   UNL     1      33.039 -19.516 -21.117  0.00  0.00    +0.003 C 
ATOM     27  C   UNL     1      34.362 -19.076 -21.129  0.00  0.00    +0.036 C 
BRANCH  24  28
ATOM     28  O   UNL     1      36.588 -19.213 -20.304  0.00  0.00    -0.506 OA
ATOM     29  H   UNL     1      36.915 -18.774 -21.064  0.00  0.00    +0.292 HD
ENDBRANCH  24  28
ENDBRANCH  19  21
ENDBRANCH   3  18
BRANCH   7  31
ATOM     30  O   UNL     1      28.310 -24.798 -14.433  0.00  0.00    -0.245 OA
ATOM     31  C   UNL     1      28.832 -23.958 -15.179  0.00  0.00    +0.341 C 
BRANCH  31  32
ATOM     32  O   UNL     1      28.140 -23.213 -16.094  0.00  0.00    -0.441 OA
ATOM     33  C   UNL     1      27.135 -22.330 -15.583  0.00  0.00    +0.256 C 
ENDBRANCH  31  32
ENDBRANCH   7  31
TORSDOF 6
ENDMDL
MODEL 3
REMARK VINA RESULT:     -11.9      2.483      5.306
REMARK  Name = 6852141
REMARK  6 active torsions:
REMARK  status: ('A' for Active; 'I' for Inactive)
REMARK    1  A    between atoms: C_3  and  N_18
REMARK    2  A    between atoms: C_7  and  C_31
REMARK    3  A    between atoms: C_9  and  C_13
REMARK    4  A    between atoms: C_19  and  C_21
REMARK    5  A    between atoms: C_24  and  O_28
REMARK    6  A    between atoms: C_31  and  O_32
REMARK                            x       y       z     vdW  Elec       q    Type
REMARK                         _______ _______ _______ _____ _____    ______ ____
ROOT
ATOM      1  C   UNL     1      31.659 -23.083 -15.263  0.00  0.00    +0.014 C 
ATOM      2  C   UNL     1      30.660 -23.701 -14.476  0.00  0.00    +0.001 C 
ATOM      3  C   UNL     1      31.291 -22.425 -16.448  0.00  0.00    +0.051 C 
ATOM      4  C   UNL     1      32.998 -23.141 -14.844  0.00  0.00    +0.004 C 
ATOM      5  C   UNL     1      29.320 -23.643 -14.894  0.00  0.00    +0.007 C 
ATOM      6  C   UNL     1      29.955 -22.377 -16.849  0.00  0.00    +0.021 C 
ATOM      7  C   UNL     1      28.972 -22.985 -16.074  0.00  0.00    +0.077 C 
ATOM      8  C   UNL     1      31.028 -24.360 -13.291  0.00  0.00    +0.000 C 
ATOM      9  C   UNL     1      33.346 -23.799 -13.664  0.00  0.00    +0.031 C 
ATOM     10  C   UNL     1      32.363 -24.407 -12.889  0.00  0.00    +0.003 C 
ENDROOT
BRANCH   9  13
ATOM     11  N   UNL     1      35.409 -25.063 -13.102  0.00  0.00    -0.343 N 
ATOM     12  N   UNL     1      35.388 -22.729 -12.983  0.00  0.00    -0.285 NA
ATOM     13  C   UNL     1      34.737 -23.850 -13.244  0.00  0.00    +0.117 C 
ATOM     14  H   UNL     1      36.350 -25.074 -12.816  0.00  0.00    +0.144 HD
ATOM     15  H   UNL     1      34.940 -25.909 -13.288  0.00  0.00    +0.144 HD
ATOM     16  H   UNL     1      36.329 -22.761 -12.698  0.00  0.00    +0.188 HD
ENDBRANCH   9  13
BRANCH   3  18
ATOM     17  O   UNL     1      33.113 -23.572 -18.534  0.00  0.00    -0.270 OA
ATOM     18  N   UNL     1      32.236 -21.797 -17.269  0.00  0.00    -0.280 N 
ATOM     19  C   UNL     1      33.063 -22.386 -18.230  0.00  0.00    +0.249 C 
ATOM     20  H   UNL     1      32.329 -20.824 -17.154  0.00  0.00    +0.155 HD
BRANCH  19  21
ATOM     21  C   UNL     1      33.989 -21.453 -18.923  0.00  0.00    +0.053 C 
ATOM     22  C   UNL     1      33.507 -20.567 -19.864  0.00  0.00    +0.016 C 
ATOM     23  C   UNL     1      35.328 -21.512 -18.590  0.00  0.00    +0.004 C 
ATOM     24  C   UNL     1      34.401 -19.703 -20.499  0.00  0.00    +0.130 C 
ATOM     25  C   UNL     1      32.054 -20.515 -20.214  0.00  0.00    +0.034 C 
ATOM     26  C   UNL     1      36.221 -20.649 -19.225  0.00  0.00    +0.003 C 
ATOM     27  C   UNL     1      35.757 -19.745 -20.179  0.00  0.00    +0.036 C 
BRANCH  24  28
ATOM     28  O   UNL     1      33.966 -18.811 -21.434  0.00  0.00    -0.506 OA
ATOM     29  H   UNL     1      33.188 -18.311 -21.278  0.00  0.00    +0.292 HD
ENDBRANCH  24  28
ENDBRANCH  19  21
ENDBRANCH   3  18
BRANCH   7  31
ATOM     30  O   UNL     1      27.029 -23.791 -17.199  0.00  0.00    -0.245 OA
ATOM     31  C   UNL     1      27.580 -22.934 -16.495  0.00  0.00    +0.341 C 
BRANCH  31  32
ATOM     32  O   UNL     1      26.950 -21.817 -16.016  0.00  0.00    -0.441 OA
ATOM     33  C   UNL     1      25.958 -21.222 -16.859  0.00  0.00    +0.256 C 
ENDBRANCH  31  32
ENDBRANCH   7  31
TORSDOF 6
ENDMDL
MODEL 4
REMARK VINA RESULT:     -11.6      2.633      6.242
REMARK  Name = 6852141
REMARK  6 active torsions:
REMARK  status: ('A' for Active; 'I' for Inactive)
REMARK    1  A    between atoms: C_3  and  N_18
REMARK    2  A    between atoms: C_7  and  C_31
REMARK    3  A    between atoms: C_9  and  C_13
REMARK    4  A    between atoms: C_19  and  C_21
REMARK    5  A    between atoms: C_24  and  O_28
REMARK    6  A    between atoms: C_31  and  O_32
REMARK                            x       y       z     vdW  Elec       q    Type
REMARK                         _______ _______ _______ _____ _____    ______ ____
ROOT
ATOM      1  C   UNL     1      34.461 -21.987 -17.274  0.00  0.00    +0.014 C 
ATOM      2  C   UNL     1      35.845 -21.700 -17.333  0.00  0.00    +0.001 C 
ATOM      3  C   UNL     1      33.962 -22.746 -16.203  0.00  0.00    +0.051 C 
ATOM      4  C   UNL     1      33.617 -21.508 -18.289  0.00  0.00    +0.004 C 
ATOM      5  C   UNL     1      36.691 -22.179 -16.319  0.00  0.00    +0.007 C 
ATOM      6  C   UNL     1      34.816 -23.213 -15.204  0.00  0.00    +0.021 C 
ATOM      7  C   UNL     1      36.177 -22.931 -15.262  0.00  0.00    +0.077 C 
ATOM      8  C   UNL     1      36.345 -20.942 -18.405  0.00  0.00    +0.000 C 
ATOM      9  C   UNL     1      34.130 -20.756 -19.346  0.00  0.00    +0.031 C 
ATOM     10  C   UNL     1      35.492 -20.473 -19.403  0.00  0.00    +0.003 C 
ENDROOT
BRANCH   9  13
ATOM     11  N   UNL     1      33.728 -19.539 -21.473  0.00  0.00    -0.343 N 
ATOM     12  N   UNL     1      31.944 -20.504 -20.313  0.00  0.00    -0.285 NA
ATOM     13  C   UNL     1      33.242 -20.266 -20.388  0.00  0.00    +0.117 C 
ATOM     14  H   UNL     1      33.109 -19.217 -22.167  0.00  0.00    +0.144 HD
ATOM     15  H   UNL     1      34.692 -19.349 -21.545  0.00  0.00    +0.144 HD
ATOM     16  H   UNL     1      31.341 -20.174 -21.017  0.00  0.00    +0.188 HD
ENDBRANCH   9  13
BRANCH   3  18
ATOM     17  O   UNL     1      31.902 -21.788 -14.247  0.00  0.00    -0.270 OA
ATOM     18  N   UNL     1      32.602 -23.062 -16.093  0.00  0.00    -0.280 N 
ATOM     19  C   UNL     1      31.684 -22.582 -15.154  0.00  0.00    +0.249 C 
ATOM     20  H   UNL     1      32.252 -23.700 -16.755  0.00  0.00    +0.155 HD
BRANCH  19  21
ATOM     21  C   UNL     1      30.308 -23.132 -15.278  0.00  0.00    +0.053 C 
ATOM     22  C   UNL     1      29.903 -24.179 -14.475  0.00  0.00    +0.016 C 
ATOM     23  C   UNL     1      29.470 -22.558 -16.213  0.00  0.00    +0.004 C 
ATOM     24  C   UNL     1      28.607 -24.673 -14.613  0.00  0.00    +0.130 C 
ATOM     25  C   UNL     1      30.825 -24.788 -13.466  0.00  0.00    +0.034 C 
ATOM     26  C   UNL     1      28.173 -23.053 -16.351  0.00  0.00    +0.003 C 
ATOM     27  C   UNL     1      27.742 -24.110 -15.551  0.00  0.00    +0.036 C 
BRANCH  24  28
ATOM     28  O   UNL     1      28.166 -25.706 -13.840  0.00  0.00    -0.506 OA
ATOM     29  H   UNL     1      28.760 -26.144 -13.262  0.00  0.00    +0.292 HD
ENDBRANCH  24  28
ENDBRANCH  19  21
ENDBRANCH   3  18
BRANCH   7  31
ATOM     30  O   UNL     1      37.539 -24.565 -14.181  0.00  0.00    -0.245 OA
ATOM     31  C   UNL     1      37.066 -23.421 -14.219  0.00  0.00    +0.341 C 
BRANCH  31  32
ATOM     32  O   UNL     1      37.316 -22.459 -13.278  0.00  0.00    -0.441 OA
ATOM     33  C   UNL     1      36.730 -22.648 -11.986  0.00  0.00    +0.256 C 
ENDBRANCH  31  32
ENDBRANCH   7  31
TORSDOF 6
ENDMDL
MODEL 5
REMARK VINA RESULT:     -11.3      2.716      5.344
REMARK  Name = 6852141
REMARK  6 active torsions:
REMARK  status: ('A' for Active; 'I' for Inactive)
REMARK    1  A    between atoms: C_3  and  N_18
REMARK    2  A    between atoms: C_7  and  C_31
REMARK    3  A    between atoms: C_9  and  C_13
REMARK    4  A    between atoms: C_19  and  C_21
REMARK    5  A    between atoms: C_24  and  O_28
REMARK    6  A    between atoms: C_31  and  O_32
REMARK                            x       y       z     vdW  Elec       q    Type
REMARK                         _______ _______ _______ _____ _____    ______ ____
ROOT
ATOM      1  C   UNL     1      33.216 -22.936 -15.262  0.00  0.00    +0.014 C 
ATOM      2  C   UNL     1      32.497 -23.679 -14.297  0.00  0.00    +0.001 C 
ATOM      3  C   UNL     1      32.530 -22.392 -16.360  0.00  0.00    +0.051 C 
ATOM      4  C   UNL     1      34.600 -22.761 -15.103  0.00  0.00    +0.004 C 
ATOM      5  C   UNL     1      31.113 -23.856 -14.455  0.00  0.00    +0.007 C 
ATOM      6  C   UNL     1      31.154 -22.576 -16.502  0.00  0.00    +0.021 C 
ATOM      7  C   UNL     1      30.447 -23.307 -15.552  0.00  0.00    +0.077 C 
ATOM      8  C   UNL     1      33.184 -24.225 -13.199  0.00  0.00    +0.000 C 
ATOM      9  C   UNL     1      35.266 -23.309 -14.007  0.00  0.00    +0.031 C 
ATOM     10  C   UNL     1      34.559 -24.039 -13.056  0.00  0.00    +0.003 C 
ENDROOT
BRANCH   9  13
ATOM     11  N   UNL     1      37.587 -23.457 -14.875  0.00  0.00    -0.343 N 
ATOM     12  N   UNL     1      37.182 -22.613 -12.734  0.00  0.00    -0.285 NA
ATOM     13  C   UNL     1      36.699 -23.116 -13.856  0.00  0.00    +0.117 C 
ATOM     14  H   UNL     1      38.554 -23.318 -14.752  0.00  0.00    +0.144 HD
ATOM     15  H   UNL     1      37.247 -23.837 -15.718  0.00  0.00    +0.144 HD
ATOM     16  H   UNL     1      38.152 -22.482 -12.630  0.00  0.00    +0.188 HD
ENDBRANCH   9  13
BRANCH   3  18
ATOM     17  O   UNL     1      33.425 -23.187 -19.108  0.00  0.00    -0.270 OA
ATOM     18  N   UNL     1      33.188 -21.649 -17.348  0.00  0.00    -0.280 N 
ATOM     19  C   UNL     1      33.584 -22.075 -18.619  0.00  0.00    +0.249 C 
ATOM     20  H   UNL     1      33.398 -20.715 -17.119  0.00  0.00    +0.155 HD
BRANCH  19  21
ATOM     21  C   UNL     1      34.295 -21.055 -19.435  0.00  0.00    +0.053 C 
ATOM     22  C   UNL     1      33.588 -20.228 -20.284  0.00  0.00    +0.016 C 
ATOM     23  C   UNL     1      35.667 -20.974 -19.307  0.00  0.00    +0.004 C 
ATOM     24  C   UNL     1      34.281 -19.281 -21.037  0.00  0.00    +0.130 C 
ATOM     25  C   UNL     1      32.100 -20.329 -20.410  0.00  0.00    +0.034 C 
ATOM     26  C   UNL     1      36.361 -20.026 -20.060  0.00  0.00    +0.003 C 
ATOM     27  C   UNL     1      35.667 -19.180 -20.924  0.00  0.00    +0.036 C 
BRANCH  24  28
ATOM     28  O   UNL     1      33.621 -18.444 -21.886  0.00  0.00    -0.506 OA
ATOM     29  H   UNL     1      34.101 -17.820 -22.396  0.00  0.00    +0.292 HD
ENDBRANCH  24  28
ENDBRANCH  19  21
ENDBRANCH   3  18
BRANCH   7  31
ATOM     30  O   UNL     1      28.332 -24.269 -15.011  0.00  0.00    -0.245 OA
ATOM     31  C   UNL     1      29.013 -23.499 -15.702  0.00  0.00    +0.341 C 
BRANCH  31  32
ATOM     32  O   UNL     1      28.504 -22.721 -16.706  0.00  0.00    -0.441 OA
ATOM     33  C   UNL     1      27.216 -22.136 -16.482  0.00  0.00    +0.256 C 
ENDBRANCH  31  32
ENDBRANCH   7  31
TORSDOF 6
ENDMDL
MODEL 6
REMARK VINA RESULT:     -11.1      2.670      6.626
REMARK  Name = 6852141
REMARK  6 active torsions:
REMARK  status: ('A' for Active; 'I' for Inactive)
REMARK    1  A    between atoms: C_3  and  N_18
REMARK    2  A    between atoms: C_7  and  C_31
REMARK    3  A    between atoms: C_9  and  C_13
REMARK    4  A    between atoms: C_19  and  C_21
REMARK    5  A    between atoms: C_24  and  O_28
REMARK    6  A    between atoms: C_31  and  O_32
REMARK                            x       y       z     vdW  Elec       q    Type
REMARK                         _______ _______ _______ _____ _____    ______ ____
ROOT
ATOM      1  C   UNL     1      32.944 -22.790 -16.327  0.00  0.00    +0.014 C 
ATOM      2  C   UNL     1      31.938 -22.176 -17.110  0.00  0.00    +0.001 C 
ATOM      3  C   UNL     1      34.290 -22.647 -16.704  0.00  0.00    +0.051 C 
ATOM      4  C   UNL     1      32.576 -23.529 -15.192  0.00  0.00    +0.004 C 
ATOM      5  C   UNL     1      32.305 -21.437 -18.246  0.00  0.00    +0.007 C 
ATOM      6  C   UNL     1      34.637 -21.908 -17.836  0.00  0.00    +0.021 C 
ATOM      7  C   UNL     1      33.646 -21.305 -18.605  0.00  0.00    +0.077 C 
ATOM      8  C   UNL     1      30.592 -22.320 -16.733  0.00  0.00    +0.000 C 
ATOM      9  C   UNL     1      31.235 -23.661 -14.832  0.00  0.00    +0.031 C 
ATOM     10  C   UNL     1      30.245 -23.057 -15.601  0.00  0.00    +0.003 C 
ENDROOT
BRANCH   9  13
ATOM     11  N   UNL     1      29.566 -24.873 -13.450  0.00  0.00    -0.343 N 
ATOM     12  N   UNL     1      31.788 -24.715 -12.743  0.00  0.00    -0.285 NA
ATOM     13  C   UNL     1      30.871 -24.429 -13.652  0.00  0.00    +0.117 C 
ATOM     14  H   UNL     1      29.341 -25.392 -12.644  0.00  0.00    +0.144 HD
ATOM     15  H   UNL     1      28.868 -24.667 -14.114  0.00  0.00    +0.144 HD
ATOM     16  H   UNL     1      31.543 -25.234 -11.944  0.00  0.00    +0.188 HD
ENDBRANCH   9  13
BRANCH   3  18
ATOM     17  O   UNL     1      36.653 -21.392 -15.353  0.00  0.00    -0.270 OA
ATOM     18  N   UNL     1      35.329 -23.232 -15.970  0.00  0.00    -0.280 N 
ATOM     19  C   UNL     1      36.412 -22.594 -15.359  0.00  0.00    +0.249 C 
ATOM     20  H   UNL     1      35.292 -24.211 -15.874  0.00  0.00    +0.155 HD
BRANCH  19  21
ATOM     21  C   UNL     1      37.372 -23.496 -14.672  0.00  0.00    +0.053 C 
ATOM     22  C   UNL     1      37.047 -24.060 -13.455  0.00  0.00    +0.016 C 
ATOM     23  C   UNL     1      38.580 -23.741 -15.294  0.00  0.00    +0.004 C 
ATOM     24  C   UNL     1      37.968 -24.903 -12.833  0.00  0.00    +0.130 C 
ATOM     25  C   UNL     1      35.733 -23.784 -12.795  0.00  0.00    +0.034 C 
ATOM     26  C   UNL     1      39.501 -24.585 -14.672  0.00  0.00    +0.003 C 
ATOM     27  C   UNL     1      39.194 -25.165 -13.443  0.00  0.00    +0.036 C 
BRANCH  24  28
ATOM     28  O   UNL     1      37.686 -25.482 -11.631  0.00  0.00    -0.506 OA
ATOM     29  H   UNL     1      37.604 -26.413 -11.568  0.00  0.00    +0.292 HD
ENDBRANCH  24  28
ENDBRANCH  19  21
ENDBRANCH   3  18
BRANCH   7  31
ATOM     30  O   UNL     1      33.207 -20.145 -20.643  0.00  0.00    -0.245 OA
ATOM     31  C   UNL     1      34.011 -20.535 -19.785  0.00  0.00    +0.341 C 
BRANCH  31  32
ATOM     32  O   UNL     1      35.357 -20.293 -19.832  0.00  0.00    -0.441 OA
ATOM     33  C   UNL     1      35.787 -19.178 -20.620  0.00  0.00    +0.256 C 
ENDBRANCH  31  32
ENDBRANCH   7  31
TORSDOF 6
ENDMDL
MODEL 7
REMARK VINA RESULT:     -11.0      2.554      7.300
REMARK  Name = 6852141
REMARK  6 active torsions:
REMARK  status: ('A' for Active; 'I' for Inactive)
REMARK    1  A    between atoms: C_3  and  N_18
REMARK    2  A    between atoms: C_7  and  C_31
REMARK    3  A    between atoms: C_9  and  C_13
REMARK    4  A    between atoms: C_19  and  C_21
REMARK    5  A    between atoms: C_24  and  O_28
REMARK    6  A    between atoms: C_31  and  O_32
REMARK                            x       y       z     vdW  Elec       q    Type
REMARK                         _______ _______ _______ _____ _____    ______ ____
ROOT
ATOM      1  C   UNL     1      34.834 -22.742 -15.956  0.00  0.00    +0.014 C 
ATOM      2  C   UNL     1      36.135 -22.286 -16.273  0.00  0.00    +0.001 C 
ATOM      3  C   UNL     1      33.769 -22.433 -16.819  0.00  0.00    +0.051 C 
ATOM      4  C   UNL     1      34.634 -23.491 -14.786  0.00  0.00    +0.004 C 
ATOM      5  C   UNL     1      36.335 -21.536 -17.443  0.00  0.00    +0.007 C 
ATOM      6  C   UNL     1      33.986 -21.688 -17.978  0.00  0.00    +0.021 C 
ATOM      7  C   UNL     1      35.267 -21.239 -18.289  0.00  0.00    +0.077 C 
ATOM      8  C   UNL     1      37.199 -22.594 -15.409  0.00  0.00    +0.000 C 
ATOM      9  C   UNL     1      35.703 -23.788 -13.940  0.00  0.00    +0.031 C 
ATOM     10  C   UNL     1      36.983 -23.341 -14.251  0.00  0.00    +0.003 C 
ENDROOT
BRANCH   9  13
ATOM     11  N   UNL     1      36.378 -25.553 -12.328  0.00  0.00    -0.343 N 
ATOM     12  N   UNL     1      34.403 -24.348 -11.997  0.00  0.00    -0.285 NA
ATOM     13  C   UNL     1      35.479 -24.567 -12.732  0.00  0.00    +0.117 C 
ATOM     14  H   UNL     1      36.207 -26.068 -11.507  0.00  0.00    +0.144 HD
ATOM     15  H   UNL     1      37.184 -25.733 -12.865  0.00  0.00    +0.144 HD
ATOM     16  H   UNL     1      34.250 -24.874 -11.179  0.00  0.00    +0.188 HD
ENDBRANCH   9  13
BRANCH   3  18
ATOM     17  O   UNL     1      31.915 -21.718 -14.575  0.00  0.00    -0.270 OA
ATOM     18  N   UNL     1      32.460 -22.855 -16.557  0.00  0.00    -0.280 N 
ATOM     19  C   UNL     1      31.638 -22.487 -15.489  0.00  0.00    +0.249 C 
ATOM     20  H   UNL     1      32.072 -23.489 -17.204  0.00  0.00    +0.155 HD
BRANCH  19  21
ATOM     21  C   UNL     1      30.299 -23.132 -15.469  0.00  0.00    +0.053 C 
ATOM     22  C   UNL     1      30.059 -24.209 -14.640  0.00  0.00    +0.016 C 
ATOM     23  C   UNL     1      29.325 -22.615 -16.300  0.00  0.00    +0.004 C 
ATOM     24  C   UNL     1      28.793 -24.794 -14.642  0.00  0.00    +0.130 C 
ATOM     25  C   UNL     1      31.126 -24.756 -13.745  0.00  0.00    +0.034 C 
ATOM     26  C   UNL     1      28.059 -23.201 -16.302  0.00  0.00    +0.003 C 
ATOM     27  C   UNL     1      27.794 -24.290 -15.473  0.00  0.00    +0.036 C 
BRANCH  24  28
ATOM     28  O   UNL     1      28.514 -25.859 -13.838  0.00  0.00    -0.506 OA
ATOM     29  H   UNL     1      29.096 -26.593 -13.814  0.00  0.00    +0.292 HD
ENDBRANCH  24  28
ENDBRANCH  19  21
ENDBRANCH   3  18
BRANCH   7  31
ATOM     30  O   UNL     1      36.451 -19.699 -19.673  0.00  0.00    -0.245 OA
ATOM     31  C   UNL     1      35.490 -20.461 -19.498  0.00  0.00    +0.341 C 
BRANCH  31  32
ATOM     32  O   UNL     1      34.506 -20.675 -20.424  0.00  0.00    -0.441 OA
ATOM     33  C   UNL     1      33.938 -19.517 -21.044  0.00  0.00    +0.256 C 
ENDBRANCH  31  32
ENDBRANCH   7  31
TORSDOF 6
ENDMDL
MODEL 8
REMARK VINA RESULT:     -10.9      2.511      7.774
REMARK  Name = 6852141
REMARK  6 active torsions:
REMARK  status: ('A' for Active; 'I' for Inactive)
REMARK    1  A    between atoms: C_3  and  N_18
REMARK    2  A    between atoms: C_7  and  C_31
REMARK    3  A    between atoms: C_9  and  C_13
REMARK    4  A    between atoms: C_19  and  C_21
REMARK    5  A    between atoms: C_24  and  O_28
REMARK    6  A    between atoms: C_31  and  O_32
REMARK                            x       y       z     vdW  Elec       q    Type
REMARK                         _______ _______ _______ _____ _____    ______ ____
ROOT
ATOM      1  C   UNL     1      34.717 -22.290 -16.694  0.00  0.00    +0.014 C 
ATOM      2  C   UNL     1      35.710 -21.621 -17.447  0.00  0.00    +0.001 C 
ATOM      3  C   UNL     1      33.392 -22.304 -17.162  0.00  0.00    +0.051 C 
ATOM      4  C   UNL     1      35.076 -22.926 -15.494  0.00  0.00    +0.004 C 
ATOM      5  C   UNL     1      35.351 -20.985 -18.647  0.00  0.00    +0.007 C 
ATOM      6  C   UNL     1      33.054 -21.668 -18.356  0.00  0.00    +0.021 C 
ATOM      7  C   UNL     1      34.031 -21.009 -19.097  0.00  0.00    +0.077 C 
ATOM      8  C   UNL     1      37.034 -21.607 -16.978  0.00  0.00    +0.000 C 
ATOM      9  C   UNL     1      36.396 -22.902 -15.044  0.00  0.00    +0.031 C 
ATOM     10  C   UNL     1      37.374 -22.244 -15.785  0.00  0.00    +0.003 C 
ENDROOT
BRANCH   9  13
ATOM     11  N   UNL     1      36.229 -24.815 -13.470  0.00  0.00    -0.343 N 
ATOM     12  N   UNL     1      37.584 -22.982 -12.955  0.00  0.00    -0.285 NA
ATOM     13  C   UNL     1      36.752 -23.566 -13.800  0.00  0.00    +0.117 C 
ATOM     14  H   UNL     1      36.483 -25.247 -12.623  0.00  0.00    +0.144 HD
ATOM     15  H   UNL     1      35.605 -25.265 -14.085  0.00  0.00    +0.144 HD
ATOM     16  H   UNL     1      37.826 -23.429 -12.113  0.00  0.00    +0.188 HD
ENDBRANCH   9  13
BRANCH   3  18
ATOM     17  O   UNL     1      30.458 -21.705 -17.031  0.00  0.00    -0.270 OA
ATOM     18  N   UNL     1      32.367 -22.949 -16.458  0.00  0.00    -0.280 N 
ATOM     19  C   UNL     1      31.008 -22.623 -16.435  0.00  0.00    +0.249 C 
ATOM     20  H   UNL     1      32.637 -23.724 -15.915  0.00  0.00    +0.155 HD
BRANCH  19  21
ATOM     21  C   UNL     1      30.167 -23.485 -15.563  0.00  0.00    +0.053 C 
ATOM     22  C   UNL     1      30.491 -23.653 -14.232  0.00  0.00    +0.016 C 
ATOM     23  C   UNL     1      29.068 -24.096 -16.133  0.00  0.00    +0.004 C 
ATOM     24  C   UNL     1      29.683 -24.467 -13.438  0.00  0.00    +0.130 C 
ATOM     25  C   UNL     1      31.685 -22.982 -13.630  0.00  0.00    +0.034 C 
ATOM     26  C   UNL     1      28.260 -24.911 -15.339  0.00  0.00    +0.003 C 
ATOM     27  C   UNL     1      28.568 -25.095 -13.992  0.00  0.00    +0.036 C 
BRANCH  24  28
ATOM     28  O   UNL     1      29.967 -24.659 -12.118  0.00  0.00    -0.506 OA
ATOM     29  H   UNL     1      29.476 -25.283 -11.620  0.00  0.00    +0.292 HD
ENDBRANCH  24  28
ENDBRANCH  19  21
ENDBRANCH   3  18
BRANCH   7  31
ATOM     30  O   UNL     1      32.513 -20.165 -20.732  0.00  0.00    -0.245 OA
ATOM     31  C   UNL     1      33.674 -20.346 -20.342  0.00  0.00    +0.341 C 
BRANCH  31  32
ATOM     32  O   UNL     1      34.784 -19.944 -21.033  0.00  0.00    -0.441 OA
ATOM     33  C   UNL     1      34.651 -18.773 -21.847  0.00  0.00    +0.256 C 
ENDBRANCH  31  32
ENDBRANCH   7  31
TORSDOF 6
ENDMDL
MODEL 9
REMARK VINA RESULT:     -10.8      1.400      2.153
REMARK  Name = 6852141
REMARK  6 active torsions:
REMARK  status: ('A' for Active; 'I' for Inactive)
REMARK    1  A    between atoms: C_3  and  N_18
REMARK    2  A    between atoms: C_7  and  C_31
REMARK    3  A    between atoms: C_9  and  C_13
REMARK    4  A    between atoms: C_19  and  C_21
REMARK    5  A    between atoms: C_24  and  O_28
REMARK    6  A    between atoms: C_31  and  O_32
REMARK                            x       y       z     vdW  Elec       q    Type
REMARK                         _______ _______ _______ _____ _____    ______ ____
ROOT
ATOM      1  C   UNL     1      32.748 -23.026 -14.617  0.00  0.00    +0.014 C 
ATOM      2  C   UNL     1      32.568 -23.754 -13.418  0.00  0.00    +0.001 C 
ATOM      3  C   UNL     1      34.050 -22.795 -15.091  0.00  0.00    +0.051 C 
ATOM      4  C   UNL     1      31.622 -22.548 -15.307  0.00  0.00    +0.004 C 
ATOM      5  C   UNL     1      33.694 -24.232 -12.727  0.00  0.00    +0.007 C 
ATOM      6  C   UNL     1      35.158 -23.278 -14.393  0.00  0.00    +0.021 C 
ATOM      7  C   UNL     1      34.980 -23.994 -13.213  0.00  0.00    +0.077 C 
ATOM      8  C   UNL     1      31.266 -23.984 -12.943  0.00  0.00    +0.000 C 
ATOM      9  C   UNL     1      30.336 -22.786 -14.821  0.00  0.00    +0.031 C 
ATOM     10  C   UNL     1      30.159 -23.504 -13.642  0.00  0.00    +0.003 C 
ENDROOT
BRANCH   9  13
ATOM     11  N   UNL     1      28.030 -21.869 -14.882  0.00  0.00    -0.343 N 
ATOM     12  N   UNL     1      29.209 -22.224 -16.868  0.00  0.00    -0.285 NA
ATOM     13  C   UNL     1      29.181 -22.286 -15.548  0.00  0.00    +0.117 C 
ATOM     14  H   UNL     1      27.259 -21.534 -15.393  0.00  0.00    +0.144 HD
ATOM     15  H   UNL     1      27.988 -21.910 -13.898  0.00  0.00    +0.144 HD
ATOM     16  H   UNL     1      28.428 -21.886 -17.362  0.00  0.00    +0.188 HD
ENDBRANCH   9  13
BRANCH   3  18
ATOM     17  O   UNL     1      33.415 -23.483 -17.939  0.00  0.00    -0.270 OA
ATOM     18  N   UNL     1      34.291 -22.079 -16.271  0.00  0.00    -0.280 N 
ATOM     19  C   UNL     1      33.971 -22.452 -17.579  0.00  0.00    +0.249 C 
ATOM     20  H   UNL     1      34.740 -21.210 -16.165  0.00  0.00    +0.155 HD
BRANCH  19  21
ATOM     21  C   UNL     1      34.384 -21.486 -18.631  0.00  0.00    +0.053 C 
ATOM     22  C   UNL     1      33.434 -20.849 -19.402  0.00  0.00    +0.016 C 
ATOM     23  C   UNL     1      35.736 -21.258 -18.797  0.00  0.00    +0.004 C 
ATOM     24  C   UNL     1      33.851 -19.947 -20.381  0.00  0.00    +0.130 C 
ATOM     25  C   UNL     1      31.972 -21.107 -19.208  0.00  0.00    +0.034 C 
ATOM     26  C   UNL     1      36.154 -20.357 -19.777  0.00  0.00    +0.003 C 
ATOM     27  C   UNL     1      35.211 -19.702 -20.567  0.00  0.00    +0.036 C 
BRANCH  24  28
ATOM     28  O   UNL     1      32.945 -19.296 -21.164  0.00  0.00    -0.506 OA
ATOM     29  H   UNL     1      33.209 -18.548 -21.662  0.00  0.00    +0.292 HD
ENDBRANCH  24  28
ENDBRANCH  19  21
ENDBRANCH   3  18
BRANCH   7  31
ATOM     30  O   UNL     1      36.076 -25.120 -11.419  0.00  0.00    -0.245 OA
ATOM     31  C   UNL     1      36.136 -24.495 -12.486  0.00  0.00    +0.341 C 
BRANCH  31  32
ATOM     32  O   UNL     1      37.305 -24.192 -13.130  0.00  0.00    -0.441 OA
ATOM     33  C   UNL     1      38.269 -25.244 -13.251  0.00  0.00    +0.256 C 
ENDBRANCH  31  32
ENDBRANCH   7  31
TORSDOF 6
ENDMDL
