MODEL 1
REMARK VINA RESULT:     -11.7      0.000      0.000
REMARK  Name = 151194
REMARK  3 active torsions:
REMARK  status: ('A' for Active; 'I' for Inactive)
REMARK    1  A    between atoms: N_1  and  C_14
REMARK    2  A    between atoms: C_6  and  C_20
REMARK    3  A    between atoms: C_20  and  C_22
REMARK                            x       y       z     vdW  Elec       q    Type
REMARK                         _______ _______ _______ _____ _____    ______ ____
ROOT
ATOM      1  N   UNL     1      35.760 -20.420 -19.611  0.00  0.00    -0.297 N 
ATOM      2  N   UNL     1      33.115 -22.612 -18.492  0.00  0.00    -0.151 NA
ATOM      3  N   UNL     1      33.864 -21.780 -19.263  0.00  0.00    -0.133 NA
ATOM      4  C   UNL     1      34.719 -22.434 -16.699  0.00  0.00    +0.018 A 
ATOM      5  C   UNL     1      35.492 -21.575 -17.494  0.00  0.00    +0.035 A 
ATOM      6  C   UNL     1      33.539 -22.924 -17.248  0.00  0.00    +0.085 A 
ATOM      7  C   UNL     1      35.018 -21.282 -18.767  0.00  0.00    +0.154 A 
ATOM      8  C   UNL     1      35.153 -22.763 -15.404  0.00  0.00    +0.001 C 
ATOM      9  C   UNL     1      36.694 -21.053 -16.986  0.00  0.00    +0.003 C 
ATOM     10  C   UNL     1      36.348 -22.238 -14.909  0.00  0.00    +0.000 C 
ATOM     11  C   UNL     1      37.117 -21.385 -15.699  0.00  0.00    +0.000 C 
ATOM     12  H   UNL     1      36.731 -20.453 -19.455  0.00  0.00    +0.154 HD
ENDROOT
BRANCH   1  14
ATOM     13 CL   UNL     1      34.155 -16.664 -23.897  0.00  0.00    -0.082 Cl
ATOM     14  C   UNL     1      35.379 -19.529 -20.627  0.00  0.00    +0.049 C 
ATOM     15  C   UNL     1      36.217 -18.469 -20.984  0.00  0.00    +0.016 C 
ATOM     16  C   UNL     1      34.159 -19.697 -21.288  0.00  0.00    +0.016 C 
ATOM     17  C   UNL     1      35.840 -17.584 -21.994  0.00  0.00    +0.013 C 
ATOM     18  C   UNL     1      33.780 -18.812 -22.299  0.00  0.00    +0.013 C 
ATOM     19  C   UNL     1      34.621 -17.756 -22.651  0.00  0.00    +0.058 C 
ENDBRANCH   1  14
BRANCH   6  20
ATOM     20  C   UNL     1      32.640 -23.846 -16.491  0.00  0.00    +0.074 C 
BRANCH  20  22
ATOM     21  N   UNL     1      29.377 -21.871 -14.536  0.00  0.00    -0.242 NA
ATOM     22  C   UNL     1      31.487 -23.147 -15.800  0.00  0.00    -0.013 C 
ATOM     23  C   UNL     1      30.312 -22.943 -16.491  0.00  0.00    +0.017 C 
ATOM     24  C   UNL     1      31.637 -22.730 -14.494  0.00  0.00    +0.017 C 
ATOM     25  C   UNL     1      29.287 -22.301 -15.815  0.00  0.00    +0.099 C 
ATOM     26  C   UNL     1      30.553 -22.097 -13.907  0.00  0.00    +0.099 C 
ENDBRANCH  20  22
ENDBRANCH   6  20
TORSDOF 3
ENDMDL
MODEL 2
REMARK VINA RESULT:     -11.6      1.631      2.735
REMARK  Name = 151194
REMARK  3 active torsions:
REMARK  status: ('A' for Active; 'I' for Inactive)
REMARK    1  A    between atoms: N_1  and  C_14
REMARK    2  A    between atoms: C_6  and  C_20
REMARK    3  A    between atoms: C_20  and  C_22
REMARK                            x       y       z     vdW  Elec       q    Type
REMARK                         _______ _______ _______ _____ _____    ______ ____
ROOT
ATOM      1  N   UNL     1      34.763 -21.954 -18.039  0.00  0.00    -0.297 N 
ATOM      2  N   UNL     1      31.512 -22.617 -16.611  0.00  0.00    -0.151 NA
ATOM      3  N   UNL     1      32.491 -22.258 -17.482  0.00  0.00    -0.133 NA
ATOM      4  C   UNL     1      33.163 -23.149 -14.936  0.00  0.00    +0.018 A 
ATOM      5  C   UNL     1      34.175 -22.778 -15.835  0.00  0.00    +0.035 A 
ATOM      6  C   UNL     1      31.849 -23.049 -15.377  0.00  0.00    +0.085 A 
ATOM      7  C   UNL     1      33.783 -22.340 -17.094  0.00  0.00    +0.154 A 
ATOM      8  C   UNL     1      33.507 -23.599 -13.649  0.00  0.00    +0.001 C 
ATOM      9  C   UNL     1      35.521 -22.861 -15.438  0.00  0.00    +0.003 C 
ATOM     10  C   UNL     1      34.846 -23.677 -13.266  0.00  0.00    +0.000 C 
ATOM     11  C   UNL     1      35.852 -23.309 -14.159  0.00  0.00    +0.000 C 
ATOM     12  H   UNL     1      35.618 -22.431 -17.941  0.00  0.00    +0.154 HD
ENDROOT
BRANCH   1  14
ATOM     13 CL   UNL     1      34.716 -18.026 -22.469  0.00  0.00    -0.082 Cl
ATOM     14  C   UNL     1      34.752 -21.022 -19.091  0.00  0.00    +0.049 C 
ATOM     15  C   UNL     1      33.547 -20.663 -19.699  0.00  0.00    +0.016 C 
ATOM     16  C   UNL     1      35.947 -20.449 -19.534  0.00  0.00    +0.016 C 
ATOM     17  C   UNL     1      33.535 -19.738 -20.742  0.00  0.00    +0.013 C 
ATOM     18  C   UNL     1      35.937 -19.523 -20.578  0.00  0.00    +0.013 C 
ATOM     19  C   UNL     1      34.730 -19.168 -21.182  0.00  0.00    +0.058 C 
ENDBRANCH   1  14
BRANCH   6  20
ATOM     20  C   UNL     1      30.694 -23.418 -14.503  0.00  0.00    +0.074 C 
BRANCH  20  22
ATOM     21  N   UNL     1      26.868 -22.775 -16.324  0.00  0.00    -0.242 NA
ATOM     22  C   UNL     1      29.342 -23.191 -15.146  0.00  0.00    -0.013 C 
ATOM     23  C   UNL     1      28.661 -22.021 -14.888  0.00  0.00    +0.017 C 
ATOM     24  C   UNL     1      28.820 -24.159 -15.978  0.00  0.00    +0.017 C 
ATOM     25  C   UNL     1      27.429 -21.861 -15.500  0.00  0.00    +0.099 C 
ATOM     26  C   UNL     1      27.581 -23.903 -16.542  0.00  0.00    +0.099 C 
ENDBRANCH  20  22
ENDBRANCH   6  20
TORSDOF 3
ENDMDL
MODEL 3
REMARK VINA RESULT:     -11.3      3.985      8.548
REMARK  Name = 151194
REMARK  3 active torsions:
REMARK  status: ('A' for Active; 'I' for Inactive)
REMARK    1  A    between atoms: N_1  and  C_14
REMARK    2  A    between atoms: C_6  and  C_20
REMARK    3  A    between atoms: C_20  and  C_22
REMARK                            x       y       z     vdW  Elec       q    Type
REMARK                         _______ _______ _______ _____ _____    ______ ____
ROOT
ATOM      1  N   UNL     1      34.592 -20.105 -21.118  0.00  0.00    -0.297 N 
ATOM      2  N   UNL     1      35.115 -16.534 -20.937  0.00  0.00    -0.151 NA
ATOM      3  N   UNL     1      35.105 -17.856 -20.622  0.00  0.00    -0.133 NA
ATOM      4  C   UNL     1      34.042 -17.006 -23.046  0.00  0.00    +0.018 A 
ATOM      5  C   UNL     1      34.033 -18.371 -22.720  0.00  0.00    +0.035 A 
ATOM      6  C   UNL     1      34.596 -16.132 -22.118  0.00  0.00    +0.085 A 
ATOM      7  C   UNL     1      34.577 -18.740 -21.496  0.00  0.00    +0.154 A 
ATOM      8  C   UNL     1      33.504 -16.579 -24.272  0.00  0.00    +0.001 C 
ATOM      9  C   UNL     1      33.484 -19.296 -23.625  0.00  0.00    +0.003 C 
ATOM     10  C   UNL     1      32.962 -17.507 -25.162  0.00  0.00    +0.000 C 
ATOM     11  C   UNL     1      32.952 -18.863 -24.840  0.00  0.00    +0.000 C 
ATOM     12  H   UNL     1      34.654 -20.726 -21.879  0.00  0.00    +0.154 HD
ENDROOT
BRANCH   1  14
ATOM     13 CL   UNL     1      34.360 -22.795 -15.849  0.00  0.00    -0.082 Cl
ATOM     14  C   UNL     1      34.537 -20.743 -19.868  0.00  0.00    +0.049 C 
ATOM     15  C   UNL     1      35.694 -20.881 -19.097  0.00  0.00    +0.016 C 
ATOM     16  C   UNL     1      33.324 -21.246 -19.389  0.00  0.00    +0.016 C 
ATOM     17  C   UNL     1      35.640 -21.514 -17.856  0.00  0.00    +0.013 C 
ATOM     18  C   UNL     1      33.269 -21.879 -18.147  0.00  0.00    +0.013 C 
ATOM     19  C   UNL     1      34.427 -22.014 -17.380  0.00  0.00    +0.058 C 
ENDBRANCH   1  14
BRANCH   6  20
ATOM     20  C   UNL     1      34.659 -14.659 -22.361  0.00  0.00    +0.074 C 
BRANCH  20  22
ATOM     21  N   UNL     1      31.294 -12.498 -20.821  0.00  0.00    -0.242 NA
ATOM     22  C   UNL     1      33.470 -13.896 -21.817  0.00  0.00    -0.013 C 
ATOM     23  C   UNL     1      33.039 -14.146 -20.532  0.00  0.00    +0.017 C 
ATOM     24  C   UNL     1      32.842 -12.965 -22.619  0.00  0.00    +0.017 C 
ATOM     25  C   UNL     1      31.948 -13.421 -20.081  0.00  0.00    +0.099 C 
ATOM     26  C   UNL     1      31.759 -12.294 -22.074  0.00  0.00    +0.099 C 
ENDBRANCH  20  22
ENDBRANCH   6  20
TORSDOF 3
ENDMDL
MODEL 4
REMARK VINA RESULT:     -10.5      3.876      7.583
REMARK  Name = 151194
REMARK  3 active torsions:
REMARK  status: ('A' for Active; 'I' for Inactive)
REMARK    1  A    between atoms: N_1  and  C_14
REMARK    2  A    between atoms: C_6  and  C_20
REMARK    3  A    between atoms: C_20  and  C_22
REMARK                            x       y       z     vdW  Elec       q    Type
REMARK                         _______ _______ _______ _____ _____    ______ ____
ROOT
ATOM      1  N   UNL     1      34.631 -24.812 -14.143  0.00  0.00    -0.297 N 
ATOM      2  N   UNL     1      33.743 -23.145 -17.223  0.00  0.00    -0.151 NA
ATOM      3  N   UNL     1      34.422 -23.871 -16.296  0.00  0.00    -0.133 NA
ATOM      4  C   UNL     1      31.949 -22.774 -15.653  0.00  0.00    +0.018 A 
ATOM      5  C   UNL     1      32.650 -23.523 -14.696  0.00  0.00    +0.035 A 
ATOM      6  C   UNL     1      32.542 -22.617 -16.901  0.00  0.00    +0.085 A 
ATOM      7  C   UNL     1      33.881 -24.048 -15.071  0.00  0.00    +0.154 A 
ATOM      8  C   UNL     1      30.700 -22.221 -15.325  0.00  0.00    +0.001 C 
ATOM      9  C   UNL     1      32.094 -23.712 -13.419  0.00  0.00    +0.003 C 
ATOM     10  C   UNL     1      30.157 -22.415 -14.054  0.00  0.00    +0.000 C 
ATOM     11  C   UNL     1      30.853 -23.159 -13.103  0.00  0.00    +0.000 C 
ATOM     12  H   UNL     1      34.076 -25.302 -13.494  0.00  0.00    +0.154 HD
ENDROOT
BRANCH   1  14
ATOM     13 CL   UNL     1      40.449 -25.629 -13.414  0.00  0.00    -0.082 Cl
ATOM     14  C   UNL     1      36.011 -25.006 -13.969  0.00  0.00    +0.049 C 
ATOM     15  C   UNL     1      36.652 -26.083 -14.586  0.00  0.00    +0.016 C 
ATOM     16  C   UNL     1      36.751 -24.122 -13.178  0.00  0.00    +0.016 C 
ATOM     17  C   UNL     1      38.023 -26.276 -14.415  0.00  0.00    +0.013 C 
ATOM     18  C   UNL     1      38.122 -24.314 -13.007  0.00  0.00    +0.013 C 
ATOM     19  C   UNL     1      38.758 -25.391 -13.625  0.00  0.00    +0.058 C 
ENDBRANCH   1  14
BRANCH   6  20
ATOM     20  C   UNL     1      31.884 -21.840 -17.994  0.00  0.00    +0.074 C 
BRANCH  20  22
ATOM     21  N   UNL     1      34.638 -19.905 -20.648  0.00  0.00    -0.242 NA
ATOM     22  C   UNL     1      32.857 -21.157 -18.932  0.00  0.00    -0.013 C 
ATOM     23  C   UNL     1      32.374 -20.297 -19.895  0.00  0.00    +0.017 C 
ATOM     24  C   UNL     1      34.207 -21.408 -18.803  0.00  0.00    +0.017 C 
ATOM     25  C   UNL     1      33.304 -19.696 -20.727  0.00  0.00    +0.099 C 
ATOM     26  C   UNL     1      35.055 -20.758 -19.685  0.00  0.00    +0.099 C 
ENDBRANCH  20  22
ENDBRANCH   6  20
TORSDOF 3
ENDMDL
MODEL 5
REMARK VINA RESULT:     -10.5      3.876      7.577
REMARK  Name = 151194
REMARK  3 active torsions:
REMARK  status: ('A' for Active; 'I' for Inactive)
REMARK    1  A    between atoms: N_1  and  C_14
REMARK    2  A    between atoms: C_6  and  C_20
REMARK    3  A    between atoms: C_20  and  C_22
REMARK                            x       y       z     vdW  Elec       q    Type
REMARK                         _______ _______ _______ _____ _____    ______ ____
ROOT
ATOM      1  N   UNL     1      34.690 -24.826 -14.176  0.00  0.00    -0.297 N 
ATOM      2  N   UNL     1      33.773 -23.158 -17.248  0.00  0.00    -0.151 NA
ATOM      3  N   UNL     1      34.461 -23.884 -16.327  0.00  0.00    -0.133 NA
ATOM      4  C   UNL     1      31.996 -22.785 -15.660  0.00  0.00    +0.018 A 
ATOM      5  C   UNL     1      32.705 -23.535 -14.710  0.00  0.00    +0.035 A 
ATOM      6  C   UNL     1      32.576 -22.629 -16.913  0.00  0.00    +0.085 A 
ATOM      7  C   UNL     1      33.932 -24.061 -15.097  0.00  0.00    +0.154 A 
ATOM      8  C   UNL     1      30.750 -22.231 -15.319  0.00  0.00    +0.001 C 
ATOM      9  C   UNL     1      32.162 -23.723 -13.427  0.00  0.00    +0.003 C 
ATOM     10  C   UNL     1      30.220 -22.424 -14.043  0.00  0.00    +0.000 C 
ATOM     11  C   UNL     1      30.924 -23.169 -13.099  0.00  0.00    +0.000 C 
ATOM     12  H   UNL     1      34.141 -25.315 -13.522  0.00  0.00    +0.154 HD
ENDROOT
BRANCH   1  14
ATOM     13 CL   UNL     1      40.514 -25.650 -13.500  0.00  0.00    -0.082 Cl
ATOM     14  C   UNL     1      36.071 -25.021 -14.017  0.00  0.00    +0.049 C 
ATOM     15  C   UNL     1      36.829 -24.110 -13.277  0.00  0.00    +0.016 C 
ATOM     16  C   UNL     1      36.696 -26.128 -14.597  0.00  0.00    +0.016 C 
ATOM     17  C   UNL     1      38.201 -24.304 -13.117  0.00  0.00    +0.013 C 
ATOM     18  C   UNL     1      38.069 -26.323 -14.438  0.00  0.00    +0.013 C 
ATOM     19  C   UNL     1      38.821 -25.411 -13.698  0.00  0.00    +0.058 C 
ENDBRANCH   1  14
BRANCH   6  20
ATOM     20  C   UNL     1      31.908 -21.851 -18.000  0.00  0.00    +0.074 C 
BRANCH  20  22
ATOM     21  N   UNL     1      34.637 -19.876 -20.651  0.00  0.00    -0.242 NA
ATOM     22  C   UNL     1      32.872 -21.153 -18.936  0.00  0.00    -0.013 C 
ATOM     23  C   UNL     1      34.222 -21.408 -18.826  0.00  0.00    +0.017 C 
ATOM     24  C   UNL     1      32.379 -20.276 -19.881  0.00  0.00    +0.017 C 
ATOM     25  C   UNL     1      35.062 -20.745 -19.706  0.00  0.00    +0.099 C 
ATOM     26  C   UNL     1      33.302 -19.664 -20.713  0.00  0.00    +0.099 C 
ENDBRANCH  20  22
ENDBRANCH   6  20
TORSDOF 3
ENDMDL
MODEL 6
REMARK VINA RESULT:     -10.2      3.392      7.501
REMARK  Name = 151194
REMARK  3 active torsions:
REMARK  status: ('A' for Active; 'I' for Inactive)
REMARK    1  A    between atoms: N_1  and  C_14
REMARK    2  A    between atoms: C_6  and  C_20
REMARK    3  A    between atoms: C_20  and  C_22
REMARK                            x       y       z     vdW  Elec       q    Type
REMARK                         _______ _______ _______ _____ _____    ______ ____
ROOT
ATOM      1  N   UNL     1      32.465 -22.667 -15.170  0.00  0.00    -0.297 N 
ATOM      2  N   UNL     1      33.081 -22.181 -18.697  0.00  0.00    -0.151 NA
ATOM      3  N   UNL     1      32.454 -22.432 -17.517  0.00  0.00    -0.133 NA
ATOM      4  C   UNL     1      35.174 -21.860 -17.543  0.00  0.00    +0.018 A 
ATOM      5  C   UNL     1      34.527 -22.118 -16.325  0.00  0.00    +0.035 A 
ATOM      6  C   UNL     1      34.403 -21.904 -18.698  0.00  0.00    +0.085 A 
ATOM      7  C   UNL     1      33.167 -22.398 -16.370  0.00  0.00    +0.154 A 
ATOM      8  C   UNL     1      36.550 -21.571 -17.553  0.00  0.00    +0.001 C 
ATOM      9  C   UNL     1      35.263 -22.086 -15.128  0.00  0.00    +0.003 C 
ATOM     10  C   UNL     1      37.270 -21.541 -16.358  0.00  0.00    +0.000 C 
ATOM     11  C   UNL     1      36.628 -21.798 -15.147  0.00  0.00    +0.000 C 
ATOM     12  H   UNL     1      32.835 -22.205 -14.383  0.00  0.00    +0.154 HD
ENDROOT
BRANCH   1  14
ATOM     13 CL   UNL     1      27.737 -26.023 -13.969  0.00  0.00    -0.082 Cl
ATOM     14  C   UNL     1      31.344 -23.462 -14.885  0.00  0.00    +0.049 C 
ATOM     15  C   UNL     1      30.230 -23.437 -15.729  0.00  0.00    +0.016 C 
ATOM     16  C   UNL     1      31.335 -24.285 -13.755  0.00  0.00    +0.016 C 
ATOM     17  C   UNL     1      29.117 -24.227 -15.446  0.00  0.00    +0.013 C 
ATOM     18  C   UNL     1      30.221 -25.076 -13.471  0.00  0.00    +0.013 C 
ATOM     19  C   UNL     1      29.112 -25.047 -14.317  0.00  0.00    +0.058 C 
ENDBRANCH   1  14
BRANCH   6  20
ATOM     20  C   UNL     1      34.988 -21.644 -20.048  0.00  0.00    +0.074 C 
BRANCH  20  22
ATOM     21  N   UNL     1      35.163 -17.492 -21.095  0.00  0.00    -0.242 NA
ATOM     22  C   UNL     1      35.050 -20.177 -20.418  0.00  0.00    -0.013 C 
ATOM     23  C   UNL     1      36.270 -19.535 -20.429  0.00  0.00    +0.017 C 
ATOM     24  C   UNL     1      33.884 -19.512 -20.735  0.00  0.00    +0.017 C 
ATOM     25  C   UNL     1      36.273 -18.194 -20.775  0.00  0.00    +0.099 C 
ATOM     26  C   UNL     1      33.994 -18.171 -21.067  0.00  0.00    +0.099 C 
ENDBRANCH  20  22
ENDBRANCH   6  20
TORSDOF 3
ENDMDL
MODEL 7
REMARK VINA RESULT:     -10.1     10.991     15.445
REMARK  Name = 151194
REMARK  3 active torsions:
REMARK  status: ('A' for Active; 'I' for Inactive)
REMARK    1  A    between atoms: N_1  and  C_14
REMARK    2  A    between atoms: C_6  and  C_20
REMARK    3  A    between atoms: C_20  and  C_22
REMARK                            x       y       z     vdW  Elec       q    Type
REMARK                         _______ _______ _______ _____ _____    ______ ____
ROOT
ATOM      1  N   UNL     1      31.685 -10.333 -21.354  0.00  0.00    -0.297 N 
ATOM      2  N   UNL     1      31.341  -8.127 -24.195  0.00  0.00    -0.151 NA
ATOM      3  N   UNL     1      31.478  -9.248 -23.439  0.00  0.00    -0.133 NA
ATOM      4  C   UNL     1      31.333  -6.760 -22.208  0.00  0.00    +0.018 A 
ATOM      5  C   UNL     1      31.475  -7.917 -21.427  0.00  0.00    +0.035 A 
ATOM      6  C   UNL     1      31.271  -6.923 -23.587  0.00  0.00    +0.085 A 
ATOM      7  C   UNL     1      31.542  -9.134 -22.094  0.00  0.00    +0.154 A 
ATOM      8  C   UNL     1      31.260  -5.503 -21.583  0.00  0.00    +0.001 C 
ATOM      9  C   UNL     1      31.542  -7.806 -20.028  0.00  0.00    +0.003 C 
ATOM     10  C   UNL     1      31.328  -5.405 -20.192  0.00  0.00    +0.000 C 
ATOM     11  C   UNL     1      31.468  -6.555 -19.416  0.00  0.00    +0.000 C 
ATOM     12  H   UNL     1      31.277 -10.297 -20.459  0.00  0.00    +0.154 HD
ENDROOT
BRANCH   1  14
ATOM     13 CL   UNL     1      34.258 -15.518 -22.601  0.00  0.00    -0.082 Cl
ATOM     14  C   UNL     1      32.295 -11.563 -21.650  0.00  0.00    +0.049 C 
ATOM     15  C   UNL     1      32.929 -11.756 -22.880  0.00  0.00    +0.016 C 
ATOM     16  C   UNL     1      32.271 -12.602 -20.715  0.00  0.00    +0.016 C 
ATOM     17  C   UNL     1      33.536 -12.977 -23.174  0.00  0.00    +0.013 C 
ATOM     18  C   UNL     1      32.878 -13.824 -21.008  0.00  0.00    +0.013 C 
ATOM     19  C   UNL     1      33.510 -14.011 -22.238  0.00  0.00    +0.058 C 
ENDBRANCH   1  14
BRANCH   6  20
ATOM     20  C   UNL     1      31.121  -5.760 -24.513  0.00  0.00    +0.074 C 
BRANCH  20  22
ATOM     21  N   UNL     1      34.718  -4.731 -26.603  0.00  0.00    -0.242 NA
ATOM     22  C   UNL     1      32.392  -5.396 -25.251  0.00  0.00    -0.013 C 
ATOM     23  C   UNL     1      33.404  -4.752 -24.573  0.00  0.00    +0.017 C 
ATOM     24  C   UNL     1      32.510  -5.717 -26.588  0.00  0.00    +0.017 C 
ATOM     25  C   UNL     1      34.546  -4.441 -25.294  0.00  0.00    +0.099 C 
ATOM     26  C   UNL     1      33.692  -5.363 -27.218  0.00  0.00    +0.099 C 
ENDBRANCH  20  22
ENDBRANCH   6  20
TORSDOF 3
ENDMDL
MODEL 8
REMARK VINA RESULT:     -10.0     10.717     13.893
REMARK  Name = 151194
REMARK  3 active torsions:
REMARK  status: ('A' for Active; 'I' for Inactive)
REMARK    1  A    between atoms: N_1  and  C_14
REMARK    2  A    between atoms: C_6  and  C_20
REMARK    3  A    between atoms: C_20  and  C_22
REMARK                            x       y       z     vdW  Elec       q    Type
REMARK                         _______ _______ _______ _____ _____    ______ ____
ROOT
ATOM      1  N   UNL     1      33.047  -6.276 -22.361  0.00  0.00    -0.297 N 
ATOM      2  N   UNL     1      32.106  -9.592 -23.442  0.00  0.00    -0.151 NA
ATOM      3  N   UNL     1      32.589  -8.322 -23.442  0.00  0.00    -0.133 NA
ATOM      4  C   UNL     1      31.496  -9.386 -21.118  0.00  0.00    +0.018 A 
ATOM      5  C   UNL     1      31.995  -8.074 -21.117  0.00  0.00    +0.035 A 
ATOM      6  C   UNL     1      31.577 -10.100 -22.308  0.00  0.00    +0.085 A 
ATOM      7  C   UNL     1      32.530  -7.593 -22.306  0.00  0.00    +0.154 A 
ATOM      8  C   UNL     1      30.944  -9.921 -19.941  0.00  0.00    +0.001 C 
ATOM      9  C   UNL     1      31.936  -7.310 -19.939  0.00  0.00    +0.003 C 
ATOM     10  C   UNL     1      30.891  -9.153 -18.777  0.00  0.00    +0.000 C 
ATOM     11  C   UNL     1      31.387  -7.850 -18.776  0.00  0.00    +0.000 C 
ATOM     12  H   UNL     1      33.415  -5.959 -21.505  0.00  0.00    +0.154 HD
ENDROOT
BRANCH   1  14
ATOM     13 CL   UNL     1      33.426  -2.309 -26.740  0.00  0.00    -0.082 Cl
ATOM     14  C   UNL     1      33.137  -5.335 -23.399  0.00  0.00    +0.049 C 
ATOM     15  C   UNL     1      34.237  -5.341 -24.260  0.00  0.00    +0.016 C 
ATOM     16  C   UNL     1      32.126  -4.386 -23.577  0.00  0.00    +0.016 C 
ATOM     17  C   UNL     1      34.327  -4.407 -25.292  0.00  0.00    +0.013 C 
ATOM     18  C   UNL     1      32.215  -3.451 -24.609  0.00  0.00    +0.013 C 
ATOM     19  C   UNL     1      33.316  -3.462 -25.467  0.00  0.00    +0.058 C 
ENDBRANCH   1  14
BRANCH   6  20
ATOM     20  C   UNL     1      31.078 -11.503 -22.421  0.00  0.00    +0.074 C 
BRANCH  20  22
ATOM     21  N   UNL     1      34.099 -14.478 -21.793  0.00  0.00    -0.242 NA
ATOM     22  C   UNL     1      32.146 -12.554 -22.199  0.00  0.00    -0.013 C 
ATOM     23  C   UNL     1      32.364 -13.035 -20.925  0.00  0.00    +0.017 C 
ATOM     24  C   UNL     1      32.879 -13.009 -23.275  0.00  0.00    +0.017 C 
ATOM     25  C   UNL     1      33.351 -13.995 -20.775  0.00  0.00    +0.099 C 
ATOM     26  C   UNL     1      33.843 -13.970 -23.020  0.00  0.00    +0.099 C 
ENDBRANCH  20  22
ENDBRANCH   6  20
TORSDOF 3
ENDMDL
MODEL 9
REMARK VINA RESULT:     -10.0      3.917      7.170
REMARK  Name = 151194
REMARK  3 active torsions:
REMARK  status: ('A' for Active; 'I' for Inactive)
REMARK    1  A    between atoms: N_1  and  C_14
REMARK    2  A    between atoms: C_6  and  C_20
REMARK    3  A    between atoms: C_20  and  C_22
REMARK                            x       y       z     vdW  Elec       q    Type
REMARK                         _______ _______ _______ _____ _____    ______ ____
ROOT
ATOM      1  N   UNL     1      31.154 -22.734 -16.697  0.00  0.00    -0.297 N 
ATOM      2  N   UNL     1      33.500 -23.232 -13.996  0.00  0.00    -0.151 NA
ATOM      3  N   UNL     1      32.347 -23.183 -14.712  0.00  0.00    -0.133 NA
ATOM      4  C   UNL     1      34.744 -22.425 -15.898  0.00  0.00    +0.018 A 
ATOM      5  C   UNL     1      33.553 -22.375 -16.639  0.00  0.00    +0.035 A 
ATOM      6  C   UNL     1      34.660 -22.861 -14.581  0.00  0.00    +0.085 A 
ATOM      7  C   UNL     1      32.384 -22.765 -15.996  0.00  0.00    +0.154 A 
ATOM      8  C   UNL     1      35.954 -22.040 -16.501  0.00  0.00    +0.001 C 
ATOM      9  C   UNL     1      33.584 -21.940 -17.975  0.00  0.00    +0.003 C 
ATOM     10  C   UNL     1      35.973 -21.611 -17.828  0.00  0.00    +0.000 C 
ATOM     11  C   UNL     1      34.790 -21.561 -18.564  0.00  0.00    +0.000 C 
ATOM     12  H   UNL     1      31.245 -22.888 -17.665  0.00  0.00    +0.154 HD
ENDROOT
BRANCH   1  14
ATOM     13 CL   UNL     1      25.569 -21.856 -14.936  0.00  0.00    -0.082 Cl
ATOM     14  C   UNL     1      29.829 -22.526 -16.279  0.00  0.00    +0.049 C 
ATOM     15  C   UNL     1      29.567 -21.927 -15.044  0.00  0.00    +0.016 C 
ATOM     16  C   UNL     1      28.765 -22.918 -17.096  0.00  0.00    +0.016 C 
ATOM     17  C   UNL     1      28.252 -21.720 -14.629  0.00  0.00    +0.013 C 
ATOM     18  C   UNL     1      27.448 -22.711 -16.682  0.00  0.00    +0.013 C 
ATOM     19  C   UNL     1      27.192 -22.112 -15.448  0.00  0.00    +0.058 C 
ENDBRANCH   1  14
BRANCH   6  20
ATOM     20  C   UNL     1      35.865 -22.954 -13.703  0.00  0.00    +0.074 C 
BRANCH  20  22
ATOM     21  N   UNL     1      38.145 -26.540 -14.260  0.00  0.00    -0.242 NA
ATOM     22  C   UNL     1      36.671 -24.221 -13.900  0.00  0.00    -0.013 C 
ATOM     23  C   UNL     1      37.985 -24.255 -13.485  0.00  0.00    +0.017 C 
ATOM     24  C   UNL     1      36.073 -25.315 -14.491  0.00  0.00    +0.017 C 
ATOM     25  C   UNL     1      38.679 -25.437 -13.687  0.00  0.00    +0.099 C 
ATOM     26  C   UNL     1      36.853 -26.450 -14.648  0.00  0.00    +0.099 C 
ENDBRANCH  20  22
ENDBRANCH   6  20
TORSDOF 3
ENDMDL
