MODEL 1
REMARK VINA RESULT:     -13.1      0.000      0.000
REMARK  Name = 2079916
REMARK  5 active torsions:
REMARK  status: ('A' for Active; 'I' for Inactive)
REMARK    1  A    between atoms: C_4  and  C_10
REMARK    2  A    between atoms: C_5  and  S_15
REMARK    3  A    between atoms: S_15  and  C_16
REMARK    4  A    between atoms: C_16  and  C_18
REMARK    5  A    between atoms: C_21  and  O_24
REMARK                            x       y       z     vdW  Elec       q    Type
REMARK                         _______ _______ _______ _____ _____    ______ ____
ROOT
ATOM      1  O   UNL     1      34.165 -15.396 -22.489  0.00  0.00    -0.411 OA
ATOM      2  N   UNL     1      34.040 -14.993 -20.293  0.00  0.00    -0.106 NA
ATOM      3  N   UNL     1      34.596 -16.247 -20.466  0.00  0.00    -0.101 NA
ATOM      4  C   UNL     1      33.810 -14.542 -21.497  0.00  0.00    +0.251 A 
ATOM      5  C   UNL     1      34.649 -16.441 -21.763  0.00  0.00    +0.279 A 
ENDROOT
BRANCH   4  10
ATOM      6  O   UNL     1      30.756 -10.749 -21.008  0.00  0.00    -0.435 OA
ATOM      7  O   UNL     1      31.533  -9.725 -23.046  0.00  0.00    -0.435 OA
ATOM      8  C   UNL     1      31.728 -11.482 -21.617  0.00  0.00    +0.177 C 
ATOM      9  C   UNL     1      32.171 -10.898 -22.781  0.00  0.00    +0.176 C 
ATOM     10  C   UNL     1      33.239 -13.288 -21.928  0.00  0.00    +0.058 C 
ATOM     11  C   UNL     1      32.243 -12.680 -21.162  0.00  0.00    +0.045 C 
ATOM     12  C   UNL     1      33.154 -11.478 -23.555  0.00  0.00    +0.040 C 
ATOM     13  C   UNL     1      33.693 -12.692 -23.118  0.00  0.00    +0.008 C 
ATOM     14  C   UNL     1      30.639  -9.637 -21.918  0.00  0.00    +0.429 C 
ENDBRANCH   4  10
BRANCH   5  15
ATOM     15  S   UNL     1      35.276 -17.886 -22.496  0.00  0.00    -0.050 S 
BRANCH  15  16
ATOM     16  C   UNL     1      36.072 -18.679 -21.071  0.00  0.00    +0.093 C 
BRANCH  16  18
ATOM     17  F   UNL     1      31.629 -20.469 -20.214  0.00  0.00    -0.201 F 
ATOM     18  C   UNL     1      35.161 -19.662 -20.388  0.00  0.00    -0.008 C 
ATOM     19  C   UNL     1      33.794 -19.608 -20.624  0.00  0.00    +0.029 C 
ATOM     20  C   UNL     1      35.699 -20.610 -19.528  0.00  0.00    -0.000 C 
ATOM     21  C   UNL     1      33.480 -21.475 -19.123  0.00  0.00    +0.166 C 
ATOM     22  C   UNL     1      32.950 -20.519 -19.988  0.00  0.00    +0.174 C 
ATOM     23  C   UNL     1      34.856 -21.521 -18.893  0.00  0.00    +0.039 C 
BRANCH  21  24
ATOM     24  O   UNL     1      32.658 -22.363 -18.501  0.00  0.00    -0.469 OA
ATOM     25  C   UNL     1      33.020 -22.769 -17.181  0.00  0.00    +0.253 C 
ENDBRANCH  21  24
ENDBRANCH  16  18
ENDBRANCH  15  16
ENDBRANCH   5  15
TORSDOF 5
ENDMDL
MODEL 2
REMARK VINA RESULT:     -13.1      1.190      1.550
REMARK  Name = 2079916
REMARK  5 active torsions:
REMARK  status: ('A' for Active; 'I' for Inactive)
REMARK    1  A    between atoms: C_4  and  C_10
REMARK    2  A    between atoms: C_5  and  S_15
REMARK    3  A    between atoms: S_15  and  C_16
REMARK    4  A    between atoms: C_16  and  C_18
REMARK    5  A    between atoms: C_21  and  O_24
REMARK                            x       y       z     vdW  Elec       q    Type
REMARK                         _______ _______ _______ _____ _____    ______ ____
ROOT
ATOM      1  O   UNL     1      34.174 -15.422 -22.344  0.00  0.00    -0.411 OA
ATOM      2  N   UNL     1      33.963 -14.959 -20.166  0.00  0.00    -0.106 NA
ATOM      3  N   UNL     1      34.519 -16.220 -20.283  0.00  0.00    -0.101 NA
ATOM      4  C   UNL     1      33.783 -14.540 -21.390  0.00  0.00    +0.251 A 
ATOM      5  C   UNL     1      34.624 -16.449 -21.571  0.00  0.00    +0.279 A 
ENDROOT
BRANCH   4  10
ATOM      6  O   UNL     1      30.776 -10.691 -21.092  0.00  0.00    -0.435 OA
ATOM      7  O   UNL     1      31.597  -9.756 -23.157  0.00  0.00    -0.435 OA
ATOM      8  C   UNL     1      31.746 -11.460 -21.658  0.00  0.00    +0.177 C 
ATOM      9  C   UNL     1      32.215 -10.927 -22.836  0.00  0.00    +0.176 C 
ATOM     10  C   UNL     1      33.237 -13.297 -21.877  0.00  0.00    +0.058 C 
ATOM     11  C   UNL     1      32.238 -12.646 -21.150  0.00  0.00    +0.045 C 
ATOM     12  C   UNL     1      33.201 -11.549 -23.574  0.00  0.00    +0.040 C 
ATOM     13  C   UNL     1      33.716 -12.752 -23.082  0.00  0.00    +0.008 C 
ATOM     14  C   UNL     1      30.688  -9.613 -22.047  0.00  0.00    +0.429 C 
ENDBRANCH   4  10
BRANCH   5  15
ATOM     15  S   UNL     1      35.272 -17.916 -22.239  0.00  0.00    -0.050 S 
BRANCH  15  16
ATOM     16  C   UNL     1      33.840 -19.021 -22.100  0.00  0.00    +0.093 C 
BRANCH  16  18
ATOM     17  F   UNL     1      36.408 -21.407 -18.725  0.00  0.00    -0.201 F 
ATOM     18  C   UNL     1      33.911 -19.889 -20.874  0.00  0.00    -0.008 C 
ATOM     19  C   UNL     1      35.150 -20.250 -20.360  0.00  0.00    +0.029 C 
ATOM     20  C   UNL     1      32.736 -20.321 -20.272  0.00  0.00    -0.000 C 
ATOM     21  C   UNL     1      34.041 -21.495 -18.612  0.00  0.00    +0.166 C 
ATOM     22  C   UNL     1      35.215 -21.056 -19.224  0.00  0.00    +0.174 C 
ATOM     23  C   UNL     1      32.801 -21.127 -19.136  0.00  0.00    +0.039 C 
BRANCH  21  24
ATOM     24  O   UNL     1      34.102 -22.283 -17.504  0.00  0.00    -0.469 OA
ATOM     25  C   UNL     1      32.868 -22.801 -17.006  0.00  0.00    +0.253 C 
ENDBRANCH  21  24
ENDBRANCH  16  18
ENDBRANCH  15  16
ENDBRANCH   5  15
TORSDOF 5
ENDMDL
MODEL 3
REMARK VINA RESULT:     -12.8      2.583      9.229
REMARK  Name = 2079916
REMARK  5 active torsions:
REMARK  status: ('A' for Active; 'I' for Inactive)
REMARK    1  A    between atoms: C_4  and  C_10
REMARK    2  A    between atoms: C_5  and  S_15
REMARK    3  A    between atoms: S_15  and  C_16
REMARK    4  A    between atoms: C_16  and  C_18
REMARK    5  A    between atoms: C_21  and  O_24
REMARK                            x       y       z     vdW  Elec       q    Type
REMARK                         _______ _______ _______ _____ _____    ______ ____
ROOT
ATOM      1  O   UNL     1      34.476 -17.796 -21.244  0.00  0.00    -0.411 OA
ATOM      2  N   UNL     1      34.118 -19.331 -22.830  0.00  0.00    -0.106 NA
ATOM      3  N   UNL     1      34.221 -18.097 -23.446  0.00  0.00    -0.101 NA
ATOM      4  C   UNL     1      34.274 -19.101 -21.554  0.00  0.00    +0.251 A 
ATOM      5  C   UNL     1      34.429 -17.231 -22.482  0.00  0.00    +0.279 A 
ENDROOT
BRANCH   4  10
ATOM      6  O   UNL     1      32.009 -21.909 -18.247  0.00  0.00    -0.435 OA
ATOM      7  O   UNL     1      34.093 -22.605 -17.256  0.00  0.00    -0.435 OA
ATOM      8  C   UNL     1      33.087 -21.352 -18.864  0.00  0.00    +0.177 C 
ATOM      9  C   UNL     1      34.276 -21.749 -18.299  0.00  0.00    +0.176 C 
ATOM     10  C   UNL     1      34.263 -20.012 -20.435  0.00  0.00    +0.058 C 
ATOM     11  C   UNL     1      33.046 -20.483 -19.936  0.00  0.00    +0.045 C 
ATOM     12  C   UNL     1      35.492 -21.300 -18.773  0.00  0.00    +0.040 C 
ATOM     13  C   UNL     1      35.479 -20.418 -19.858  0.00  0.00    +0.008 C 
ATOM     14  C   UNL     1      32.654 -22.702 -17.230  0.00  0.00    +0.429 C 
ENDBRANCH   4  10
BRANCH   5  15
ATOM     15  S   UNL     1      34.629 -15.525 -22.746  0.00  0.00    -0.050 S 
BRANCH  15  16
ATOM     16  C   UNL     1      33.945 -14.855 -21.205  0.00  0.00    +0.093 C 
BRANCH  16  18
ATOM     17  F   UNL     1      32.868 -10.953 -23.905  0.00  0.00    -0.201 F 
ATOM     18  C   UNL     1      33.160 -13.592 -21.434  0.00  0.00    -0.008 C 
ATOM     19  C   UNL     1      33.382 -12.847 -22.585  0.00  0.00    +0.029 C 
ATOM     20  C   UNL     1      32.225 -13.187 -20.492  0.00  0.00    -0.000 C 
ATOM     21  C   UNL     1      31.715 -11.259 -21.855  0.00  0.00    +0.166 C 
ATOM     22  C   UNL     1      32.656 -11.675 -22.796  0.00  0.00    +0.174 C 
ATOM     23  C   UNL     1      31.498 -12.016 -20.703  0.00  0.00    +0.039 C 
BRANCH  21  24
ATOM     24  O   UNL     1      31.006 -10.115 -22.058  0.00  0.00    -0.469 OA
ATOM     25  C   UNL     1      31.058  -9.127 -21.030  0.00  0.00    +0.253 C 
ENDBRANCH  21  24
ENDBRANCH  16  18
ENDBRANCH  15  16
ENDBRANCH   5  15
TORSDOF 5
ENDMDL
MODEL 4
REMARK VINA RESULT:     -12.7      1.647      2.235
REMARK  Name = 2079916
REMARK  5 active torsions:
REMARK  status: ('A' for Active; 'I' for Inactive)
REMARK    1  A    between atoms: C_4  and  C_10
REMARK    2  A    between atoms: C_5  and  S_15
REMARK    3  A    between atoms: S_15  and  C_16
REMARK    4  A    between atoms: C_16  and  C_18
REMARK    5  A    between atoms: C_21  and  O_24
REMARK                            x       y       z     vdW  Elec       q    Type
REMARK                         _______ _______ _______ _____ _____    ______ ____
ROOT
ATOM      1  O   UNL     1      34.108 -15.273 -21.496  0.00  0.00    -0.411 OA
ATOM      2  N   UNL     1      33.860 -15.022 -23.704  0.00  0.00    -0.106 NA
ATOM      3  N   UNL     1      34.546 -16.202 -23.483  0.00  0.00    -0.101 NA
ATOM      4  C   UNL     1      33.629 -14.523 -22.520  0.00  0.00    +0.251 A 
ATOM      5  C   UNL     1      34.669 -16.308 -22.181  0.00  0.00    +0.279 A 
ENDROOT
BRANCH   4  10
ATOM      6  O   UNL     1      32.087  -9.953 -23.346  0.00  0.00    -0.435 OA
ATOM      7  O   UNL     1      31.057  -9.795 -21.172  0.00  0.00    -0.435 OA
ATOM      8  C   UNL     1      32.239 -11.093 -22.618  0.00  0.00    +0.177 C 
ATOM      9  C   UNL     1      31.651 -11.003 -21.377  0.00  0.00    +0.176 C 
ATOM     10  C   UNL     1      32.951 -13.308 -22.138  0.00  0.00    +0.058 C 
ATOM     11  C   UNL     1      32.897 -12.234 -23.029  0.00  0.00    +0.045 C 
ATOM     12  C   UNL     1      31.689 -12.049 -20.478  0.00  0.00    +0.040 C 
ATOM     13  C   UNL     1      32.351 -13.216 -20.870  0.00  0.00    +0.008 C 
ATOM     14  C   UNL     1      31.337  -9.135 -22.424  0.00  0.00    +0.429 C 
ENDBRANCH   4  10
BRANCH   5  15
ATOM     15  S   UNL     1      35.466 -17.635 -21.392  0.00  0.00    -0.050 S 
BRANCH  15  16
ATOM     16  C   UNL     1      34.269 -18.971 -21.668  0.00  0.00    +0.093 C 
BRANCH  16  18
ATOM     17  F   UNL     1      36.504 -21.601 -18.240  0.00  0.00    -0.201 F 
ATOM     18  C   UNL     1      34.224 -19.939 -20.518  0.00  0.00    -0.008 C 
ATOM     19  C   UNL     1      35.407 -20.326 -19.902  0.00  0.00    +0.029 C 
ATOM     20  C   UNL     1      33.001 -20.435 -20.089  0.00  0.00    -0.000 C 
ATOM     21  C   UNL     1      34.141 -21.730 -18.398  0.00  0.00    +0.166 C 
ATOM     22  C   UNL     1      35.365 -21.225 -18.837  0.00  0.00    +0.174 C 
ATOM     23  C   UNL     1      32.958 -21.334 -19.024  0.00  0.00    +0.039 C 
BRANCH  21  24
ATOM     24  O   UNL     1      34.098 -22.609 -17.360  0.00  0.00    -0.469 OA
ATOM     25  C   UNL     1      32.829 -22.820 -16.740  0.00  0.00    +0.253 C 
ENDBRANCH  21  24
ENDBRANCH  16  18
ENDBRANCH  15  16
ENDBRANCH   5  15
TORSDOF 5
ENDMDL
MODEL 5
REMARK VINA RESULT:     -12.5      1.476      1.965
REMARK  Name = 2079916
REMARK  5 active torsions:
REMARK  status: ('A' for Active; 'I' for Inactive)
REMARK    1  A    between atoms: C_4  and  C_10
REMARK    2  A    between atoms: C_5  and  S_15
REMARK    3  A    between atoms: S_15  and  C_16
REMARK    4  A    between atoms: C_16  and  C_18
REMARK    5  A    between atoms: C_21  and  O_24
REMARK                            x       y       z     vdW  Elec       q    Type
REMARK                         _______ _______ _______ _____ _____    ______ ____
ROOT
ATOM      1  O   UNL     1      34.191 -15.425 -21.660  0.00  0.00    -0.411 OA
ATOM      2  N   UNL     1      33.857 -15.114 -23.850  0.00  0.00    -0.106 NA
ATOM      3  N   UNL     1      34.563 -16.292 -23.689  0.00  0.00    -0.101 NA
ATOM      4  C   UNL     1      33.666 -14.651 -22.644  0.00  0.00    +0.251 A 
ATOM      5  C   UNL     1      34.736 -16.433 -22.396  0.00  0.00    +0.279 A 
ENDROOT
BRANCH   4  10
ATOM      6  O   UNL     1      32.040 -10.080 -23.281  0.00  0.00    -0.435 OA
ATOM      7  O   UNL     1      31.099  -9.993 -21.064  0.00  0.00    -0.435 OA
ATOM      8  C   UNL     1      32.235 -11.237 -22.591  0.00  0.00    +0.177 C 
ATOM      9  C   UNL     1      31.697 -11.188 -21.326  0.00  0.00    +0.176 C 
ATOM     10  C   UNL     1      32.991 -13.455 -22.201  0.00  0.00    +0.058 C 
ATOM     11  C   UNL     1      32.889 -12.359 -23.060  0.00  0.00    +0.045 C 
ATOM     12  C   UNL     1      31.784 -12.257 -20.458  0.00  0.00    +0.040 C 
ATOM     13  C   UNL     1      32.442 -13.405 -20.908  0.00  0.00    +0.008 C 
ATOM     14  C   UNL     1      31.320  -9.297 -22.308  0.00  0.00    +0.429 C 
ENDBRANCH   4  10
BRANCH   5  15
ATOM     15  S   UNL     1      35.576 -17.774 -21.676  0.00  0.00    -0.050 S 
BRANCH  15  16
ATOM     16  C   UNL     1      34.273 -19.036 -21.672  0.00  0.00    +0.093 C 
BRANCH  16  18
ATOM     17  F   UNL     1      32.194 -21.855 -18.295  0.00  0.00    -0.201 F 
ATOM     18  C   UNL     1      34.372 -19.949 -20.482  0.00  0.00    -0.008 C 
ATOM     19  C   UNL     1      33.216 -20.489 -19.933  0.00  0.00    +0.029 C 
ATOM     20  C   UNL     1      35.619 -20.240 -19.944  0.00  0.00    -0.000 C 
ATOM     21  C   UNL     1      34.556 -21.632 -18.280  0.00  0.00    +0.166 C 
ATOM     22  C   UNL     1      33.308 -21.333 -18.827  0.00  0.00    +0.174 C 
ATOM     23  C   UNL     1      35.711 -21.085 -18.839  0.00  0.00    +0.039 C 
BRANCH  21  24
ATOM     24  O   UNL     1      34.648 -22.455 -17.200  0.00  0.00    -0.469 OA
ATOM     25  C   UNL     1      35.628 -22.127 -16.215  0.00  0.00    +0.253 C 
ENDBRANCH  21  24
ENDBRANCH  16  18
ENDBRANCH  15  16
ENDBRANCH   5  15
TORSDOF 5
ENDMDL
MODEL 6
REMARK VINA RESULT:     -12.5      2.251      8.713
REMARK  Name = 2079916
REMARK  5 active torsions:
REMARK  status: ('A' for Active; 'I' for Inactive)
REMARK    1  A    between atoms: C_4  and  C_10
REMARK    2  A    between atoms: C_5  and  S_15
REMARK    3  A    between atoms: S_15  and  C_16
REMARK    4  A    between atoms: C_16  and  C_18
REMARK    5  A    between atoms: C_21  and  O_24
REMARK                            x       y       z     vdW  Elec       q    Type
REMARK                         _______ _______ _______ _____ _____    ______ ____
ROOT
ATOM      1  O   UNL     1      33.789 -19.025 -22.100  0.00  0.00    -0.411 OA
ATOM      2  N   UNL     1      35.901 -18.534 -21.555  0.00  0.00    -0.106 NA
ATOM      3  N   UNL     1      35.577 -17.817 -22.691  0.00  0.00    -0.101 NA
ATOM      4  C   UNL     1      34.830 -19.218 -21.252  0.00  0.00    +0.251 A 
ATOM      5  C   UNL     1      34.335 -18.135 -22.973  0.00  0.00    +0.279 A 
ENDROOT
BRANCH   4  10
ATOM      6  O   UNL     1      31.901 -21.824 -18.325  0.00  0.00    -0.435 OA
ATOM      7  O   UNL     1      33.764 -22.740 -17.101  0.00  0.00    -0.435 OA
ATOM      8  C   UNL     1      33.097 -21.371 -18.789  0.00  0.00    +0.177 C 
ATOM      9  C   UNL     1      34.160 -21.894 -18.090  0.00  0.00    +0.176 C 
ATOM     10  C   UNL     1      34.588 -20.138 -20.167  0.00  0.00    +0.058 C 
ATOM     11  C   UNL     1      33.278 -20.489 -19.835  0.00  0.00    +0.045 C 
ATOM     12  C   UNL     1      35.464 -21.564 -18.398  0.00  0.00    +0.040 C 
ATOM     13  C   UNL     1      35.675 -20.672 -19.453  0.00  0.00    +0.008 C 
ATOM     14  C   UNL     1      32.330 -22.691 -17.256  0.00  0.00    +0.429 C 
ENDBRANCH   4  10
BRANCH   5  15
ATOM     15  S   UNL     1      33.459 -17.488 -24.329  0.00  0.00    -0.050 S 
BRANCH  15  16
ATOM     16  C   UNL     1      34.277 -15.882 -24.533  0.00  0.00    +0.093 C 
BRANCH  16  18
ATOM     17  F   UNL     1      33.910 -13.947 -20.084  0.00  0.00    -0.201 F 
ATOM     18  C   UNL     1      33.729 -14.843 -23.594  0.00  0.00    -0.008 C 
ATOM     19  C   UNL     1      34.082 -14.878 -22.252  0.00  0.00    +0.029 C 
ATOM     20  C   UNL     1      32.875 -13.862 -24.081  0.00  0.00    -0.000 C 
ATOM     21  C   UNL     1      32.713 -12.927 -21.860  0.00  0.00    +0.166 C 
ATOM     22  C   UNL     1      33.571 -13.916 -21.381  0.00  0.00    +0.174 C 
ATOM     23  C   UNL     1      32.365 -12.900 -23.211  0.00  0.00    +0.039 C 
BRANCH  21  24
ATOM     24  O   UNL     1      32.213 -11.988 -21.012  0.00  0.00    -0.469 OA
ATOM     25  C   UNL     1      31.174 -11.146 -21.513  0.00  0.00    +0.253 C 
ENDBRANCH  21  24
ENDBRANCH  16  18
ENDBRANCH  15  16
ENDBRANCH   5  15
TORSDOF 5
ENDMDL
MODEL 7
REMARK VINA RESULT:     -12.3      3.222      4.428
REMARK  Name = 2079916
REMARK  5 active torsions:
REMARK  status: ('A' for Active; 'I' for Inactive)
REMARK    1  A    between atoms: C_4  and  C_10
REMARK    2  A    between atoms: C_5  and  S_15
REMARK    3  A    between atoms: S_15  and  C_16
REMARK    4  A    between atoms: C_16  and  C_18
REMARK    5  A    between atoms: C_21  and  O_24
REMARK                            x       y       z     vdW  Elec       q    Type
REMARK                         _______ _______ _______ _____ _____    ______ ____
ROOT
ATOM      1  O   UNL     1      34.223 -18.352 -21.175  0.00  0.00    -0.411 OA
ATOM      2  N   UNL     1      36.346 -17.660 -21.303  0.00  0.00    -0.106 NA
ATOM      3  N   UNL     1      36.332 -18.877 -20.646  0.00  0.00    -0.101 NA
ATOM      4  C   UNL     1      35.098 -17.402 -21.589  0.00  0.00    +0.251 A 
ATOM      5  C   UNL     1      35.073 -19.242 -20.593  0.00  0.00    +0.279 A 
ENDROOT
BRANCH   4  10
ATOM      6  O   UNL     1      33.357 -15.133 -25.560  0.00  0.00    -0.435 OA
ATOM      7  O   UNL     1      32.857 -13.126 -24.324  0.00  0.00    -0.435 OA
ATOM      8  C   UNL     1      33.686 -15.242 -24.244  0.00  0.00    +0.177 C 
ATOM      9  C   UNL     1      33.400 -14.096 -23.538  0.00  0.00    +0.176 C 
ATOM     10  C   UNL     1      34.514 -16.271 -22.269  0.00  0.00    +0.058 C 
ATOM     11  C   UNL     1      34.244 -16.349 -23.637  0.00  0.00    +0.045 C 
ATOM     12  C   UNL     1      33.657 -13.993 -22.186  0.00  0.00    +0.040 C 
ATOM     13  C   UNL     1      34.222 -15.100 -21.547  0.00  0.00    +0.008 C 
ATOM     14  C   UNL     1      32.832 -13.791 -25.603  0.00  0.00    +0.429 C 
ENDBRANCH   4  10
BRANCH   5  15
ATOM     15  S   UNL     1      34.528 -20.719 -19.856  0.00  0.00    -0.050 S 
BRANCH  15  16
ATOM     16  C   UNL     1      35.967 -21.146 -18.835  0.00  0.00    +0.093 C 
BRANCH  16  18
ATOM     17  F   UNL     1      37.013 -22.294 -14.224  0.00  0.00    -0.201 F 
ATOM     18  C   UNL     1      35.567 -21.707 -17.498  0.00  0.00    -0.008 C 
ATOM     19  C   UNL     1      36.493 -21.739 -16.464  0.00  0.00    +0.029 C 
ATOM     20  C   UNL     1      34.277 -22.189 -17.316  0.00  0.00    -0.000 C 
ATOM     21  C   UNL     1      34.829 -22.747 -15.032  0.00  0.00    +0.166 C 
ATOM     22  C   UNL     1      36.122 -22.262 -15.225  0.00  0.00    +0.174 C 
ATOM     23  C   UNL     1      33.906 -22.711 -16.078  0.00  0.00    +0.039 C 
BRANCH  21  24
ATOM     24  O   UNL     1      34.466 -23.259 -13.824  0.00  0.00    -0.469 OA
ATOM     25  C   UNL     1      33.128 -23.741 -13.699  0.00  0.00    +0.253 C 
ENDBRANCH  21  24
ENDBRANCH  16  18
ENDBRANCH  15  16
ENDBRANCH   5  15
TORSDOF 5
ENDMDL
MODEL 8
REMARK VINA RESULT:     -11.9      3.090      9.821
REMARK  Name = 2079916
REMARK  5 active torsions:
REMARK  status: ('A' for Active; 'I' for Inactive)
REMARK    1  A    between atoms: C_4  and  C_10
REMARK    2  A    between atoms: C_5  and  S_15
REMARK    3  A    between atoms: S_15  and  C_16
REMARK    4  A    between atoms: C_16  and  C_18
REMARK    5  A    between atoms: C_21  and  O_24
REMARK                            x       y       z     vdW  Elec       q    Type
REMARK                         _______ _______ _______ _____ _____    ______ ____
ROOT
ATOM      1  O   UNL     1      35.037 -20.193 -19.825  0.00  0.00    -0.411 OA
ATOM      2  N   UNL     1      32.965 -20.879 -19.338  0.00  0.00    -0.106 NA
ATOM      3  N   UNL     1      32.907 -20.143 -20.506  0.00  0.00    -0.101 NA
ATOM      4  C   UNL     1      34.222 -20.879 -18.985  0.00  0.00    +0.251 A 
ATOM      5  C   UNL     1      34.138 -19.762 -20.752  0.00  0.00    +0.279 A 
ENDROOT
BRANCH   4  10
ATOM      6  O   UNL     1      34.300 -23.826 -15.078  0.00  0.00    -0.435 OA
ATOM      7  O   UNL     1      36.597 -23.289 -14.587  0.00  0.00    -0.435 OA
ATOM      8  C   UNL     1      34.825 -22.940 -15.969  0.00  0.00    +0.177 C 
ATOM      9  C   UNL     1      36.137 -22.634 -15.688  0.00  0.00    +0.176 C 
ATOM     10  C   UNL     1      34.871 -21.489 -17.849  0.00  0.00    +0.058 C 
ATOM     11  C   UNL     1      34.162 -22.384 -17.044  0.00  0.00    +0.045 C 
ATOM     12  C   UNL     1      36.859 -21.754 -16.467  0.00  0.00    +0.040 C 
ATOM     13  C   UNL     1      36.211 -21.175 -17.563  0.00  0.00    +0.008 C 
ATOM     14  C   UNL     1      35.428 -24.043 -14.207  0.00  0.00    +0.429 C 
ENDBRANCH   4  10
BRANCH   5  15
ATOM     15  S   UNL     1      34.593 -18.800 -22.127  0.00  0.00    -0.050 S 
BRANCH  15  16
ATOM     16  C   UNL     1      35.053 -17.241 -21.320  0.00  0.00    +0.093 C 
BRANCH  16  18
ATOM     17  F   UNL     1      33.544 -14.982 -25.356  0.00  0.00    -0.201 F 
ATOM     18  C   UNL     1      34.455 -16.047 -22.011  0.00  0.00    -0.008 C 
ATOM     19  C   UNL     1      34.273 -16.071 -23.387  0.00  0.00    +0.029 C 
ATOM     20  C   UNL     1      34.094 -14.933 -21.264  0.00  0.00    -0.000 C 
ATOM     21  C   UNL     1      33.355 -13.839 -23.287  0.00  0.00    +0.166 C 
ATOM     22  C   UNL     1      33.721 -14.962 -24.028  0.00  0.00    +0.174 C 
ATOM     23  C   UNL     1      33.541 -13.825 -21.904  0.00  0.00    +0.039 C 
BRANCH  21  24
ATOM     24  O   UNL     1      32.817 -12.756 -23.910  0.00  0.00    -0.469 OA
ATOM     25  C   UNL     1      33.126 -11.473 -23.365  0.00  0.00    +0.253 C 
ENDBRANCH  21  24
ENDBRANCH  16  18
ENDBRANCH  15  16
ENDBRANCH   5  15
TORSDOF 5
ENDMDL
MODEL 9
REMARK VINA RESULT:     -11.9      3.206      9.395
REMARK  Name = 2079916
REMARK  5 active torsions:
REMARK  status: ('A' for Active; 'I' for Inactive)
REMARK    1  A    between atoms: C_4  and  C_10
REMARK    2  A    between atoms: C_5  and  S_15
REMARK    3  A    between atoms: S_15  and  C_16
REMARK    4  A    between atoms: C_16  and  C_18
REMARK    5  A    between atoms: C_21  and  O_24
REMARK                            x       y       z     vdW  Elec       q    Type
REMARK                         _______ _______ _______ _____ _____    ______ ____
ROOT
ATOM      1  O   UNL     1      33.892 -15.555 -22.952  0.00  0.00    -0.411 OA
ATOM      2  N   UNL     1      33.891 -17.003 -24.656  0.00  0.00    -0.106 NA
ATOM      3  N   UNL     1      33.438 -15.786 -25.130  0.00  0.00    -0.101 NA
ATOM      4  C   UNL     1      34.141 -16.815 -23.388  0.00  0.00    +0.251 A 
ATOM      5  C   UNL     1      33.455 -14.971 -24.102  0.00  0.00    +0.279 A 
ENDROOT
BRANCH   4  10
ATOM      6  O   UNL     1      33.599 -20.488 -20.200  0.00  0.00    -0.435 OA
ATOM      7  O   UNL     1      35.915 -20.397 -19.540  0.00  0.00    -0.435 OA
ATOM      8  C   UNL     1      34.288 -19.522 -20.866  0.00  0.00    +0.177 C 
ATOM      9  C   UNL     1      35.610 -19.469 -20.489  0.00  0.00    +0.176 C 
ATOM     10  C   UNL     1      34.635 -17.733 -22.391  0.00  0.00    +0.058 C 
ATOM     11  C   UNL     1      33.769 -18.666 -21.816  0.00  0.00    +0.045 C 
ATOM     12  C   UNL     1      36.487 -18.559 -21.041  0.00  0.00    +0.040 C 
ATOM     13  C   UNL     1      35.987 -17.680 -22.006  0.00  0.00    +0.008 C 
ATOM     14  C   UNL     1      34.635 -21.039 -19.363  0.00  0.00    +0.429 C 
ENDBRANCH   4  10
BRANCH   5  15
ATOM     15  S   UNL     1      32.969 -13.304 -24.185  0.00  0.00    -0.050 S 
BRANCH  15  16
ATOM     16  C   UNL     1      32.222 -13.081 -22.546  0.00  0.00    +0.093 C 
BRANCH  16  18
ATOM     17  F   UNL     1      30.489  -9.612 -19.607  0.00  0.00    -0.201 F 
ATOM     18  C   UNL     1      31.953 -11.633 -22.239  0.00  0.00    -0.008 C 
ATOM     19  C   UNL     1      31.336 -11.290 -21.043  0.00  0.00    +0.029 C 
ATOM     20  C   UNL     1      32.323 -10.659 -23.156  0.00  0.00    -0.000 C 
ATOM     21  C   UNL     1      31.453  -8.961 -21.674  0.00  0.00    +0.166 C 
ATOM     22  C   UNL     1      31.084  -9.947 -20.760  0.00  0.00    +0.174 C 
ATOM     23  C   UNL     1      32.073  -9.316 -22.872  0.00  0.00    +0.039 C 
BRANCH  21  24
ATOM     24  O   UNL     1      31.207  -7.651 -21.400  0.00  0.00    -0.469 OA
ATOM     25  C   UNL     1      32.163  -6.966 -20.590  0.00  0.00    +0.253 C 
ENDBRANCH  21  24
ENDBRANCH  16  18
ENDBRANCH  15  16
ENDBRANCH   5  15
TORSDOF 5
ENDMDL
