MODEL 1
REMARK VINA RESULT:     -11.8      0.000      0.000
REMARK  Name = 9952008
REMARK  0 active torsions:
REMARK  status: ('A' for Active; 'I' for Inactive)
REMARK                            x       y       z     vdW  Elec       q    Type
REMARK                         _______ _______ _______ _____ _____    ______ ____
ROOT
ATOM      1 BR   UNL     1      35.110 -18.917 -21.417  0.00  0.00    -0.043 Br
ATOM      2  S   UNL     1      35.308 -24.346 -14.654  0.00  0.00    +0.060 S 
ATOM      3  O   UNL     1      35.674 -24.039 -13.284  0.00  0.00    -0.153 OA
ATOM      4  O   UNL     1      35.258 -25.718 -15.122  0.00  0.00    -0.153 OA
ATOM      5  N   UNL     1      36.300 -23.446 -15.703  0.00  0.00    -0.179 NA
ATOM      6  N   UNL     1      35.986 -20.538 -18.864  0.00  0.00    -0.307 N 
ATOM      7  N   UNL     1      31.683 -22.187 -17.702  0.00  0.00    -0.247 N 
ATOM      8  N   UNL     1      33.830 -21.415 -18.377  0.00  0.00    -0.322 NA
ATOM      9  N   UNL     1      31.931 -20.912 -19.687  0.00  0.00    -0.169 NA
ATOM     10  C   UNL     1      36.233 -21.074 -16.446  0.00  0.00    +0.040 C 
ATOM     11  C   UNL     1      36.750 -22.072 -15.407  0.00  0.00    +0.093 C 
ATOM     12  C   UNL     1      36.615 -21.423 -17.892  0.00  0.00    +0.091 C 
ATOM     13  C   UNL     1      33.687 -23.697 -14.934  0.00  0.00    +0.123 C 
ATOM     14  C   UNL     1      33.310 -23.317 -16.223  0.00  0.00    +0.035 C 
ATOM     15  C   UNL     1      32.041 -22.765 -16.465  0.00  0.00    +0.059 C 
ATOM     16  C   UNL     1      32.800 -23.583 -13.867  0.00  0.00    +0.020 C 
ATOM     17  C   UNL     1      34.627 -20.642 -19.147  0.00  0.00    +0.201 C 
ATOM     18  C   UNL     1      31.147 -22.671 -15.386  0.00  0.00    +0.015 C 
ATOM     19  C   UNL     1      31.523 -23.081 -14.103  0.00  0.00    +0.003 C 
ATOM     20  C   UNL     1      32.507 -21.513 -18.628  0.00  0.00    +0.150 C 
ATOM     21  C   UNL     1      34.096 -19.996 -20.245  0.00  0.00    +0.099 C 
ATOM     22  C   UNL     1      32.744 -20.173 -20.473  0.00  0.00    +0.122 C 
ATOM     23  H   UNL     1      35.794 -23.391 -16.588  0.00  0.00    +0.149 HD
ATOM     24  H   UNL     1      36.529 -19.858 -19.326  0.00  0.00    +0.149 HD
ATOM     25  H   UNL     1      30.733 -22.264 -17.951  0.00  0.00    +0.165 HD
ENDROOT
TORSDOF 0
ENDMDL
MODEL 2
REMARK VINA RESULT:     -10.4      2.578      4.809
REMARK  Name = 9952008
REMARK  0 active torsions:
REMARK  status: ('A' for Active; 'I' for Inactive)
REMARK                            x       y       z     vdW  Elec       q    Type
REMARK                         _______ _______ _______ _____ _____    ______ ____
ROOT
ATOM      1 BR   UNL     1      32.540 -21.333 -19.101  0.00  0.00    -0.043 Br
ATOM      2  S   UNL     1      35.569 -23.730 -11.334  0.00  0.00    +0.060 S 
ATOM      3  O   UNL     1      35.424 -25.021 -10.689  0.00  0.00    -0.153 OA
ATOM      4  O   UNL     1      35.961 -22.558 -10.575  0.00  0.00    -0.153 OA
ATOM      5  N   UNL     1      34.138 -23.377 -12.185  0.00  0.00    -0.179 NA
ATOM      6  N   UNL     1      32.806 -22.473 -16.180  0.00  0.00    -0.307 N 
ATOM      7  N   UNL     1      37.555 -22.532 -15.994  0.00  0.00    -0.247 N 
ATOM      8  N   UNL     1      35.181 -22.396 -16.099  0.00  0.00    -0.322 NA
ATOM      9  N   UNL     1      36.487 -21.641 -17.916  0.00  0.00    -0.169 NA
ATOM     10  C   UNL     1      33.270 -24.137 -14.387  0.00  0.00    +0.040 C 
ATOM     11  C   UNL     1      33.340 -24.405 -12.882  0.00  0.00    +0.093 C 
ATOM     12  C   UNL     1      32.722 -22.750 -14.751  0.00  0.00    +0.091 C 
ATOM     13  C   UNL     1      36.791 -23.897 -12.601  0.00  0.00    +0.123 C 
ATOM     14  C   UNL     1      36.740 -23.068 -13.723  0.00  0.00    +0.035 C 
ATOM     15  C   UNL     1      37.677 -23.206 -14.760  0.00  0.00    +0.059 C 
ATOM     16  C   UNL     1      37.798 -24.847 -12.461  0.00  0.00    +0.020 C 
ATOM     17  C   UNL     1      34.031 -22.201 -16.782  0.00  0.00    +0.201 C 
ATOM     18  C   UNL     1      38.700 -24.154 -14.601  0.00  0.00    +0.015 C 
ATOM     19  C   UNL     1      38.762 -24.961 -13.460  0.00  0.00    +0.003 C 
ATOM     20  C   UNL     1      36.379 -22.152 -16.675  0.00  0.00    +0.150 C 
ATOM     21  C   UNL     1      34.076 -21.683 -18.060  0.00  0.00    +0.099 C 
ATOM     22  C   UNL     1      35.331 -21.413 -18.575  0.00  0.00    +0.122 C 
ATOM     23  H   UNL     1      34.397 -22.693 -12.896  0.00  0.00    +0.149 HD
ATOM     24  H   UNL     1      31.986 -22.480 -16.725  0.00  0.00    +0.149 HD
ATOM     25  H   UNL     1      38.401 -22.298 -16.439  0.00  0.00    +0.165 HD
ENDROOT
TORSDOF 0
ENDMDL
MODEL 3
REMARK VINA RESULT:      -8.9      2.422      3.244
REMARK  Name = 9952008
REMARK  0 active torsions:
REMARK  status: ('A' for Active; 'I' for Inactive)
REMARK                            x       y       z     vdW  Elec       q    Type
REMARK                         _______ _______ _______ _____ _____    ______ ____
ROOT
ATOM      1 BR   UNL     1      32.629 -20.753 -19.506  0.00  0.00    -0.043 Br
ATOM      2  S   UNL     1      38.184 -24.535 -14.019  0.00  0.00    +0.060 S 
ATOM      3  O   UNL     1      39.131 -23.886 -13.134  0.00  0.00    -0.153 OA
ATOM      4  O   UNL     1      38.305 -25.945 -14.336  0.00  0.00    -0.153 OA
ATOM      5  N   UNL     1      38.096 -23.655 -15.472  0.00  0.00    -0.179 NA
ATOM      6  N   UNL     1      35.215 -21.585 -17.916  0.00  0.00    -0.307 N 
ATOM      7  N   UNL     1      33.028 -23.932 -14.409  0.00  0.00    -0.247 N 
ATOM      8  N   UNL     1      34.083 -22.829 -16.235  0.00  0.00    -0.322 NA
ATOM      9  N   UNL     1      31.732 -23.054 -16.192  0.00  0.00    -0.169 NA
ATOM     10  C   UNL     1      36.909 -21.559 -16.091  0.00  0.00    +0.040 C 
ATOM     11  C   UNL     1      38.189 -22.182 -15.530  0.00  0.00    +0.093 C 
ATOM     12  C   UNL     1      36.511 -22.088 -17.477  0.00  0.00    +0.091 C 
ATOM     13  C   UNL     1      36.574 -24.352 -13.310  0.00  0.00    +0.123 C 
ATOM     14  C   UNL     1      35.452 -24.334 -14.141  0.00  0.00    +0.035 C 
ATOM     15  C   UNL     1      34.166 -24.153 -13.604  0.00  0.00    +0.059 C 
ATOM     16  C   UNL     1      36.442 -24.239 -11.929  0.00  0.00    +0.020 C 
ATOM     17  C   UNL     1      34.037 -22.059 -17.344  0.00  0.00    +0.201 C 
ATOM     18  C   UNL     1      34.042 -24.059 -12.209  0.00  0.00    +0.015 C 
ATOM     19  C   UNL     1      35.168 -24.108 -11.382  0.00  0.00    +0.003 C 
ATOM     20  C   UNL     1      32.948 -23.281 -15.658  0.00  0.00    +0.150 C 
ATOM     21  C   UNL     1      32.821 -21.785 -17.937  0.00  0.00    +0.099 C 
ATOM     22  C   UNL     1      31.701 -22.316 -17.323  0.00  0.00    +0.122 C 
ATOM     23  H   UNL     1      37.198 -23.895 -15.893  0.00  0.00    +0.149 HD
ATOM     24  H   UNL     1      35.173 -20.903 -18.624  0.00  0.00    +0.149 HD
ATOM     25  H   UNL     1      32.178 -24.277 -14.051  0.00  0.00    +0.165 HD
ENDROOT
TORSDOF 0
ENDMDL
