MODEL 1
REMARK VINA RESULT:     -12.9      0.000      0.000
REMARK  Name = 447734
REMARK  5 active torsions:
REMARK  status: ('A' for Active; 'I' for Inactive)
REMARK    1  A    between atoms: C_3  and  C_19
REMARK    2  A    between atoms: C_9  and  C_13
REMARK    3  A    between atoms: N_18  and  C_24
REMARK    4  A    between atoms: C_21  and  O_27
REMARK    5  A    between atoms: O_27  and  C_28
REMARK                            x       y       z     vdW  Elec       q    Type
REMARK                         _______ _______ _______ _____ _____    ______ ____
ROOT
ATOM      1  C   UNL     1      31.338  -8.678 -22.358  0.00  0.00    +0.000 C 
ATOM      2  C   UNL     1      31.145  -8.156 -21.057  0.00  0.00    +0.000 C 
ATOM      3  C   UNL     1      31.736 -10.879 -21.402  0.00  0.00    +0.054 C 
ATOM      4  C   UNL     1      31.633 -10.042 -22.513  0.00  0.00    +0.005 C 
ATOM      5  C   UNL     1      31.252  -9.012 -19.949  0.00  0.00    +0.000 C 
ATOM      6  C   UNL     1      31.546 -10.365 -20.122  0.00  0.00    +0.005 C 
ATOM      7  C   UNL     1      30.850  -6.791 -20.902  0.00  0.00    +0.003 C 
ATOM      8  C   UNL     1      31.231  -7.821 -23.465  0.00  0.00    +0.000 C 
ATOM      9  C   UNL     1      30.746  -5.954 -22.013  0.00  0.00    +0.031 C 
ATOM     10  C   UNL     1      30.936  -6.468 -23.292  0.00  0.00    +0.003 C 
ENDROOT
BRANCH   9  13
ATOM     11  N   UNL     1      30.115  -3.730 -22.919  0.00  0.00    -0.343 N 
ATOM     12  N   UNL     1      30.473  -4.010 -20.627  0.00  0.00    -0.285 NA
ATOM     13  C   UNL     1      30.440  -4.543 -21.835  0.00  0.00    +0.117 C 
ATOM     14  H   UNL     1      29.910  -2.777 -22.775  0.00  0.00    +0.144 HD
ATOM     15  H   UNL     1      30.088  -4.108 -23.828  0.00  0.00    +0.144 HD
ATOM     16  H   UNL     1      30.265  -3.056 -20.504  0.00  0.00    +0.188 HD
ENDBRANCH   9  13
BRANCH   3  19
ATOM     17  O   UNL     1      31.572 -13.115 -20.780  0.00  0.00    -0.270 OA
ATOM     18  N   UNL     1      32.848 -12.606 -22.683  0.00  0.00    -0.280 N 
ATOM     19  C   UNL     1      32.043 -12.290 -21.579  0.00  0.00    +0.249 C 
ATOM     20  H   UNL     1      33.148 -11.843 -23.226  0.00  0.00    +0.155 HD
BRANCH  18  24
ATOM     21  C   UNL     1      34.406 -15.952 -22.661  0.00  0.00    +0.140 C 
ATOM     22  C   UNL     1      33.973 -14.698 -22.233  0.00  0.00    +0.052 C 
ATOM     23  C   UNL     1      34.146 -16.372 -23.966  0.00  0.00    +0.037 C 
ATOM     24  C   UNL     1      33.287 -13.881 -23.117  0.00  0.00    +0.054 C 
ATOM     25  C   UNL     1      33.454 -15.537 -24.843  0.00  0.00    +0.004 C 
ATOM     26  C   UNL     1      33.021 -14.282 -24.415  0.00  0.00    +0.015 C 
BRANCH  21  27
ATOM     27  O   UNL     1      35.081 -16.767 -21.807  0.00  0.00    -0.479 OA
BRANCH  27  28
ATOM     28  C   UNL     1      35.584 -17.988 -22.337  0.00  0.00    +0.166 C 
ATOM     29  C   UNL     1      34.557 -19.091 -22.129  0.00  0.00    +0.044 C 
ATOM     30  C   UNL     1      36.775 -18.469 -21.524  0.00  0.00    +0.044 C 
ATOM     31  C   UNL     1      34.738 -19.511 -20.670  0.00  0.00    +0.004 C 
ATOM     32  C   UNL     1      36.151 -19.083 -20.273  0.00  0.00    +0.004 C 
ENDBRANCH  27  28
ENDBRANCH  21  27
ENDBRANCH  18  24
ENDBRANCH   3  19
TORSDOF 5
ENDMDL
MODEL 2
REMARK VINA RESULT:     -12.6      3.425     10.417
REMARK  Name = 447734
REMARK  5 active torsions:
REMARK  status: ('A' for Active; 'I' for Inactive)
REMARK    1  A    between atoms: C_3  and  C_19
REMARK    2  A    between atoms: C_9  and  C_13
REMARK    3  A    between atoms: N_18  and  C_24
REMARK    4  A    between atoms: C_21  and  O_27
REMARK    5  A    between atoms: O_27  and  C_28
REMARK                            x       y       z     vdW  Elec       q    Type
REMARK                         _______ _______ _______ _____ _____    ______ ____
ROOT
ATOM      1  C   UNL     1      34.066 -15.158 -22.852  0.00  0.00    +0.000 C 
ATOM      2  C   UNL     1      34.136 -15.215 -21.440  0.00  0.00    +0.000 C 
ATOM      3  C   UNL     1      33.290 -12.857 -22.709  0.00  0.00    +0.054 C 
ATOM      4  C   UNL     1      33.641 -13.971 -23.471  0.00  0.00    +0.005 C 
ATOM      5  C   UNL     1      33.779 -14.084 -20.688  0.00  0.00    +0.000 C 
ATOM      6  C   UNL     1      33.358 -12.913 -21.320  0.00  0.00    +0.005 C 
ATOM      7  C   UNL     1      34.562 -16.402 -20.820  0.00  0.00    +0.003 C 
ATOM      8  C   UNL     1      34.424 -16.289 -23.603  0.00  0.00    +0.000 C 
ATOM      9  C   UNL     1      34.914 -17.516 -21.582  0.00  0.00    +0.031 C 
ATOM     10  C   UNL     1      34.845 -17.460 -22.972  0.00  0.00    +0.003 C 
ENDROOT
BRANCH   9  13
ATOM     11  N   UNL     1      34.521 -19.853 -20.841  0.00  0.00    -0.343 N 
ATOM     12  N   UNL     1      36.558 -18.800 -20.391  0.00  0.00    -0.285 NA
ATOM     13  C   UNL     1      35.352 -18.737 -20.926  0.00  0.00    +0.117 C 
ATOM     14  H   UNL     1      34.838 -20.670 -20.392  0.00  0.00    +0.144 HD
ATOM     15  H   UNL     1      33.617 -19.825 -21.230  0.00  0.00    +0.144 HD
ATOM     16  H   UNL     1      36.857 -19.626 -19.946  0.00  0.00    +0.188 HD
ENDBRANCH   9  13
BRANCH   3  19
ATOM     17  O   UNL     1      32.731 -11.625 -24.602  0.00  0.00    -0.270 OA
ATOM     18  N   UNL     1      32.568 -10.554 -22.520  0.00  0.00    -0.280 N 
ATOM     19  C   UNL     1      32.850 -11.636 -23.365  0.00  0.00    +0.249 C 
ATOM     20  H   UNL     1      32.711 -10.714 -21.559  0.00  0.00    +0.155 HD
BRANCH  18  24
ATOM     21  C   UNL     1      32.544  -7.062 -23.715  0.00  0.00    +0.140 C 
ATOM     22  C   UNL     1      33.000  -8.335 -23.375  0.00  0.00    +0.052 C 
ATOM     23  C   UNL     1      31.199  -6.735 -23.543  0.00  0.00    +0.037 C 
ATOM     24  C   UNL     1      32.105  -9.262 -22.867  0.00  0.00    +0.054 C 
ATOM     25  C   UNL     1      30.311  -7.679 -23.030  0.00  0.00    +0.004 C 
ATOM     26  C   UNL     1      30.767  -8.952 -22.689  0.00  0.00    +0.015 C 
BRANCH  21  27
ATOM     27  O   UNL     1      33.410  -6.140 -24.215  0.00  0.00    -0.479 OA
BRANCH  27  28
ATOM     28  C   UNL     1      32.894  -5.218 -25.167  0.00  0.00    +0.166 C 
ATOM     29  C   UNL     1      33.181  -5.727 -26.572  0.00  0.00    +0.044 C 
ATOM     30  C   UNL     1      33.668  -3.910 -25.111  0.00  0.00    +0.044 C 
ATOM     31  C   UNL     1      34.643  -5.354 -26.823  0.00  0.00    +0.004 C 
ATOM     32  C   UNL     1      34.963  -4.208 -25.863  0.00  0.00    +0.004 C 
ENDBRANCH  27  28
ENDBRANCH  21  27
ENDBRANCH  18  24
ENDBRANCH   3  19
TORSDOF 5
ENDMDL
MODEL 3
REMARK VINA RESULT:     -12.5      5.902     12.719
REMARK  Name = 447734
REMARK  5 active torsions:
REMARK  status: ('A' for Active; 'I' for Inactive)
REMARK    1  A    between atoms: C_3  and  C_19
REMARK    2  A    between atoms: C_9  and  C_13
REMARK    3  A    between atoms: N_18  and  C_24
REMARK    4  A    between atoms: C_21  and  O_27
REMARK    5  A    between atoms: O_27  and  C_28
REMARK                            x       y       z     vdW  Elec       q    Type
REMARK                         _______ _______ _______ _____ _____    ______ ____
ROOT
ATOM      1  C   UNL     1      35.748 -21.913 -16.960  0.00  0.00    +0.000 C 
ATOM      2  C   UNL     1      34.798 -22.727 -16.299  0.00  0.00    +0.000 C 
ATOM      3  C   UNL     1      34.053 -21.274 -18.584  0.00  0.00    +0.054 C 
ATOM      4  C   UNL     1      35.359 -21.193 -18.101  0.00  0.00    +0.005 C 
ATOM      5  C   UNL     1      33.487 -22.798 -16.798  0.00  0.00    +0.000 C 
ATOM      6  C   UNL     1      33.119 -22.075 -17.934  0.00  0.00    +0.005 C 
ATOM      7  C   UNL     1      35.186 -23.448 -15.157  0.00  0.00    +0.003 C 
ATOM      8  C   UNL     1      37.059 -21.843 -16.460  0.00  0.00    +0.000 C 
ATOM      9  C   UNL     1      36.492 -23.366 -14.673  0.00  0.00    +0.031 C 
ATOM     10  C   UNL     1      37.427 -22.565 -15.324  0.00  0.00    +0.003 C 
ENDROOT
BRANCH   9  13
ATOM     11  N   UNL     1      36.127 -25.204 -13.045  0.00  0.00    -0.343 N 
ATOM     12  N   UNL     1      37.957 -23.771 -12.813  0.00  0.00    -0.285 NA
ATOM     13  C   UNL     1      36.878 -24.118 -13.490  0.00  0.00    +0.117 C 
ATOM     14  H   UNL     1      36.407 -25.700 -12.241  0.00  0.00    +0.144 HD
ATOM     15  H   UNL     1      35.317 -25.477 -13.535  0.00  0.00    +0.144 HD
ATOM     16  H   UNL     1      38.221 -24.279 -12.012  0.00  0.00    +0.188 HD
ENDBRANCH   9  13
BRANCH   3  19
ATOM     17  O   UNL     1      32.523 -20.668 -20.228  0.00  0.00    -0.270 OA
ATOM     18  N   UNL     1      34.640 -19.658 -20.287  0.00  0.00    -0.280 N 
ATOM     19  C   UNL     1      33.667 -20.523 -19.768  0.00  0.00    +0.249 C 
ATOM     20  H   UNL     1      35.503 -19.651 -19.814  0.00  0.00    +0.155 HD
BRANCH  18  24
ATOM     21  C   UNL     1      34.436 -16.570 -22.299  0.00  0.00    +0.140 C 
ATOM     22  C   UNL     1      34.533 -17.422 -21.200  0.00  0.00    +0.052 C 
ATOM     23  C   UNL     1      34.352 -17.100 -23.587  0.00  0.00    +0.037 C 
ATOM     24  C   UNL     1      34.544 -18.792 -21.404  0.00  0.00    +0.054 C 
ATOM     25  C   UNL     1      34.363 -18.482 -23.775  0.00  0.00    +0.004 C 
ATOM     26  C   UNL     1      34.460 -19.334 -22.675  0.00  0.00    +0.015 C 
BRANCH  21  27
ATOM     27  O   UNL     1      34.424 -15.222 -22.117  0.00  0.00    -0.479 OA
BRANCH  27  28
ATOM     28  C   UNL     1      33.152 -14.590 -22.041  0.00  0.00    +0.166 C 
ATOM     29  C   UNL     1      32.980 -13.657 -23.230  0.00  0.00    +0.044 C 
ATOM     30  C   UNL     1      33.099 -13.645 -20.852  0.00  0.00    +0.044 C 
ATOM     31  C   UNL     1      33.760 -12.400 -22.846  0.00  0.00    +0.004 C 
ATOM     32  C   UNL     1      33.864 -12.409 -21.321  0.00  0.00    +0.004 C 
ENDBRANCH  27  28
ENDBRANCH  21  27
ENDBRANCH  18  24
ENDBRANCH   3  19
TORSDOF 5
ENDMDL
MODEL 4
REMARK VINA RESULT:     -12.3      7.879     11.987
REMARK  Name = 447734
REMARK  5 active torsions:
REMARK  status: ('A' for Active; 'I' for Inactive)
REMARK    1  A    between atoms: C_3  and  C_19
REMARK    2  A    between atoms: C_9  and  C_13
REMARK    3  A    between atoms: N_18  and  C_24
REMARK    4  A    between atoms: C_21  and  O_27
REMARK    5  A    between atoms: O_27  and  C_28
REMARK                            x       y       z     vdW  Elec       q    Type
REMARK                         _______ _______ _______ _____ _____    ______ ____
ROOT
ATOM      1  C   UNL     1      35.147 -19.594 -20.446  0.00  0.00    +0.000 C 
ATOM      2  C   UNL     1      33.823 -19.579 -20.944  0.00  0.00    +0.000 C 
ATOM      3  C   UNL     1      34.453 -21.122 -18.685  0.00  0.00    +0.054 C 
ATOM      4  C   UNL     1      35.445 -20.372 -19.315  0.00  0.00    +0.005 C 
ATOM      5  C   UNL     1      32.836 -20.340 -20.298  0.00  0.00    +0.000 C 
ATOM      6  C   UNL     1      33.150 -21.106 -19.176  0.00  0.00    +0.005 C 
ATOM      7  C   UNL     1      33.525 -18.801 -22.076  0.00  0.00    +0.003 C 
ATOM      8  C   UNL     1      36.134 -18.833 -21.093  0.00  0.00    +0.000 C 
ATOM      9  C   UNL     1      34.518 -18.051 -22.707  0.00  0.00    +0.031 C 
ATOM     10  C   UNL     1      35.820 -18.067 -22.216  0.00  0.00    +0.003 C 
ENDROOT
BRANCH   9  13
ATOM     11  N   UNL     1      34.649 -15.942 -24.010  0.00  0.00    -0.343 N 
ATOM     12  N   UNL     1      33.445 -17.765 -24.838  0.00  0.00    -0.285 NA
ATOM     13  C   UNL     1      34.192 -17.252 -23.877  0.00  0.00    +0.117 C 
ATOM     14  H   UNL     1      34.417 -15.418 -24.811  0.00  0.00    +0.144 HD
ATOM     15  H   UNL     1      35.205 -15.540 -23.303  0.00  0.00    +0.144 HD
ATOM     16  H   UNL     1      33.224 -17.226 -25.631  0.00  0.00    +0.188 HD
ENDBRANCH   9  13
BRANCH   3  19
ATOM     17  O   UNL     1      35.947 -22.305 -17.351  0.00  0.00    -0.270 OA
ATOM     18  N   UNL     1      33.717 -22.175 -16.633  0.00  0.00    -0.280 N 
ATOM     19  C   UNL     1      34.777 -21.921 -17.514  0.00  0.00    +0.249 C 
ATOM     20  H   UNL     1      32.844 -21.806 -16.897  0.00  0.00    +0.155 HD
BRANCH  18  24
ATOM     21  C   UNL     1      34.966 -23.812 -13.570  0.00  0.00    +0.140 C 
ATOM     22  C   UNL     1      34.946 -23.102 -14.770  0.00  0.00    +0.052 C 
ATOM     23  C   UNL     1      33.777 -24.304 -13.031  0.00  0.00    +0.037 C 
ATOM     24  C   UNL     1      33.737 -22.895 -15.413  0.00  0.00    +0.054 C 
ATOM     25  C   UNL     1      32.569 -24.087 -13.692  0.00  0.00    +0.004 C 
ATOM     26  C   UNL     1      32.548 -23.377 -14.892  0.00  0.00    +0.015 C 
BRANCH  21  27
ATOM     27  O   UNL     1      36.145 -24.025 -12.925  0.00  0.00    -0.479 OA
BRANCH  27  28
ATOM     28  C   UNL     1      36.542 -25.377 -12.732  0.00  0.00    +0.166 C 
ATOM     29  C   UNL     1      37.923 -25.413 -12.094  0.00  0.00    +0.044 C 
ATOM     30  C   UNL     1      36.766 -26.059 -14.073  0.00  0.00    +0.044 C 
ATOM     31  C   UNL     1      38.887 -25.168 -13.255  0.00  0.00    +0.004 C 
ATOM     32  C   UNL     1      38.133 -25.554 -14.527  0.00  0.00    +0.004 C 
ENDBRANCH  27  28
ENDBRANCH  21  27
ENDBRANCH  18  24
ENDBRANCH   3  19
TORSDOF 5
ENDMDL
MODEL 5
REMARK VINA RESULT:     -12.1      3.196     10.133
REMARK  Name = 447734
REMARK  5 active torsions:
REMARK  status: ('A' for Active; 'I' for Inactive)
REMARK    1  A    between atoms: C_3  and  C_19
REMARK    2  A    between atoms: C_9  and  C_13
REMARK    3  A    between atoms: N_18  and  C_24
REMARK    4  A    between atoms: C_21  and  O_27
REMARK    5  A    between atoms: O_27  and  C_28
REMARK                            x       y       z     vdW  Elec       q    Type
REMARK                         _______ _______ _______ _____ _____    ______ ____
ROOT
ATOM      1  C   UNL     1      33.262 -13.512 -22.517  0.00  0.00    +0.000 C 
ATOM      2  C   UNL     1      33.218 -14.104 -21.232  0.00  0.00    +0.000 C 
ATOM      3  C   UNL     1      31.908 -11.664 -21.698  0.00  0.00    +0.054 C 
ATOM      4  C   UNL     1      32.601 -12.292 -22.733  0.00  0.00    +0.005 C 
ATOM      5  C   UNL     1      32.516 -13.460 -20.202  0.00  0.00    +0.000 C 
ATOM      6  C   UNL     1      31.865 -12.247 -20.434  0.00  0.00    +0.005 C 
ATOM      7  C   UNL     1      33.879 -15.326 -21.016  0.00  0.00    +0.003 C 
ATOM      8  C   UNL     1      33.964 -14.158 -23.548  0.00  0.00    +0.000 C 
ATOM      9  C   UNL     1      34.573 -15.953 -22.051  0.00  0.00    +0.031 C 
ATOM     10  C   UNL     1      34.616 -15.370 -23.315  0.00  0.00    +0.003 C 
ENDROOT
BRANCH   9  13
ATOM     11  N   UNL     1      35.581 -18.073 -22.860  0.00  0.00    -0.343 N 
ATOM     12  N   UNL     1      35.563 -17.572 -20.578  0.00  0.00    -0.285 NA
ATOM     13  C   UNL     1      35.252 -17.216 -21.811  0.00  0.00    +0.117 C 
ATOM     14  H   UNL     1      36.041 -18.923 -22.675  0.00  0.00    +0.144 HD
ATOM     15  H   UNL     1      35.354 -17.827 -23.786  0.00  0.00    +0.144 HD
ATOM     16  H   UNL     1      36.023 -18.426 -20.413  0.00  0.00    +0.188 HD
ENDBRANCH   9  13
BRANCH   3  19
ATOM     17  O   UNL     1      29.992 -10.350 -21.825  0.00  0.00    -0.270 OA
ATOM     18  N   UNL     1      32.053  -9.315 -22.263  0.00  0.00    -0.280 N 
ATOM     19  C   UNL     1      31.228 -10.402 -21.938  0.00  0.00    +0.249 C 
ATOM     20  H   UNL     1      33.016  -9.510 -22.317  0.00  0.00    +0.155 HD
BRANCH  18  24
ATOM     21  C   UNL     1      31.470  -6.143 -24.058  0.00  0.00    +0.140 C 
ATOM     22  C   UNL     1      31.835  -7.464 -23.802  0.00  0.00    +0.052 C 
ATOM     23  C   UNL     1      30.956  -5.351 -23.032  0.00  0.00    +0.037 C 
ATOM     24  C   UNL     1      31.681  -7.974 -22.523  0.00  0.00    +0.054 C 
ATOM     25  C   UNL     1      30.808  -5.879 -21.749  0.00  0.00    +0.004 C 
ATOM     26  C   UNL     1      31.173  -7.200 -21.493  0.00  0.00    +0.015 C 
BRANCH  21  27
ATOM     27  O   UNL     1      31.615  -5.627 -25.308  0.00  0.00    -0.479 OA
BRANCH  27  28
ATOM     28  C   UNL     1      32.463  -4.494 -25.447  0.00  0.00    +0.166 C 
ATOM     29  C   UNL     1      32.665  -4.191 -26.923  0.00  0.00    +0.044 C 
ATOM     30  C   UNL     1      33.868  -4.822 -24.968  0.00  0.00    +0.044 C 
ATOM     31  C   UNL     1      33.728  -5.191 -27.378  0.00  0.00    +0.004 C 
ATOM     32  C   UNL     1      34.479  -5.620 -26.118  0.00  0.00    +0.004 C 
ENDBRANCH  27  28
ENDBRANCH  21  27
ENDBRANCH  18  24
ENDBRANCH   3  19
TORSDOF 5
ENDMDL
MODEL 6
REMARK VINA RESULT:     -12.1      5.327      9.104
REMARK  Name = 447734
REMARK  5 active torsions:
REMARK  status: ('A' for Active; 'I' for Inactive)
REMARK    1  A    between atoms: C_3  and  C_19
REMARK    2  A    between atoms: C_9  and  C_13
REMARK    3  A    between atoms: N_18  and  C_24
REMARK    4  A    between atoms: C_21  and  O_27
REMARK    5  A    between atoms: O_27  and  C_28
REMARK                            x       y       z     vdW  Elec       q    Type
REMARK                         _______ _______ _______ _____ _____    ______ ____
ROOT
ATOM      1  C   UNL     1      34.268 -16.227 -22.258  0.00  0.00    +0.000 C 
ATOM      2  C   UNL     1      33.923 -16.727 -23.536  0.00  0.00    +0.000 C 
ATOM      3  C   UNL     1      34.725 -18.495 -21.508  0.00  0.00    +0.054 C 
ATOM      4  C   UNL     1      34.667 -17.125 -21.255  0.00  0.00    +0.005 C 
ATOM      5  C   UNL     1      33.987 -18.109 -23.774  0.00  0.00    +0.000 C 
ATOM      6  C   UNL     1      34.386 -18.986 -22.765  0.00  0.00    +0.005 C 
ATOM      7  C   UNL     1      33.524 -15.828 -24.540  0.00  0.00    +0.003 C 
ATOM      8  C   UNL     1      34.204 -14.844 -22.021  0.00  0.00    +0.000 C 
ATOM      9  C   UNL     1      33.467 -14.457 -24.288  0.00  0.00    +0.031 C 
ATOM     10  C   UNL     1      33.807 -13.966 -23.030  0.00  0.00    +0.003 C 
ENDROOT
BRANCH   9  13
ATOM     11  N   UNL     1      32.615 -12.251 -25.043  0.00  0.00    -0.343 N 
ATOM     12  N   UNL     1      33.081 -13.930 -26.600  0.00  0.00    -0.285 NA
ATOM     13  C   UNL     1      33.052 -13.541 -25.338  0.00  0.00    +0.117 C 
ATOM     14  H   UNL     1      32.339 -11.647 -25.770  0.00  0.00    +0.144 HD
ATOM     15  H   UNL     1      32.583 -11.944 -24.108  0.00  0.00    +0.144 HD
ATOM     16  H   UNL     1      32.801 -13.311 -27.312  0.00  0.00    +0.188 HD
ENDBRANCH   9  13
BRANCH   3  19
ATOM     17  O   UNL     1      36.348 -19.519 -20.192  0.00  0.00    -0.270 OA
ATOM     18  N   UNL     1      34.107 -20.096 -19.801  0.00  0.00    -0.280 N 
ATOM     19  C   UNL     1      35.139 -19.412 -20.457  0.00  0.00    +0.249 C 
ATOM     20  H   UNL     1      33.197 -19.908 -20.123  0.00  0.00    +0.155 HD
BRANCH  18  24
ATOM     21  C   UNL     1      33.154 -22.574 -17.237  0.00  0.00    +0.140 C 
ATOM     22  C   UNL     1      33.059 -21.663 -18.288  0.00  0.00    +0.052 C 
ATOM     23  C   UNL     1      34.392 -22.833 -16.648  0.00  0.00    +0.037 C 
ATOM     24  C   UNL     1      34.203 -21.023 -18.734  0.00  0.00    +0.054 C 
ATOM     25  C   UNL     1      35.534 -22.180 -17.110  0.00  0.00    +0.004 C 
ATOM     26  C   UNL     1      35.439 -21.269 -18.160  0.00  0.00    +0.015 C 
BRANCH  21  27
ATOM     27  O   UNL     1      32.040 -23.212 -16.786  0.00  0.00    -0.479 OA
BRANCH  27  28
ATOM     28  C   UNL     1      31.182 -22.480 -15.919  0.00  0.00    +0.166 C 
ATOM     29  C   UNL     1      31.503 -22.832 -14.474  0.00  0.00    +0.044 C 
ATOM     30  C   UNL     1      29.744 -22.950 -16.076  0.00  0.00    +0.044 C 
ATOM     31  C   UNL     1      30.798 -24.168 -14.240  0.00  0.00    +0.004 C 
ATOM     32  C   UNL     1      29.689 -24.257 -15.289  0.00  0.00    +0.004 C 
ENDBRANCH  27  28
ENDBRANCH  21  27
ENDBRANCH  18  24
ENDBRANCH   3  19
TORSDOF 5
ENDMDL
MODEL 7
REMARK VINA RESULT:     -11.9      3.021     10.420
REMARK  Name = 447734
REMARK  5 active torsions:
REMARK  status: ('A' for Active; 'I' for Inactive)
REMARK    1  A    between atoms: C_3  and  C_19
REMARK    2  A    between atoms: C_9  and  C_13
REMARK    3  A    between atoms: N_18  and  C_24
REMARK    4  A    between atoms: C_21  and  O_27
REMARK    5  A    between atoms: O_27  and  C_28
REMARK                            x       y       z     vdW  Elec       q    Type
REMARK                         _______ _______ _______ _____ _____    ______ ____
ROOT
ATOM      1  C   UNL     1      34.218 -15.200 -22.859  0.00  0.00    +0.000 C 
ATOM      2  C   UNL     1      34.209 -15.252 -21.445  0.00  0.00    +0.000 C 
ATOM      3  C   UNL     1      33.552 -12.862 -22.766  0.00  0.00    +0.054 C 
ATOM      4  C   UNL     1      33.887 -13.997 -23.504  0.00  0.00    +0.005 C 
ATOM      5  C   UNL     1      33.870 -14.100 -20.717  0.00  0.00    +0.000 C 
ATOM      6  C   UNL     1      33.543 -12.913 -21.375  0.00  0.00    +0.005 C 
ATOM      7  C   UNL     1      34.541 -16.455 -20.799  0.00  0.00    +0.003 C 
ATOM      8  C   UNL     1      34.558 -16.353 -23.586  0.00  0.00    +0.000 C 
ATOM      9  C   UNL     1      34.877 -17.590 -21.538  0.00  0.00    +0.031 C 
ATOM     10  C   UNL     1      34.885 -17.539 -22.929  0.00  0.00    +0.003 C 
ENDROOT
BRANCH   9  13
ATOM     11  N   UNL     1      34.301 -19.872 -20.748  0.00  0.00    -0.343 N 
ATOM     12  N   UNL     1      36.414 -18.973 -20.314  0.00  0.00    -0.285 NA
ATOM     13  C   UNL     1      35.217 -18.828 -20.854  0.00  0.00    +0.117 C 
ATOM     14  H   UNL     1      34.553 -20.702 -20.281  0.00  0.00    +0.144 HD
ATOM     15  H   UNL     1      33.403 -19.782 -21.141  0.00  0.00    +0.144 HD
ATOM     16  H   UNL     1      36.647 -19.811 -19.852  0.00  0.00    +0.188 HD
ENDBRANCH   9  13
BRANCH   3  19
ATOM     17  O   UNL     1      32.451 -11.668 -24.431  0.00  0.00    -0.270 OA
ATOM     18  N   UNL     1      33.765 -10.456 -22.911  0.00  0.00    -0.280 N 
ATOM     19  C   UNL     1      33.210 -11.625 -23.449  0.00  0.00    +0.249 C 
ATOM     20  H   UNL     1      34.350 -10.580 -22.130  0.00  0.00    +0.155 HD
BRANCH  18  24
ATOM     21  C   UNL     1      32.221  -7.159 -23.523  0.00  0.00    +0.140 C 
ATOM     22  C   UNL     1      32.391  -8.475 -23.096  0.00  0.00    +0.052 C 
ATOM     23  C   UNL     1      33.256  -6.505 -24.193  0.00  0.00    +0.037 C 
ATOM     24  C   UNL     1      33.593  -9.118 -23.344  0.00  0.00    +0.054 C 
ATOM     25  C   UNL     1      34.459  -7.167 -24.435  0.00  0.00    +0.004 C 
ATOM     26  C   UNL     1      34.629  -8.483 -24.007  0.00  0.00    +0.015 C 
BRANCH  21  27
ATOM     27  O   UNL     1      31.048  -6.513 -23.288  0.00  0.00    -0.479 OA
BRANCH  27  28
ATOM     28  C   UNL     1      30.778  -6.130 -21.945  0.00  0.00    +0.166 C 
ATOM     29  C   UNL     1      29.670  -5.087 -21.929  0.00  0.00    +0.044 C 
ATOM     30  C   UNL     1      31.964  -5.380 -21.359  0.00  0.00    +0.044 C 
ATOM     31  C   UNL     1      30.372  -3.778 -22.288  0.00  0.00    +0.004 C 
ATOM     32  C   UNL     1      31.850  -3.977 -21.952  0.00  0.00    +0.004 C 
ENDBRANCH  27  28
ENDBRANCH  21  27
ENDBRANCH  18  24
ENDBRANCH   3  19
TORSDOF 5
ENDMDL
MODEL 8
REMARK VINA RESULT:     -11.7      3.769      7.330
REMARK  Name = 447734
REMARK  5 active torsions:
REMARK  status: ('A' for Active; 'I' for Inactive)
REMARK    1  A    between atoms: C_3  and  C_19
REMARK    2  A    between atoms: C_9  and  C_13
REMARK    3  A    between atoms: N_18  and  C_24
REMARK    4  A    between atoms: C_21  and  O_27
REMARK    5  A    between atoms: O_27  and  C_28
REMARK                            x       y       z     vdW  Elec       q    Type
REMARK                         _______ _______ _______ _____ _____    ______ ____
ROOT
ATOM      1  C   UNL     1      34.002 -14.823 -21.621  0.00  0.00    +0.000 C 
ATOM      2  C   UNL     1      34.024 -14.629 -23.022  0.00  0.00    +0.000 C 
ATOM      3  C   UNL     1      34.556 -17.169 -21.948  0.00  0.00    +0.054 C 
ATOM      4  C   UNL     1      34.270 -16.099 -21.100  0.00  0.00    +0.005 C 
ATOM      5  C   UNL     1      34.313 -15.717 -23.862  0.00  0.00    +0.000 C 
ATOM      6  C   UNL     1      34.577 -16.978 -23.327  0.00  0.00    +0.005 C 
ATOM      7  C   UNL     1      33.756 -13.352 -23.543  0.00  0.00    +0.003 C 
ATOM      8  C   UNL     1      33.713 -13.734 -20.781  0.00  0.00    +0.000 C 
ATOM      9  C   UNL     1      33.471 -12.282 -22.695  0.00  0.00    +0.031 C 
ATOM     10  C   UNL     1      33.450 -12.473 -21.316  0.00  0.00    +0.003 C 
ENDROOT
BRANCH   9  13
ATOM     11  N   UNL     1      31.960 -10.349 -23.071  0.00  0.00    -0.343 N 
ATOM     12  N   UNL     1      34.127 -10.338 -23.946  0.00  0.00    -0.285 NA
ATOM     13  C   UNL     1      33.196 -10.967 -23.250  0.00  0.00    +0.117 C 
ATOM     14  H   UNL     1      31.795  -9.457 -23.456  0.00  0.00    +0.144 HD
ATOM     15  H   UNL     1      31.252 -10.802 -22.559  0.00  0.00    +0.144 HD
ATOM     16  H   UNL     1      33.943  -9.447 -24.322  0.00  0.00    +0.188 HD
ENDBRANCH   9  13
BRANCH   3  19
ATOM     17  O   UNL     1      35.874 -19.073 -21.721  0.00  0.00    -0.270 OA
ATOM     18  N   UNL     1      33.878 -18.978 -20.490  0.00  0.00    -0.280 N 
ATOM     19  C   UNL     1      34.830 -18.484 -21.393  0.00  0.00    +0.249 C 
ATOM     20  H   UNL     1      33.100 -18.398 -20.329  0.00  0.00    +0.155 HD
BRANCH  18  24
ATOM     21  C   UNL     1      35.029 -21.770 -18.368  0.00  0.00    +0.140 C 
ATOM     22  C   UNL     1      35.018 -20.562 -19.065  0.00  0.00    +0.052 C 
ATOM     23  C   UNL     1      33.910 -22.602 -18.398  0.00  0.00    +0.037 C 
ATOM     24  C   UNL     1      33.888 -20.205 -19.781  0.00  0.00    +0.054 C 
ATOM     25  C   UNL     1      32.780 -22.227 -19.124  0.00  0.00    +0.004 C 
ATOM     26  C   UNL     1      32.769 -21.019 -19.821  0.00  0.00    +0.015 C 
BRANCH  21  27
ATOM     27  O   UNL     1      36.131 -22.137 -17.660  0.00  0.00    -0.479 OA
BRANCH  27  28
ATOM     28  C   UNL     1      36.325 -21.514 -16.396  0.00  0.00    +0.166 C 
ATOM     29  C   UNL     1      37.615 -22.025 -15.772  0.00  0.00    +0.044 C 
ATOM     30  C   UNL     1      35.262 -21.974 -15.410  0.00  0.00    +0.044 C 
ATOM     31  C   UNL     1      37.242 -23.385 -15.180  0.00  0.00    +0.004 C 
ATOM     32  C   UNL     1      35.727 -23.362 -14.977  0.00  0.00    +0.004 C 
ENDBRANCH  27  28
ENDBRANCH  21  27
ENDBRANCH  18  24
ENDBRANCH   3  19
TORSDOF 5
ENDMDL
MODEL 9
REMARK VINA RESULT:     -11.5      5.431      9.170
REMARK  Name = 447734
REMARK  5 active torsions:
REMARK  status: ('A' for Active; 'I' for Inactive)
REMARK    1  A    between atoms: C_3  and  C_19
REMARK    2  A    between atoms: C_9  and  C_13
REMARK    3  A    between atoms: N_18  and  C_24
REMARK    4  A    between atoms: C_21  and  O_27
REMARK    5  A    between atoms: O_27  and  C_28
REMARK                            x       y       z     vdW  Elec       q    Type
REMARK                         _______ _______ _______ _____ _____    ______ ____
ROOT
ATOM      1  C   UNL     1      34.223 -16.506 -21.988  0.00  0.00    +0.000 C 
ATOM      2  C   UNL     1      33.955 -16.946 -23.306  0.00  0.00    +0.000 C 
ATOM      3  C   UNL     1      34.562 -18.813 -21.298  0.00  0.00    +0.054 C 
ATOM      4  C   UNL     1      34.524 -17.452 -20.995  0.00  0.00    +0.005 C 
ATOM      5  C   UNL     1      33.997 -18.320 -23.593  0.00  0.00    +0.000 C 
ATOM      6  C   UNL     1      34.299 -19.246 -22.594  0.00  0.00    +0.005 C 
ATOM      7  C   UNL     1      33.653 -15.999 -24.299  0.00  0.00    +0.003 C 
ATOM      8  C   UNL     1      34.181 -15.131 -21.701  0.00  0.00    +0.000 C 
ATOM      9  C   UNL     1      33.617 -14.637 -23.997  0.00  0.00    +0.031 C 
ATOM     10  C   UNL     1      33.880 -14.204 -22.700  0.00  0.00    +0.003 C 
ENDROOT
BRANCH   9  13
ATOM     11  N   UNL     1      33.154 -12.315 -24.744  0.00  0.00    -0.343 N 
ATOM     12  N   UNL     1      33.147 -14.072 -26.284  0.00  0.00    -0.285 NA
ATOM     13  C   UNL     1      33.303 -13.670 -25.036  0.00  0.00    +0.117 C 
ATOM     14  H   UNL     1      32.942 -11.677 -25.464  0.00  0.00    +0.144 HD
ATOM     15  H   UNL     1      33.263 -11.996 -23.819  0.00  0.00    +0.144 HD
ATOM     16  H   UNL     1      32.935 -13.419 -26.990  0.00  0.00    +0.188 HD
ENDBRANCH   9  13
BRANCH   3  19
ATOM     17  O   UNL     1      36.065 -20.011 -19.987  0.00  0.00    -0.270 OA
ATOM     18  N   UNL     1      33.775 -20.369 -19.619  0.00  0.00    -0.280 N 
ATOM     19  C   UNL     1      34.875 -19.781 -20.258  0.00  0.00    +0.249 C 
ATOM     20  H   UNL     1      32.890 -20.087 -19.944  0.00  0.00    +0.155 HD
BRANCH  18  24
ATOM     21  C   UNL     1      34.934 -22.478 -16.820  0.00  0.00    +0.140 C 
ATOM     22  C   UNL     1      34.938 -21.544 -17.856  0.00  0.00    +0.052 C 
ATOM     23  C   UNL     1      33.763 -23.169 -16.509  0.00  0.00    +0.037 C 
ATOM     24  C   UNL     1      33.771 -21.316 -18.565  0.00  0.00    +0.054 C 
ATOM     25  C   UNL     1      32.596 -22.927 -17.234  0.00  0.00    +0.004 C 
ATOM     26  C   UNL     1      32.600 -21.994 -18.270  0.00  0.00    +0.015 C 
BRANCH  21  27
ATOM     27  O   UNL     1      36.072 -22.714 -16.112  0.00  0.00    -0.479 OA
BRANCH  27  28
ATOM     28  C   UNL     1      35.922 -23.034 -14.734  0.00  0.00    +0.166 C 
ATOM     29  C   UNL     1      37.259 -22.869 -14.029  0.00  0.00    +0.044 C 
ATOM     30  C   UNL     1      35.624 -24.515 -14.563  0.00  0.00    +0.044 C 
ATOM     31  C   UNL     1      38.030 -24.146 -14.365  0.00  0.00    +0.004 C 
ATOM     32  C   UNL     1      36.981 -25.193 -14.738  0.00  0.00    +0.004 C 
ENDBRANCH  27  28
ENDBRANCH  21  27
ENDBRANCH  18  24
ENDBRANCH   3  19
TORSDOF 5
ENDMDL
