MODEL 1
REMARK VINA RESULT:     -13.0      0.000      0.000
REMARK  Name = 449087
REMARK  3 active torsions:
REMARK  status: ('A' for Active; 'I' for Inactive)
REMARK    1  A    between atoms: C_5  and  C_11
REMARK    2  A    between atoms: C_8  and  C_14
REMARK    3  A    between atoms: C_14  and  C_15
REMARK                            x       y       z     vdW  Elec       q    Type
REMARK                         _______ _______ _______ _____ _____    ______ ____
ROOT
ATOM      1  O   UNL     1      34.964 -16.769 -20.768  0.00  0.00    -0.274 OA
ATOM      2  N   UNL     1      33.427 -14.993 -25.048  0.00  0.00    -0.239 N 
ATOM      3  N   UNL     1      33.895 -16.245 -24.903  0.00  0.00    -0.166 NA
ATOM      4  N   UNL     1      34.717 -17.438 -23.006  0.00  0.00    -0.268 N 
ATOM      5  C   UNL     1      33.424 -14.269 -23.892  0.00  0.00    +0.045 C 
ATOM      6  C   UNL     1      33.922 -15.104 -22.923  0.00  0.00    +0.048 C 
ATOM      7  C   UNL     1      34.189 -16.291 -23.611  0.00  0.00    +0.152 C 
ATOM      8  C   UNL     1      35.060 -17.598 -21.666  0.00  0.00    +0.232 C 
ATOM      9  H   UNL     1      33.117 -14.632 -25.909  0.00  0.00    +0.174 HD
ATOM     10  H   UNL     1      34.861 -18.217 -23.591  0.00  0.00    +0.156 HD
ENDROOT
BRANCH   5  11
ATOM     11  C   UNL     1      32.958 -12.829 -23.721  0.00  0.00    +0.037 C 
ATOM     12  C   UNL     1      31.998 -12.495 -22.606  0.00  0.00    +0.006 C 
ATOM     13  C   UNL     1      33.427 -12.042 -22.523  0.00  0.00    +0.006 C 
ENDBRANCH   5  11
BRANCH   8  14
ATOM     14  C   UNL     1      35.600 -19.002 -21.408  0.00  0.00    +0.112 C 
BRANCH  14  15
ATOM     15  C   UNL     1      34.756 -19.817 -20.486  0.00  0.00    -0.013 C 
ATOM     16  C   UNL     1      34.567 -21.279 -18.552  0.00  0.00    -0.000 C 
ATOM     17  C   UNL     1      35.348 -20.509 -19.429  0.00  0.00    -0.004 C 
ATOM     18  C   UNL     1      33.167 -21.347 -18.748  0.00  0.00    -0.000 C 
ATOM     19  C   UNL     1      33.380 -19.884 -20.679  0.00  0.00    -0.004 C 
ATOM     20  C   UNL     1      32.590 -20.643 -19.818  0.00  0.00    -0.000 C 
ATOM     21  C   UNL     1      35.145 -21.983 -17.482  0.00  0.00    -0.000 C 
ATOM     22  C   UNL     1      32.387 -22.118 -17.870  0.00  0.00    -0.000 C 
ATOM     23  C   UNL     1      34.354 -22.744 -16.621  0.00  0.00    -0.000 C 
ATOM     24  C   UNL     1      32.978 -22.811 -16.814  0.00  0.00    -0.000 C 
ENDBRANCH  14  15
ENDBRANCH   8  14
TORSDOF 3
ENDMDL
MODEL 2
REMARK VINA RESULT:     -13.0      1.425      2.618
REMARK  Name = 449087
REMARK  3 active torsions:
REMARK  status: ('A' for Active; 'I' for Inactive)
REMARK    1  A    between atoms: C_5  and  C_11
REMARK    2  A    between atoms: C_8  and  C_14
REMARK    3  A    between atoms: C_14  and  C_15
REMARK                            x       y       z     vdW  Elec       q    Type
REMARK                         _______ _______ _______ _____ _____    ______ ____
ROOT
ATOM      1  O   UNL     1      34.503 -15.696 -21.007  0.00  0.00    -0.274 OA
ATOM      2  N   UNL     1      32.434 -12.359 -23.911  0.00  0.00    -0.239 N 
ATOM      3  N   UNL     1      32.966 -13.503 -24.376  0.00  0.00    -0.166 NA
ATOM      4  N   UNL     1      34.038 -15.333 -23.282  0.00  0.00    -0.268 N 
ATOM      5  C   UNL     1      32.529 -12.219 -22.557  0.00  0.00    +0.045 C 
ATOM      6  C   UNL     1      33.163 -13.349 -22.105  0.00  0.00    +0.048 C 
ATOM      7  C   UNL     1      33.401 -14.086 -23.268  0.00  0.00    +0.152 C 
ATOM      8  C   UNL     1      34.533 -16.035 -22.185  0.00  0.00    +0.232 C 
ATOM      9  H   UNL     1      32.017 -11.685 -24.493  0.00  0.00    +0.174 HD
ATOM     10  H   UNL     1      34.149 -15.760 -24.162  0.00  0.00    +0.156 HD
ENDROOT
BRANCH   5  11
ATOM     11  C   UNL     1      32.026 -11.046 -21.726  0.00  0.00    +0.037 C 
ATOM     12  C   UNL     1      30.552 -10.935 -21.426  0.00  0.00    +0.006 C 
ATOM     13  C   UNL     1      31.512 -11.299 -20.331  0.00  0.00    +0.006 C 
ENDBRANCH   5  11
BRANCH   8  14
ATOM     14  C   UNL     1      35.155 -17.358 -22.624  0.00  0.00    +0.112 C 
BRANCH  14  15
ATOM     15  C   UNL     1      35.121 -18.421 -21.577  0.00  0.00    -0.013 C 
ATOM     16  C   UNL     1      33.859 -20.004 -20.229  0.00  0.00    -0.000 C 
ATOM     17  C   UNL     1      33.907 -19.003 -21.213  0.00  0.00    -0.004 C 
ATOM     18  C   UNL     1      35.059 -20.421 -19.607  0.00  0.00    -0.000 C 
ATOM     19  C   UNL     1      36.301 -18.831 -20.965  0.00  0.00    -0.004 C 
ATOM     20  C   UNL     1      36.272 -19.824 -19.986  0.00  0.00    -0.000 C 
ATOM     21  C   UNL     1      32.644 -20.600 -19.850  0.00  0.00    -0.000 C 
ATOM     22  C   UNL     1      35.010 -21.423 -18.623  0.00  0.00    -0.000 C 
ATOM     23  C   UNL     1      32.615 -21.593 -18.870  0.00  0.00    -0.000 C 
ATOM     24  C   UNL     1      33.795 -22.004 -18.258  0.00  0.00    -0.000 C 
ENDBRANCH  14  15
ENDBRANCH   8  14
TORSDOF 3
ENDMDL
MODEL 3
REMARK VINA RESULT:     -12.9      2.385      8.178
REMARK  Name = 449087
REMARK  3 active torsions:
REMARK  status: ('A' for Active; 'I' for Inactive)
REMARK    1  A    between atoms: C_5  and  C_11
REMARK    2  A    between atoms: C_8  and  C_14
REMARK    3  A    between atoms: C_14  and  C_15
REMARK                            x       y       z     vdW  Elec       q    Type
REMARK                         _______ _______ _______ _____ _____    ______ ____
ROOT
ATOM      1  O   UNL     1      33.639 -19.385 -21.731  0.00  0.00    -0.274 OA
ATOM      2  N   UNL     1      35.304 -21.726 -17.783  0.00  0.00    -0.239 N 
ATOM      3  N   UNL     1      36.045 -20.844 -18.475  0.00  0.00    -0.166 NA
ATOM      4  N   UNL     1      35.579 -19.533 -20.414  0.00  0.00    -0.268 N 
ATOM      5  C   UNL     1      34.048 -21.905 -18.286  0.00  0.00    +0.045 C 
ATOM      6  C   UNL     1      33.961 -21.082 -19.382  0.00  0.00    +0.048 C 
ATOM      7  C   UNL     1      35.215 -20.467 -19.437  0.00  0.00    +0.152 C 
ATOM      8  C   UNL     1      34.793 -19.066 -21.465  0.00  0.00    +0.232 C 
ATOM      9  H   UNL     1      35.636 -22.199 -16.987  0.00  0.00    +0.174 HD
ATOM     10  H   UNL     1      36.490 -19.164 -20.352  0.00  0.00    +0.156 HD
ENDROOT
BRANCH   5  11
ATOM     11  C   UNL     1      32.969 -22.828 -17.735  0.00  0.00    +0.037 C 
ATOM     12  C   UNL     1      32.745 -22.890 -16.245  0.00  0.00    +0.006 C 
ATOM     13  C   UNL     1      31.727 -22.227 -17.126  0.00  0.00    +0.006 C 
ENDBRANCH   5  11
BRANCH   8  14
ATOM     14  C   UNL     1      35.560 -18.050 -22.307  0.00  0.00    +0.112 C 
BRANCH  14  15
ATOM     15  C   UNL     1      34.803 -16.792 -22.577  0.00  0.00    -0.013 C 
ATOM     16  C   UNL     1      33.806 -14.726 -21.771  0.00  0.00    -0.000 C 
ATOM     17  C   UNL     1      34.517 -15.913 -21.533  0.00  0.00    -0.004 C 
ATOM     18  C   UNL     1      33.381 -14.425 -23.086  0.00  0.00    -0.000 C 
ATOM     19  C   UNL     1      34.386 -16.497 -23.871  0.00  0.00    -0.004 C 
ATOM     20  C   UNL     1      33.679 -15.321 -24.125  0.00  0.00    -0.000 C 
ATOM     21  C   UNL     1      33.507 -13.830 -20.730  0.00  0.00    -0.000 C 
ATOM     22  C   UNL     1      32.670 -13.237 -23.324  0.00  0.00    -0.000 C 
ATOM     23  C   UNL     1      32.800 -12.655 -20.985  0.00  0.00    -0.000 C 
ATOM     24  C   UNL     1      32.382 -12.359 -22.279  0.00  0.00    -0.000 C 
ENDBRANCH  14  15
ENDBRANCH   8  14
TORSDOF 3
ENDMDL
MODEL 4
REMARK VINA RESULT:     -12.8      1.685      1.936
REMARK  Name = 449087
REMARK  3 active torsions:
REMARK  status: ('A' for Active; 'I' for Inactive)
REMARK    1  A    between atoms: C_5  and  C_11
REMARK    2  A    between atoms: C_8  and  C_14
REMARK    3  A    between atoms: C_14  and  C_15
REMARK                            x       y       z     vdW  Elec       q    Type
REMARK                         _______ _______ _______ _____ _____    ______ ____
ROOT
ATOM      1  O   UNL     1      34.632 -17.178 -23.615  0.00  0.00    -0.274 OA
ATOM      2  N   UNL     1      33.445 -13.409 -20.748  0.00  0.00    -0.239 N 
ATOM      3  N   UNL     1      34.041 -14.520 -20.283  0.00  0.00    -0.166 NA
ATOM      4  N   UNL     1      34.758 -16.525 -21.362  0.00  0.00    -0.268 N 
ATOM      5  C   UNL     1      33.202 -13.434 -22.090  0.00  0.00    +0.045 C 
ATOM      6  C   UNL     1      33.674 -14.644 -22.535  0.00  0.00    +0.048 C 
ATOM      7  C   UNL     1      34.171 -15.254 -21.379  0.00  0.00    +0.152 C 
ATOM      8  C   UNL     1      34.945 -17.378 -22.447  0.00  0.00    +0.232 C 
ATOM      9  H   UNL     1      33.204 -12.647 -20.173  0.00  0.00    +0.174 HD
ATOM     10  H   UNL     1      35.074 -16.851 -20.488  0.00  0.00    +0.156 HD
ENDROOT
BRANCH   5  11
ATOM     11  C   UNL     1      32.545 -12.338 -22.918  0.00  0.00    +0.037 C 
ATOM     12  C   UNL     1      33.409 -11.273 -23.548  0.00  0.00    +0.006 C 
ATOM     13  C   UNL     1      32.759 -12.315 -24.411  0.00  0.00    +0.006 C 
ENDBRANCH   5  11
BRANCH   8  14
ATOM     14  C   UNL     1      35.625 -18.673 -22.007  0.00  0.00    +0.112 C 
BRANCH  14  15
ATOM     15  C   UNL     1      34.822 -19.482 -21.045  0.00  0.00    -0.013 C 
ATOM     16  C   UNL     1      34.716 -20.937 -19.099  0.00  0.00    -0.000 C 
ATOM     17  C   UNL     1      35.458 -20.171 -20.013  0.00  0.00    -0.004 C 
ATOM     18  C   UNL     1      33.309 -21.003 -19.233  0.00  0.00    -0.000 C 
ATOM     19  C   UNL     1      33.438 -19.547 -21.177  0.00  0.00    -0.004 C 
ATOM     20  C   UNL     1      32.685 -20.302 -20.278  0.00  0.00    -0.000 C 
ATOM     21  C   UNL     1      35.341 -21.639 -18.054  0.00  0.00    -0.000 C 
ATOM     22  C   UNL     1      32.567 -21.769 -18.318  0.00  0.00    -0.000 C 
ATOM     23  C   UNL     1      34.588 -22.395 -17.155  0.00  0.00    -0.000 C 
ATOM     24  C   UNL     1      33.204 -22.460 -17.287  0.00  0.00    -0.000 C 
ENDBRANCH  14  15
ENDBRANCH   8  14
TORSDOF 3
ENDMDL
MODEL 5
REMARK VINA RESULT:     -12.6      2.791      8.278
REMARK  Name = 449087
REMARK  3 active torsions:
REMARK  status: ('A' for Active; 'I' for Inactive)
REMARK    1  A    between atoms: C_5  and  C_11
REMARK    2  A    between atoms: C_8  and  C_14
REMARK    3  A    between atoms: C_14  and  C_15
REMARK                            x       y       z     vdW  Elec       q    Type
REMARK                         _______ _______ _______ _____ _____    ______ ____
ROOT
ATOM      1  O   UNL     1      33.520 -19.912 -20.822  0.00  0.00    -0.274 OA
ATOM      2  N   UNL     1      34.707 -22.488 -16.847  0.00  0.00    -0.239 N 
ATOM      3  N   UNL     1      35.604 -21.774 -17.549  0.00  0.00    -0.166 NA
ATOM      4  N   UNL     1      35.397 -20.418 -19.503  0.00  0.00    -0.268 N 
ATOM      5  C   UNL     1      33.440 -22.426 -17.349  0.00  0.00    +0.045 C 
ATOM      6  C   UNL     1      33.512 -21.614 -18.454  0.00  0.00    +0.048 C 
ATOM      7  C   UNL     1      34.861 -21.254 -18.516  0.00  0.00    +0.152 C 
ATOM      8  C   UNL     1      34.714 -19.820 -20.559  0.00  0.00    +0.232 C 
ATOM      9  H   UNL     1      34.943 -23.008 -16.046  0.00  0.00    +0.174 HD
ATOM     10  H   UNL     1      36.363 -20.233 -19.444  0.00  0.00    +0.156 HD
ENDROOT
BRANCH   5  11
ATOM     11  C   UNL     1      32.204 -23.117 -16.788  0.00  0.00    +0.037 C 
ATOM     12  C   UNL     1      31.716 -22.748 -15.409  0.00  0.00    +0.006 C 
ATOM     13  C   UNL     1      30.932 -22.325 -16.618  0.00  0.00    +0.006 C 
ENDBRANCH   5  11
BRANCH   8  14
ATOM     14  C   UNL     1      35.662 -18.981 -21.412  0.00  0.00    +0.112 C 
BRANCH  14  15
ATOM     15  C   UNL     1      35.052 -17.724 -21.937  0.00  0.00    -0.013 C 
ATOM     16  C   UNL     1      34.199 -15.480 -21.549  0.00  0.00    -0.000 C 
ATOM     17  C   UNL     1      34.773 -16.669 -21.069  0.00  0.00    -0.004 C 
ATOM     18  C   UNL     1      33.906 -15.360 -22.928  0.00  0.00    -0.000 C 
ATOM     19  C   UNL     1      34.764 -17.606 -23.294  0.00  0.00    -0.004 C 
ATOM     20  C   UNL     1      34.195 -16.432 -23.787  0.00  0.00    -0.000 C 
ATOM     21  C   UNL     1      33.910 -14.408 -20.688  0.00  0.00    -0.000 C 
ATOM     22  C   UNL     1      33.333 -14.170 -23.407  0.00  0.00    -0.000 C 
ATOM     23  C   UNL     1      33.340 -13.234 -21.182  0.00  0.00    -0.000 C 
ATOM     24  C   UNL     1      33.052 -13.115 -22.538  0.00  0.00    -0.000 C 
ENDBRANCH  14  15
ENDBRANCH   8  14
TORSDOF 3
ENDMDL
MODEL 6
REMARK VINA RESULT:     -12.6      2.136      8.134
REMARK  Name = 449087
REMARK  3 active torsions:
REMARK  status: ('A' for Active; 'I' for Inactive)
REMARK    1  A    between atoms: C_5  and  C_11
REMARK    2  A    between atoms: C_8  and  C_14
REMARK    3  A    between atoms: C_14  and  C_15
REMARK                            x       y       z     vdW  Elec       q    Type
REMARK                         _______ _______ _______ _____ _____    ______ ____
ROOT
ATOM      1  O   UNL     1      36.229 -19.249 -20.473  0.00  0.00    -0.274 OA
ATOM      2  N   UNL     1      31.996 -21.424 -19.384  0.00  0.00    -0.239 N 
ATOM      3  N   UNL     1      32.101 -20.453 -20.307  0.00  0.00    -0.166 NA
ATOM      4  N   UNL     1      33.964 -19.184 -21.092  0.00  0.00    -0.268 N 
ATOM      5  C   UNL     1      33.178 -21.742 -18.782  0.00  0.00    +0.045 C 
ATOM      6  C   UNL     1      34.122 -20.924 -19.352  0.00  0.00    +0.048 C 
ATOM      7  C   UNL     1      33.394 -20.165 -20.271  0.00  0.00    +0.152 C 
ATOM      8  C   UNL     1      35.302 -18.801 -21.139  0.00  0.00    +0.232 C 
ATOM      9  H   UNL     1      31.144 -21.865 -19.162  0.00  0.00    +0.174 HD
ATOM     10  H   UNL     1      33.352 -18.713 -21.704  0.00  0.00    +0.156 HD
ENDROOT
BRANCH   5  11
ATOM     11  C   UNL     1      33.396 -22.794 -17.703  0.00  0.00    +0.037 C 
ATOM     12  C   UNL     1      34.045 -22.389 -16.402  0.00  0.00    +0.006 C 
ATOM     13  C   UNL     1      32.583 -22.727 -16.435  0.00  0.00    +0.006 C 
ENDBRANCH   5  11
BRANCH   8  14
ATOM     14  C   UNL     1      35.514 -17.696 -22.171  0.00  0.00    +0.112 C 
BRANCH  14  15
ATOM     15  C   UNL     1      34.769 -16.438 -21.874  0.00  0.00    -0.013 C 
ATOM     16  C   UNL     1      33.711 -14.390 -22.649  0.00  0.00    -0.000 C 
ATOM     17  C   UNL     1      34.413 -15.577 -22.912  0.00  0.00    -0.004 C 
ATOM     18  C   UNL     1      33.363 -14.072 -21.314  0.00  0.00    -0.000 C 
ATOM     19  C   UNL     1      34.426 -16.126 -20.562  0.00  0.00    -0.004 C 
ATOM     20  C   UNL     1      33.729 -14.952 -20.282  0.00  0.00    -0.000 C 
ATOM     21  C   UNL     1      33.346 -13.510 -23.682  0.00  0.00    -0.000 C 
ATOM     22  C   UNL     1      32.661 -12.885 -21.051  0.00  0.00    -0.000 C 
ATOM     23  C   UNL     1      32.649 -12.334 -23.402  0.00  0.00    -0.000 C 
ATOM     24  C   UNL     1      32.307 -12.022 -22.089  0.00  0.00    -0.000 C 
ENDBRANCH  14  15
ENDBRANCH   8  14
TORSDOF 3
ENDMDL
MODEL 7
REMARK VINA RESULT:     -12.2      1.725      7.990
REMARK  Name = 449087
REMARK  3 active torsions:
REMARK  status: ('A' for Active; 'I' for Inactive)
REMARK    1  A    between atoms: C_5  and  C_11
REMARK    2  A    between atoms: C_8  and  C_14
REMARK    3  A    between atoms: C_14  and  C_15
REMARK                            x       y       z     vdW  Elec       q    Type
REMARK                         _______ _______ _______ _____ _____    ______ ____
ROOT
ATOM      1  O   UNL     1      33.430 -17.932 -23.628  0.00  0.00    -0.274 OA
ATOM      2  N   UNL     1      36.186 -19.356 -19.857  0.00  0.00    -0.239 N 
ATOM      3  N   UNL     1      36.422 -18.228 -20.549  0.00  0.00    -0.166 NA
ATOM      4  N   UNL     1      35.313 -17.229 -22.412  0.00  0.00    -0.268 N 
ATOM      5  C   UNL     1      35.109 -20.062 -20.306  0.00  0.00    +0.045 C 
ATOM      6  C   UNL     1      34.605 -19.347 -21.364  0.00  0.00    +0.048 C 
ATOM      7  C   UNL     1      35.455 -18.242 -21.456  0.00  0.00    +0.152 C 
ATOM      8  C   UNL     1      34.340 -17.142 -23.405  0.00  0.00    +0.232 C 
ATOM      9  H   UNL     1      36.739 -19.645 -19.097  0.00  0.00    +0.174 HD
ATOM     10  H   UNL     1      35.972 -16.498 -22.378  0.00  0.00    +0.156 HD
ENDROOT
BRANCH   5  11
ATOM     11  C   UNL     1      34.580 -21.374 -19.742  0.00  0.00    +0.037 C 
ATOM     12  C   UNL     1      34.550 -21.572 -18.246  0.00  0.00    +0.006 C 
ATOM     13  C   UNL     1      33.267 -21.379 -19.000  0.00  0.00    +0.006 C 
ENDBRANCH   5  11
BRANCH   8  14
ATOM     14  C   UNL     1      34.532 -15.880 -24.242  0.00  0.00    +0.112 C 
BRANCH  14  15
ATOM     15  C   UNL     1      33.755 -14.704 -23.752  0.00  0.00    -0.013 C 
ATOM     16  C   UNL     1      32.837 -13.414 -21.906  0.00  0.00    -0.000 C 
ATOM     17  C   UNL     1      33.565 -14.516 -22.383  0.00  0.00    -0.004 C 
ATOM     18  C   UNL     1      32.294 -12.490 -22.830  0.00  0.00    -0.000 C 
ATOM     19  C   UNL     1      33.221 -13.795 -24.661  0.00  0.00    -0.004 C 
ATOM     20  C   UNL     1      32.496 -12.695 -24.205  0.00  0.00    -0.000 C 
ATOM     21  C   UNL     1      32.635 -13.209 -20.531  0.00  0.00    -0.000 C 
ATOM     22  C   UNL     1      31.566 -11.388 -22.352  0.00  0.00    -0.000 C 
ATOM     23  C   UNL     1      31.908 -12.109 -20.074  0.00  0.00    -0.000 C 
ATOM     24  C   UNL     1      31.375 -11.200 -20.983  0.00  0.00    -0.000 C 
ENDBRANCH  14  15
ENDBRANCH   8  14
TORSDOF 3
ENDMDL
MODEL 8
REMARK VINA RESULT:     -11.8      2.752      8.301
REMARK  Name = 449087
REMARK  3 active torsions:
REMARK  status: ('A' for Active; 'I' for Inactive)
REMARK    1  A    between atoms: C_5  and  C_11
REMARK    2  A    between atoms: C_8  and  C_14
REMARK    3  A    between atoms: C_14  and  C_15
REMARK                            x       y       z     vdW  Elec       q    Type
REMARK                         _______ _______ _______ _____ _____    ______ ____
ROOT
ATOM      1  O   UNL     1      36.490 -18.631 -20.633  0.00  0.00    -0.274 OA
ATOM      2  N   UNL     1      35.075 -22.162 -17.572  0.00  0.00    -0.239 N 
ATOM      3  N   UNL     1      34.459 -21.921 -18.742  0.00  0.00    -0.166 NA
ATOM      4  N   UNL     1      34.861 -20.316 -20.463  0.00  0.00    -0.268 N 
ATOM      5  C   UNL     1      36.126 -21.330 -17.321  0.00  0.00    +0.045 C 
ATOM      6  C   UNL     1      36.206 -20.487 -18.402  0.00  0.00    +0.048 C 
ATOM      7  C   UNL     1      35.159 -20.905 -19.228  0.00  0.00    +0.152 C 
ATOM      8  C   UNL     1      35.525 -19.251 -21.067  0.00  0.00    +0.232 C 
ATOM      9  H   UNL     1      34.792 -22.873 -16.953  0.00  0.00    +0.174 HD
ATOM     10  H   UNL     1      34.100 -20.696 -20.959  0.00  0.00    +0.156 HD
ENDROOT
BRANCH   5  11
ATOM     11  C   UNL     1      37.024 -21.343 -16.091  0.00  0.00    +0.037 C 
ATOM     12  C   UNL     1      36.588 -22.111 -14.869  0.00  0.00    +0.006 C 
ATOM     13  C   UNL     1      37.725 -22.621 -15.705  0.00  0.00    +0.006 C 
ENDBRANCH   5  11
BRANCH   8  14
ATOM     14  C   UNL     1      34.890 -18.910 -22.413  0.00  0.00    +0.112 C 
BRANCH  14  15
ATOM     15  C   UNL     1      34.570 -17.462 -22.582  0.00  0.00    -0.013 C 
ATOM     16  C   UNL     1      34.096 -15.286 -21.604  0.00  0.00    -0.000 C 
ATOM     17  C   UNL     1      34.397 -16.651 -21.461  0.00  0.00    -0.004 C 
ATOM     18  C   UNL     1      33.971 -14.737 -22.902  0.00  0.00    -0.000 C 
ATOM     19  C   UNL     1      34.447 -16.922 -23.859  0.00  0.00    -0.004 C 
ATOM     20  C   UNL     1      34.149 -15.569 -24.019  0.00  0.00    -0.000 C 
ATOM     21  C   UNL     1      33.917 -14.455 -20.485  0.00  0.00    -0.000 C 
ATOM     22  C   UNL     1      33.670 -13.372 -23.044  0.00  0.00    -0.000 C 
ATOM     23  C   UNL     1      33.619 -13.101 -20.646  0.00  0.00    -0.000 C 
ATOM     24  C   UNL     1      33.496 -12.561 -21.922  0.00  0.00    -0.000 C 
ENDBRANCH  14  15
ENDBRANCH   8  14
TORSDOF 3
ENDMDL
MODEL 9
REMARK VINA RESULT:     -11.6      3.668      8.776
REMARK  Name = 449087
REMARK  3 active torsions:
REMARK  status: ('A' for Active; 'I' for Inactive)
REMARK    1  A    between atoms: C_5  and  C_11
REMARK    2  A    between atoms: C_8  and  C_14
REMARK    3  A    between atoms: C_14  and  C_15
REMARK                            x       y       z     vdW  Elec       q    Type
REMARK                         _______ _______ _______ _____ _____    ______ ____
ROOT
ATOM      1  O   UNL     1      32.683 -20.535 -19.676  0.00  0.00    -0.274 OA
ATOM      2  N   UNL     1      32.728 -23.414 -15.733  0.00  0.00    -0.239 N 
ATOM      3  N   UNL     1      33.826 -23.164 -16.467  0.00  0.00    -0.166 NA
ATOM      4  N   UNL     1      34.181 -21.836 -18.418  0.00  0.00    -0.268 N 
ATOM      5  C   UNL     1      31.604 -22.791 -16.193  0.00  0.00    +0.045 C 
ATOM      6  C   UNL     1      31.995 -22.083 -17.303  0.00  0.00    +0.048 C 
ATOM      7  C   UNL     1      33.361 -22.358 -17.411  0.00  0.00    +0.152 C 
ATOM      8  C   UNL     1      33.802 -20.985 -19.453  0.00  0.00    +0.232 C 
ATOM      9  H   UNL     1      32.733 -23.993 -14.938  0.00  0.00    +0.174 HD
ATOM     10  H   UNL     1      35.130 -22.098 -18.391  0.00  0.00    +0.156 HD
ENDROOT
BRANCH   5  11
ATOM     11  C   UNL     1      30.208 -22.868 -15.590  0.00  0.00    +0.037 C 
ATOM     12  C   UNL     1      29.536 -24.213 -15.461  0.00  0.00    +0.006 C 
ATOM     13  C   UNL     1      30.027 -23.502 -14.233  0.00  0.00    +0.006 C 
ENDBRANCH   5  11
BRANCH   8  14
ATOM     14  C   UNL     1      34.997 -20.644 -20.340  0.00  0.00    +0.112 C 
BRANCH  14  15
ATOM     15  C   UNL     1      34.841 -19.371 -21.103  0.00  0.00    -0.013 C 
ATOM     16  C   UNL     1      34.037 -18.183 -23.068  0.00  0.00    -0.000 C 
ATOM     17  C   UNL     1      34.192 -19.373 -22.338  0.00  0.00    -0.004 C 
ATOM     18  C   UNL     1      34.546 -16.974 -22.537  0.00  0.00    -0.000 C 
ATOM     19  C   UNL     1      35.341 -18.181 -20.581  0.00  0.00    -0.004 C 
ATOM     20  C   UNL     1      35.195 -16.991 -21.292  0.00  0.00    -0.000 C 
ATOM     21  C   UNL     1      33.388 -18.168 -24.313  0.00  0.00    -0.000 C 
ATOM     22  C   UNL     1      34.390 -15.784 -23.267  0.00  0.00    -0.000 C 
ATOM     23  C   UNL     1      33.243 -16.976 -25.025  0.00  0.00    -0.000 C 
ATOM     24  C   UNL     1      33.743 -15.787 -24.503  0.00  0.00    -0.000 C 
ENDBRANCH  14  15
ENDBRANCH   8  14
TORSDOF 3
ENDMDL
