MODEL 1
REMARK VINA RESULT:     -13.9      0.000      0.000
REMARK  Name = 68488178
REMARK  9 active torsions:
REMARK  status: ('A' for Active; 'I' for Inactive)
REMARK    1  A    between atoms: N_1  and  C_10
REMARK    2  A    between atoms: N_2  and  C_29
REMARK    3  A    between atoms: C_10  and  C_11
REMARK    4  A    between atoms: C_16  and  O_17
REMARK    5  A    between atoms: O_17  and  C_18
REMARK    6  A    between atoms: C_23  and  C_26
REMARK    7  A    between atoms: C_29  and  C_30
REMARK    8  A    between atoms: C_35  and  C_37
REMARK    9  A    between atoms: C_37  and  O_38
REMARK                            x       y       z     vdW  Elec       q    Type
REMARK                         _______ _______ _______ _____ _____    ______ ____
ROOT
ATOM      1  N   UNL     1      32.707 -23.033 -16.832  0.00  0.00    +0.388 N 
ATOM      2  N   UNL     1      33.801 -24.367 -14.624  0.00  0.00    +0.388 N 
ATOM      3  C   UNL     1      33.825 -22.473 -16.035  0.00  0.00    -0.081 C 
ATOM      4  C   UNL     1      32.618 -23.479 -14.514  0.00  0.00    -0.081 C 
ATOM      5  C   UNL     1      33.182 -22.084 -14.716  0.00  0.00    -0.046 C 
ATOM      6  C   UNL     1      31.820 -23.658 -15.819  0.00  0.00    -0.098 C 
ATOM      7  C   UNL     1      34.684 -23.672 -15.594  0.00  0.00    -0.098 C 
ATOM      8  H   UNL     1      33.034 -23.703 -17.530  0.00  0.00    -0.079 HD
ATOM      9  H   UNL     1      33.547 -25.306 -14.932  0.00  0.00    -0.079 HD
ENDROOT
BRANCH   1  10
ATOM     10  C   UNL     1      32.014 -22.020 -17.618  0.00  0.00    -0.050 C 
BRANCH  10  11
ATOM     11  C   UNL     1      32.926 -21.368 -18.623  0.00  0.00    -0.043 C 
ATOM     12  C   UNL     1      34.286 -21.681 -18.636  0.00  0.00    -0.003 C 
ATOM     13  C   UNL     1      32.412 -20.451 -19.540  0.00  0.00    -0.003 C 
ATOM     14  C   UNL     1      35.131 -21.078 -19.567  0.00  0.00    +0.037 C 
ATOM     15  C   UNL     1      33.258 -19.847 -20.471  0.00  0.00    +0.037 C 
ATOM     16  C   UNL     1      34.617 -20.161 -20.484  0.00  0.00    +0.145 C 
BRANCH  16  17
ATOM     17  O   UNL     1      35.442 -19.571 -21.392  0.00  0.00    -0.453 OA
BRANCH  17  18
ATOM     18  C   UNL     1      34.961 -18.469 -22.080  0.00  0.00    +0.145 C 
ATOM     19  C   UNL     1      34.340 -18.636 -23.317  0.00  0.00    +0.038 C 
ATOM     20  C   UNL     1      35.097 -17.193 -21.534  0.00  0.00    +0.038 C 
ATOM     21  C   UNL     1      33.858 -17.527 -24.011  0.00  0.00    +0.008 C 
ATOM     22  C   UNL     1      34.615 -16.083 -22.228  0.00  0.00    +0.008 C 
ATOM     23  C   UNL     1      33.994 -16.250 -23.467  0.00  0.00    +0.054 C 
BRANCH  23  26
ATOM     24  O   UNL     1      33.245 -14.005 -23.419  0.00  0.00    -0.431 OA
ATOM     25  N   UNL     1      33.250 -14.963 -25.468  0.00  0.00    -0.206 NA
ATOM     26  C   UNL     1      33.496 -15.102 -24.184  0.00  0.00    +0.230 C 
ATOM     27  C   UNL     1      32.794 -13.086 -24.318  0.00  0.00    +0.202 C 
ATOM     28  C   UNL     1      32.800 -13.671 -25.559  0.00  0.00    +0.143 C 
ENDBRANCH  23  26
ENDBRANCH  17  18
ENDBRANCH  16  17
ENDBRANCH  10  11
ENDBRANCH   1  10
BRANCH   2  29
ATOM     29  C   UNL     1      34.460 -24.586 -13.341  0.00  0.00    -0.050 C 
BRANCH  29  30
ATOM     30  C   UNL     1      35.943 -24.784 -13.499  0.00  0.00    -0.043 C 
ATOM     31  C   UNL     1      36.832 -23.850 -12.967  0.00  0.00    -0.006 C 
ATOM     32  C   UNL     1      36.430 -25.902 -14.179  0.00  0.00    -0.006 C 
ATOM     33  C   UNL     1      38.207 -24.034 -13.115  0.00  0.00    +0.006 C 
ATOM     34  C   UNL     1      37.804 -26.084 -14.326  0.00  0.00    +0.006 C 
ATOM     35  C   UNL     1      38.694 -25.151 -13.793  0.00  0.00    +0.075 C 
BRANCH  35  37
ATOM     36  O   UNL     1      40.732 -26.402 -13.758  0.00  0.00    -0.245 OA
ATOM     37  C   UNL     1      40.126 -25.342 -13.946  0.00  0.00    +0.338 C 
BRANCH  37  38
ATOM     38  O   UNL     1      40.765 -24.203 -14.332  0.00  0.00    -0.477 OA
ATOM     39  H   UNL     1      40.323 -23.578 -14.873  0.00  0.00    +0.295 HD
ENDBRANCH  37  38
ENDBRANCH  35  37
ENDBRANCH  29  30
ENDBRANCH   2  29
TORSDOF 9
ENDMDL
MODEL 2
REMARK VINA RESULT:     -13.3      4.075     13.228
REMARK  Name = 68488178
REMARK  9 active torsions:
REMARK  status: ('A' for Active; 'I' for Inactive)
REMARK    1  A    between atoms: N_1  and  C_10
REMARK    2  A    between atoms: N_2  and  C_29
REMARK    3  A    between atoms: C_10  and  C_11
REMARK    4  A    between atoms: C_16  and  O_17
REMARK    5  A    between atoms: O_17  and  C_18
REMARK    6  A    between atoms: C_23  and  C_26
REMARK    7  A    between atoms: C_29  and  C_30
REMARK    8  A    between atoms: C_35  and  C_37
REMARK    9  A    between atoms: C_37  and  O_38
REMARK                            x       y       z     vdW  Elec       q    Type
REMARK                         _______ _______ _______ _____ _____    ______ ____
ROOT
ATOM      1  N   UNL     1      32.862 -14.160 -22.750  0.00  0.00    +0.388 N 
ATOM      2  N   UNL     1      31.468 -12.268 -21.223  0.00  0.00    +0.388 N 
ATOM      3  C   UNL     1      33.281 -13.775 -21.380  0.00  0.00    -0.081 C 
ATOM      4  C   UNL     1      32.525 -11.889 -22.192  0.00  0.00    -0.081 C 
ATOM      5  C   UNL     1      33.812 -12.361 -21.539  0.00  0.00    -0.046 C 
ATOM      6  C   UNL     1      32.415 -12.884 -23.363  0.00  0.00    -0.098 C 
ATOM      7  C   UNL     1      31.986 -13.508 -20.592  0.00  0.00    -0.098 C 
ATOM      8  H   UNL     1      32.125 -14.866 -22.739  0.00  0.00    -0.079 HD
ATOM      9  H   UNL     1      30.565 -12.411 -21.679  0.00  0.00    -0.079 HD
ENDROOT
BRANCH   1  10
ATOM     10  C   UNL     1      33.936 -14.787 -23.510  0.00  0.00    -0.050 C 
BRANCH  10  11
ATOM     11  C   UNL     1      34.293 -16.143 -22.961  0.00  0.00    -0.043 C 
ATOM     12  C   UNL     1      33.989 -17.293 -23.691  0.00  0.00    -0.003 C 
ATOM     13  C   UNL     1      34.928 -16.250 -21.724  0.00  0.00    -0.003 C 
ATOM     14  C   UNL     1      34.320 -18.549 -23.183  0.00  0.00    +0.037 C 
ATOM     15  C   UNL     1      35.259 -17.506 -21.216  0.00  0.00    +0.037 C 
ATOM     16  C   UNL     1      34.955 -18.656 -21.946  0.00  0.00    +0.145 C 
BRANCH  16  17
ATOM     17  O   UNL     1      35.277 -19.882 -21.450  0.00  0.00    -0.453 OA
BRANCH  17  18
ATOM     18  C   UNL     1      34.467 -20.408 -20.457  0.00  0.00    +0.145 C 
ATOM     19  C   UNL     1      35.021 -21.203 -19.454  0.00  0.00    +0.038 C 
ATOM     20  C   UNL     1      33.097 -20.144 -20.462  0.00  0.00    +0.038 C 
ATOM     21  C   UNL     1      34.204 -21.735 -18.456  0.00  0.00    +0.008 C 
ATOM     22  C   UNL     1      32.281 -20.676 -19.464  0.00  0.00    +0.008 C 
ATOM     23  C   UNL     1      32.835 -21.472 -18.460  0.00  0.00    +0.054 C 
BRANCH  23  26
ATOM     24  O   UNL     1      32.639 -22.747 -16.475  0.00  0.00    -0.431 OA
ATOM     25  N   UNL     1      30.689 -21.926 -17.276  0.00  0.00    -0.206 NA
ATOM     26  C   UNL     1      31.990 -22.022 -17.428  0.00  0.00    +0.230 C 
ATOM     27  C   UNL     1      31.637 -23.145 -15.642  0.00  0.00    +0.202 C 
ATOM     28  C   UNL     1      30.457 -22.644 -16.131  0.00  0.00    +0.143 C 
ENDBRANCH  23  26
ENDBRANCH  17  18
ENDBRANCH  16  17
ENDBRANCH  10  11
ENDBRANCH   1  10
BRANCH   2  29
ATOM     29  C   UNL     1      31.203 -11.222 -20.243  0.00  0.00    -0.050 C 
BRANCH  29  30
ATOM     30  C   UNL     1      31.179  -9.855 -20.874  0.00  0.00    -0.043 C 
ATOM     31  C   UNL     1      31.556  -8.737 -20.129  0.00  0.00    -0.006 C 
ATOM     32  C   UNL     1      30.778  -9.707 -22.202  0.00  0.00    -0.006 C 
ATOM     33  C   UNL     1      31.532  -7.471 -20.714  0.00  0.00    +0.006 C 
ATOM     34  C   UNL     1      30.754  -8.441 -22.786  0.00  0.00    +0.006 C 
ATOM     35  C   UNL     1      31.132  -7.322 -22.043  0.00  0.00    +0.075 C 
BRANCH  35  37
ATOM     36  O   UNL     1      30.443  -5.683 -23.641  0.00  0.00    -0.245 OA
ATOM     37  C   UNL     1      31.108  -6.003 -22.652  0.00  0.00    +0.338 C 
BRANCH  37  38
ATOM     38  O   UNL     1      31.917  -5.118 -22.007  0.00  0.00    -0.477 OA
ATOM     39  H   UNL     1      31.547  -4.364 -21.589  0.00  0.00    +0.295 HD
ENDBRANCH  37  38
ENDBRANCH  35  37
ENDBRANCH  29  30
ENDBRANCH   2  29
TORSDOF 9
ENDMDL
MODEL 3
REMARK VINA RESULT:     -13.2      3.041     12.375
REMARK  Name = 68488178
REMARK  9 active torsions:
REMARK  status: ('A' for Active; 'I' for Inactive)
REMARK    1  A    between atoms: N_1  and  C_10
REMARK    2  A    between atoms: N_2  and  C_29
REMARK    3  A    between atoms: C_10  and  C_11
REMARK    4  A    between atoms: C_16  and  O_17
REMARK    5  A    between atoms: O_17  and  C_18
REMARK    6  A    between atoms: C_23  and  C_26
REMARK    7  A    between atoms: C_29  and  C_30
REMARK    8  A    between atoms: C_35  and  C_37
REMARK    9  A    between atoms: C_37  and  O_38
REMARK                            x       y       z     vdW  Elec       q    Type
REMARK                         _______ _______ _______ _____ _____    ______ ____
ROOT
ATOM      1  N   UNL     1      34.284 -18.743 -21.305  0.00  0.00    +0.388 N 
ATOM      2  N   UNL     1      34.066 -16.165 -22.381  0.00  0.00    +0.388 N 
ATOM      3  C   UNL     1      35.321 -17.703 -21.099  0.00  0.00    -0.081 C 
ATOM      4  C   UNL     1      34.644 -17.301 -23.140  0.00  0.00    -0.081 C 
ATOM      5  C   UNL     1      35.977 -17.559 -22.461  0.00  0.00    -0.046 C 
ATOM      6  C   UNL     1      33.855 -18.553 -22.714  0.00  0.00    -0.098 C 
ATOM      7  C   UNL     1      34.572 -16.362 -20.999  0.00  0.00    -0.098 C 
ATOM      8  H   UNL     1      33.510 -18.647 -20.646  0.00  0.00    -0.079 HD
ATOM      9  H   UNL     1      33.046 -16.156 -22.425  0.00  0.00    -0.079 HD
ENDROOT
BRANCH   1  10
ATOM     10  C   UNL     1      34.785 -20.091 -21.062  0.00  0.00    -0.050 C 
BRANCH  10  11
ATOM     11  C   UNL     1      34.040 -20.773 -19.945  0.00  0.00    -0.043 C 
ATOM     12  C   UNL     1      32.683 -20.512 -19.751  0.00  0.00    -0.003 C 
ATOM     13  C   UNL     1      34.707 -21.664 -19.104  0.00  0.00    -0.003 C 
ATOM     14  C   UNL     1      31.993 -21.144 -18.716  0.00  0.00    +0.037 C 
ATOM     15  C   UNL     1      34.017 -22.296 -18.069  0.00  0.00    +0.037 C 
ATOM     16  C   UNL     1      32.660 -22.035 -17.875  0.00  0.00    +0.145 C 
BRANCH  16  17
ATOM     17  O   UNL     1      31.987 -22.651 -16.865  0.00  0.00    -0.453 OA
BRANCH  17  18
ATOM     18  C   UNL     1      32.671 -22.883 -15.683  0.00  0.00    +0.145 C 
ATOM     19  C   UNL     1      32.012 -23.460 -14.598  0.00  0.00    +0.038 C 
ATOM     20  C   UNL     1      34.019 -22.538 -15.578  0.00  0.00    +0.038 C 
ATOM     21  C   UNL     1      32.700 -23.691 -13.407  0.00  0.00    +0.008 C 
ATOM     22  C   UNL     1      34.707 -22.769 -14.387  0.00  0.00    +0.008 C 
ATOM     23  C   UNL     1      34.047 -23.346 -13.300  0.00  0.00    +0.054 C 
BRANCH  23  26
ATOM     24  O   UNL     1      35.890 -22.845 -11.901  0.00  0.00    -0.431 OA
ATOM     25  N   UNL     1      34.473 -24.409 -11.087  0.00  0.00    -0.206 NA
ATOM     26  C   UNL     1      34.759 -23.584 -12.069  0.00  0.00    +0.230 C 
ATOM     27  C   UNL     1      36.360 -23.253 -10.689  0.00  0.00    +0.202 C 
ATOM     28  C   UNL     1      35.497 -24.201 -10.199  0.00  0.00    +0.143 C 
ENDBRANCH  23  26
ENDBRANCH  17  18
ENDBRANCH  16  17
ENDBRANCH  10  11
ENDBRANCH   1  10
BRANCH   2  29
ATOM     29  C   UNL     1      34.451 -14.869 -22.927  0.00  0.00    -0.050 C 
BRANCH  29  30
ATOM     30  C   UNL     1      33.537 -13.769 -22.459  0.00  0.00    -0.043 C 
ATOM     31  C   UNL     1      33.013 -13.801 -21.166  0.00  0.00    -0.006 C 
ATOM     32  C   UNL     1      33.213 -12.718 -23.317  0.00  0.00    -0.006 C 
ATOM     33  C   UNL     1      32.165 -12.782 -20.733  0.00  0.00    +0.006 C 
ATOM     34  C   UNL     1      32.365 -11.699 -22.883  0.00  0.00    +0.006 C 
ATOM     35  C   UNL     1      31.842 -11.730 -21.590  0.00  0.00    +0.075 C 
BRANCH  35  37
ATOM     36  O   UNL     1      30.121 -10.087 -21.835  0.00  0.00    -0.245 OA
ATOM     37  C   UNL     1      30.959 -10.668 -21.138  0.00  0.00    +0.338 C 
BRANCH  37  38
ATOM     38  O   UNL     1      31.145 -10.361 -19.825  0.00  0.00    -0.477 OA
ATOM     39  H   UNL     1      30.425 -10.408 -19.226  0.00  0.00    +0.295 HD
ENDBRANCH  37  38
ENDBRANCH  35  37
ENDBRANCH  29  30
ENDBRANCH   2  29
TORSDOF 9
ENDMDL
MODEL 4
REMARK VINA RESULT:     -13.1      4.575      8.821
REMARK  Name = 68488178
REMARK  9 active torsions:
REMARK  status: ('A' for Active; 'I' for Inactive)
REMARK    1  A    between atoms: N_1  and  C_10
REMARK    2  A    between atoms: N_2  and  C_29
REMARK    3  A    between atoms: C_10  and  C_11
REMARK    4  A    between atoms: C_16  and  O_17
REMARK    5  A    between atoms: O_17  and  C_18
REMARK    6  A    between atoms: C_23  and  C_26
REMARK    7  A    between atoms: C_29  and  C_30
REMARK    8  A    between atoms: C_35  and  C_37
REMARK    9  A    between atoms: C_37  and  O_38
REMARK                            x       y       z     vdW  Elec       q    Type
REMARK                         _______ _______ _______ _____ _____    ______ ____
ROOT
ATOM      1  N   UNL     1      34.292 -16.606 -22.416  0.00  0.00    +0.388 N 
ATOM      2  N   UNL     1      34.454 -19.003 -20.974  0.00  0.00    +0.388 N 
ATOM      3  C   UNL     1      34.966 -17.814 -22.951  0.00  0.00    -0.081 C 
ATOM      4  C   UNL     1      35.444 -17.909 -20.818  0.00  0.00    -0.081 C 
ATOM      5  C   UNL     1      36.229 -17.933 -22.117  0.00  0.00    -0.046 C 
ATOM      6  C   UNL     1      34.663 -16.592 -20.978  0.00  0.00    -0.098 C 
ATOM      7  C   UNL     1      34.164 -19.021 -22.430  0.00  0.00    -0.098 C 
ATOM      8  H   UNL     1      33.282 -16.638 -22.558  0.00  0.00    -0.079 HD
ATOM      9  H   UNL     1      33.617 -18.844 -20.412  0.00  0.00    -0.079 HD
ENDROOT
BRANCH   1  10
ATOM     10  C   UNL     1      34.703 -15.385 -23.100  0.00  0.00    -0.050 C 
BRANCH  10  11
ATOM     11  C   UNL     1      33.785 -14.233 -22.791  0.00  0.00    -0.043 C 
ATOM     12  C   UNL     1      33.129 -13.568 -23.827  0.00  0.00    -0.003 C 
ATOM     13  C   UNL     1      33.590 -13.831 -21.469  0.00  0.00    -0.003 C 
ATOM     14  C   UNL     1      32.278 -12.500 -23.542  0.00  0.00    +0.037 C 
ATOM     15  C   UNL     1      32.739 -12.763 -21.184  0.00  0.00    +0.037 C 
ATOM     16  C   UNL     1      32.083 -12.097 -22.220  0.00  0.00    +0.145 C 
BRANCH  16  17
ATOM     17  O   UNL     1      31.254 -11.055 -21.941  0.00  0.00    -0.453 OA
BRANCH  17  18
ATOM     18  C   UNL     1      31.605  -9.805 -22.425  0.00  0.00    +0.145 C 
ATOM     19  C   UNL     1      30.645  -8.798 -22.516  0.00  0.00    +0.038 C 
ATOM     20  C   UNL     1      32.918  -9.555 -22.823  0.00  0.00    +0.038 C 
ATOM     21  C   UNL     1      30.998  -7.541 -23.006  0.00  0.00    +0.008 C 
ATOM     22  C   UNL     1      33.271  -8.298 -23.313  0.00  0.00    +0.008 C 
ATOM     23  C   UNL     1      32.311  -7.290 -23.404  0.00  0.00    +0.054 C 
BRANCH  23  26
ATOM     24  O   UNL     1      33.925  -5.906 -24.445  0.00  0.00    -0.431 OA
ATOM     25  N   UNL     1      31.977  -4.877 -23.932  0.00  0.00    -0.206 NA
ATOM     26  C   UNL     1      32.676  -5.990 -23.911  0.00  0.00    +0.230 C 
ATOM     27  C   UNL     1      34.016  -4.606 -24.840  0.00  0.00    +0.202 C 
ATOM     28  C   UNL     1      32.832  -3.986 -24.528  0.00  0.00    +0.143 C 
ENDBRANCH  23  26
ENDBRANCH  17  18
ENDBRANCH  16  17
ENDBRANCH  10  11
ENDBRANCH   1  10
BRANCH   2  29
ATOM     29  C   UNL     1      34.956 -20.287 -20.499  0.00  0.00    -0.050 C 
BRANCH  29  30
ATOM     30  C   UNL     1      34.041 -20.902 -19.474  0.00  0.00    -0.043 C 
ATOM     31  C   UNL     1      34.561 -21.743 -18.489  0.00  0.00    -0.006 C 
ATOM     32  C   UNL     1      32.672 -20.632 -19.508  0.00  0.00    -0.006 C 
ATOM     33  C   UNL     1      33.713 -22.313 -17.541  0.00  0.00    +0.006 C 
ATOM     34  C   UNL     1      31.825 -21.202 -18.560  0.00  0.00    +0.006 C 
ATOM     35  C   UNL     1      32.345 -22.042 -17.574  0.00  0.00    +0.075 C 
BRANCH  35  37
ATOM     36  O   UNL     1      31.819 -23.351 -15.643  0.00  0.00    -0.245 OA
ATOM     37  C   UNL     1      31.462 -22.636 -16.585  0.00  0.00    +0.338 C 
BRANCH  37  38
ATOM     38  O   UNL     1      30.155 -22.320 -16.797  0.00  0.00    -0.477 OA
ATOM     39  H   UNL     1      29.613 -22.058 -16.078  0.00  0.00    +0.295 HD
ENDBRANCH  37  38
ENDBRANCH  35  37
ENDBRANCH  29  30
ENDBRANCH   2  29
TORSDOF 9
ENDMDL
MODEL 5
REMARK VINA RESULT:     -13.1      4.755      8.411
REMARK  Name = 68488178
REMARK  9 active torsions:
REMARK  status: ('A' for Active; 'I' for Inactive)
REMARK    1  A    between atoms: N_1  and  C_10
REMARK    2  A    between atoms: N_2  and  C_29
REMARK    3  A    between atoms: C_10  and  C_11
REMARK    4  A    between atoms: C_16  and  O_17
REMARK    5  A    between atoms: O_17  and  C_18
REMARK    6  A    between atoms: C_23  and  C_26
REMARK    7  A    between atoms: C_29  and  C_30
REMARK    8  A    between atoms: C_35  and  C_37
REMARK    9  A    between atoms: C_37  and  O_38
REMARK                            x       y       z     vdW  Elec       q    Type
REMARK                         _______ _______ _______ _____ _____    ______ ____
ROOT
ATOM      1  N   UNL     1      34.252 -16.660 -22.071  0.00  0.00    +0.388 N 
ATOM      2  N   UNL     1      34.669 -19.236 -21.048  0.00  0.00    +0.388 N 
ATOM      3  C   UNL     1      34.874 -17.744 -22.869  0.00  0.00    -0.081 C 
ATOM      4  C   UNL     1      35.644 -18.134 -20.859  0.00  0.00    -0.081 C 
ATOM      5  C   UNL     1      36.243 -17.929 -22.239  0.00  0.00    -0.046 C 
ATOM      6  C   UNL     1      34.816 -16.844 -20.710  0.00  0.00    -0.098 C 
ATOM      7  C   UNL     1      34.181 -19.050 -22.438  0.00  0.00    -0.098 C 
ATOM      8  H   UNL     1      33.233 -16.716 -22.081  0.00  0.00    -0.079 HD
ATOM      9  H   UNL     1      33.914 -19.199 -20.362  0.00  0.00    -0.079 HD
ENDROOT
BRANCH   1  10
ATOM     10  C   UNL     1      34.535 -15.335 -22.608  0.00  0.00    -0.050 C 
BRANCH  10  11
ATOM     11  C   UNL     1      33.547 -14.309 -22.120  0.00  0.00    -0.043 C 
ATOM     12  C   UNL     1      32.908 -13.468 -23.032  0.00  0.00    -0.003 C 
ATOM     13  C   UNL     1      33.270 -14.200 -20.757  0.00  0.00    -0.003 C 
ATOM     14  C   UNL     1      31.992 -12.517 -22.580  0.00  0.00    +0.037 C 
ATOM     15  C   UNL     1      32.355 -13.249 -20.305  0.00  0.00    +0.037 C 
ATOM     16  C   UNL     1      31.716 -12.408 -21.217  0.00  0.00    +0.145 C 
BRANCH  16  17
ATOM     17  O   UNL     1      30.823 -11.479 -20.776  0.00  0.00    -0.453 OA
BRANCH  17  18
ATOM     18  C   UNL     1      31.049 -10.156 -21.117  0.00  0.00    +0.145 C 
ATOM     19  C   UNL     1      31.320  -9.217 -20.122  0.00  0.00    +0.038 C 
ATOM     20  C   UNL     1      31.005  -9.763 -22.455  0.00  0.00    +0.038 C 
ATOM     21  C   UNL     1      31.544  -7.884 -20.465  0.00  0.00    +0.008 C 
ATOM     22  C   UNL     1      31.229  -8.430 -22.798  0.00  0.00    +0.008 C 
ATOM     23  C   UNL     1      31.499  -7.489 -21.803  0.00  0.00    +0.054 C 
BRANCH  23  26
ATOM     24  O   UNL     1      32.332  -5.916 -23.363  0.00  0.00    -0.431 OA
ATOM     25  N   UNL     1      31.445  -5.018 -21.486  0.00  0.00    -0.206 NA
ATOM     26  C   UNL     1      31.731  -6.111 -22.157  0.00  0.00    +0.230 C 
ATOM     27  C   UNL     1      32.434  -4.561 -23.453  0.00  0.00    +0.202 C 
ATOM     28  C   UNL     1      31.894  -4.020 -22.313  0.00  0.00    +0.143 C 
ENDBRANCH  23  26
ENDBRANCH  17  18
ENDBRANCH  16  17
ENDBRANCH  10  11
ENDBRANCH   1  10
BRANCH   2  29
ATOM     29  C   UNL     1      35.262 -20.552 -20.845  0.00  0.00    -0.050 C 
BRANCH  29  30
ATOM     30  C   UNL     1      34.943 -21.107 -19.483  0.00  0.00    -0.043 C 
ATOM     31  C   UNL     1      35.924 -21.127 -18.491  0.00  0.00    -0.006 C 
ATOM     32  C   UNL     1      33.667 -21.604 -19.213  0.00  0.00    -0.006 C 
ATOM     33  C   UNL     1      35.628 -21.642 -17.230  0.00  0.00    +0.006 C 
ATOM     34  C   UNL     1      33.372 -22.119 -17.952  0.00  0.00    +0.006 C 
ATOM     35  C   UNL     1      34.352 -22.138 -16.958  0.00  0.00    +0.075 C 
BRANCH  35  37
ATOM     36  O   UNL     1      33.272 -23.611 -15.414  0.00  0.00    -0.245 OA
ATOM     37  C   UNL     1      34.044 -22.674 -15.643  0.00  0.00    +0.338 C 
BRANCH  37  38
ATOM     38  O   UNL     1      34.711 -22.027 -14.648  0.00  0.00    -0.477 OA
ATOM     39  H   UNL     1      34.313 -21.296 -14.216  0.00  0.00    +0.295 HD
ENDBRANCH  37  38
ENDBRANCH  35  37
ENDBRANCH  29  30
ENDBRANCH   2  29
TORSDOF 9
ENDMDL
MODEL 6
REMARK VINA RESULT:     -12.4      5.443     15.455
REMARK  Name = 68488178
REMARK  9 active torsions:
REMARK  status: ('A' for Active; 'I' for Inactive)
REMARK    1  A    between atoms: N_1  and  C_10
REMARK    2  A    between atoms: N_2  and  C_29
REMARK    3  A    between atoms: C_10  and  C_11
REMARK    4  A    between atoms: C_16  and  O_17
REMARK    5  A    between atoms: O_17  and  C_18
REMARK    6  A    between atoms: C_23  and  C_26
REMARK    7  A    between atoms: C_29  and  C_30
REMARK    8  A    between atoms: C_35  and  C_37
REMARK    9  A    between atoms: C_37  and  O_38
REMARK                            x       y       z     vdW  Elec       q    Type
REMARK                         _______ _______ _______ _____ _____    ______ ____
ROOT
ATOM      1  N   UNL     1      32.002  -9.786 -21.927  0.00  0.00    +0.388 N 
ATOM      2  N   UNL     1      32.566  -7.047 -22.107  0.00  0.00    +0.388 N 
ATOM      3  C   UNL     1      31.798  -9.010 -23.175  0.00  0.00    -0.081 C 
ATOM      4  C   UNL     1      31.262  -7.564 -21.623  0.00  0.00    -0.081 C 
ATOM      5  C   UNL     1      30.602  -8.126 -22.870  0.00  0.00    -0.046 C 
ATOM      6  C   UNL     1      31.569  -8.860 -20.851  0.00  0.00    -0.098 C 
ATOM      7  C   UNL     1      32.925  -7.961 -23.219  0.00  0.00    -0.098 C 
ATOM      8  H   UNL     1      32.972 -10.085 -21.818  0.00  0.00    -0.079 HD
ATOM      9  H   UNL     1      33.270  -7.036 -21.367  0.00  0.00    -0.079 HD
ENDROOT
BRANCH   1  10
ATOM     10  C   UNL     1      31.248 -11.034 -21.914  0.00  0.00    -0.050 C 
BRANCH  10  11
ATOM     11  C   UNL     1      32.079 -12.196 -22.386  0.00  0.00    -0.043 C 
ATOM     12  C   UNL     1      32.169 -12.480 -23.749  0.00  0.00    -0.003 C 
ATOM     13  C   UNL     1      32.759 -12.990 -21.462  0.00  0.00    -0.003 C 
ATOM     14  C   UNL     1      32.939 -13.558 -24.188  0.00  0.00    +0.037 C 
ATOM     15  C   UNL     1      33.528 -14.068 -21.900  0.00  0.00    +0.037 C 
ATOM     16  C   UNL     1      33.619 -14.352 -23.263  0.00  0.00    +0.145 C 
BRANCH  16  17
ATOM     17  O   UNL     1      34.369 -15.404 -23.691  0.00  0.00    -0.453 OA
BRANCH  17  18
ATOM     18  C   UNL     1      34.446 -16.516 -22.869  0.00  0.00    +0.145 C 
ATOM     19  C   UNL     1      34.043 -17.763 -23.346  0.00  0.00    +0.038 C 
ATOM     20  C   UNL     1      34.925 -16.388 -21.565  0.00  0.00    +0.038 C 
ATOM     21  C   UNL     1      34.118 -18.883 -22.517  0.00  0.00    +0.008 C 
ATOM     22  C   UNL     1      34.999 -17.507 -20.737  0.00  0.00    +0.008 C 
ATOM     23  C   UNL     1      34.596 -18.756 -21.213  0.00  0.00    +0.054 C 
BRANCH  23  26
ATOM     24  O   UNL     1      35.880 -20.116 -19.762  0.00  0.00    -0.431 OA
ATOM     25  N   UNL     1      33.746 -20.799 -20.067  0.00  0.00    -0.206 NA
ATOM     26  C   UNL     1      34.672 -19.914 -20.356  0.00  0.00    +0.230 C 
ATOM     27  C   UNL     1      35.688 -21.246 -19.026  0.00  0.00    +0.202 C 
ATOM     28  C   UNL     1      34.392 -21.656 -19.213  0.00  0.00    +0.143 C 
ENDBRANCH  23  26
ENDBRANCH  17  18
ENDBRANCH  16  17
ENDBRANCH  10  11
ENDBRANCH   1  10
BRANCH   2  29
ATOM     29  C   UNL     1      32.493  -5.656 -22.540  0.00  0.00    -0.050 C 
BRANCH  29  30
ATOM     30  C   UNL     1      32.901  -5.497 -23.980  0.00  0.00    -0.043 C 
ATOM     31  C   UNL     1      31.965  -5.693 -24.996  0.00  0.00    -0.006 C 
ATOM     32  C   UNL     1      34.215  -5.153 -24.299  0.00  0.00    -0.006 C 
ATOM     33  C   UNL     1      32.344  -5.546 -26.330  0.00  0.00    +0.006 C 
ATOM     34  C   UNL     1      34.593  -5.006 -25.633  0.00  0.00    +0.006 C 
ATOM     35  C   UNL     1      33.657  -5.201 -26.650  0.00  0.00    +0.075 C 
BRANCH  35  37
ATOM     36  O   UNL     1      33.364  -5.359 -29.018  0.00  0.00    -0.245 OA
ATOM     37  C   UNL     1      34.051  -5.047 -28.040  0.00  0.00    +0.338 C 
BRANCH  37  38
ATOM     38  O   UNL     1      35.294  -4.507 -28.172  0.00  0.00    -0.477 OA
ATOM     39  H   UNL     1      35.391  -3.588 -28.333  0.00  0.00    +0.295 HD
ENDBRANCH  37  38
ENDBRANCH  35  37
ENDBRANCH  29  30
ENDBRANCH   2  29
TORSDOF 9
ENDMDL
MODEL 7
REMARK VINA RESULT:     -12.4      3.755      6.660
REMARK  Name = 68488178
REMARK  9 active torsions:
REMARK  status: ('A' for Active; 'I' for Inactive)
REMARK    1  A    between atoms: N_1  and  C_10
REMARK    2  A    between atoms: N_2  and  C_29
REMARK    3  A    between atoms: C_10  and  C_11
REMARK    4  A    between atoms: C_16  and  O_17
REMARK    5  A    between atoms: O_17  and  C_18
REMARK    6  A    between atoms: C_23  and  C_26
REMARK    7  A    between atoms: C_29  and  C_30
REMARK    8  A    between atoms: C_35  and  C_37
REMARK    9  A    between atoms: C_37  and  O_38
REMARK                            x       y       z     vdW  Elec       q    Type
REMARK                         _______ _______ _______ _____ _____    ______ ____
ROOT
ATOM      1  N   UNL     1      34.969 -18.778 -20.449  0.00  0.00    +0.388 N 
ATOM      2  N   UNL     1      33.829 -20.947 -19.090  0.00  0.00    +0.388 N 
ATOM      3  C   UNL     1      34.064 -19.748 -21.112  0.00  0.00    -0.081 C 
ATOM      4  C   UNL     1      35.174 -21.013 -19.715  0.00  0.00    -0.081 C 
ATOM      5  C   UNL     1      34.888 -21.020 -21.206  0.00  0.00    -0.046 C 
ATOM      6  C   UNL     1      35.798 -19.616 -19.547  0.00  0.00    -0.098 C 
ATOM      7  C   UNL     1      33.023 -20.159 -20.055  0.00  0.00    -0.098 C 
ATOM      8  H   UNL     1      34.452 -18.056 -19.946  0.00  0.00    -0.079 HD
ATOM      9  H   UNL     1      33.859 -20.518 -18.164  0.00  0.00    -0.079 HD
ENDROOT
BRANCH   1  10
ATOM     10  C   UNL     1      35.780 -18.027 -21.400  0.00  0.00    -0.050 C 
BRANCH  10  11
ATOM     11  C   UNL     1      34.983 -16.956 -22.094  0.00  0.00    -0.043 C 
ATOM     12  C   UNL     1      34.610 -17.119 -23.429  0.00  0.00    -0.003 C 
ATOM     13  C   UNL     1      34.618 -15.800 -21.404  0.00  0.00    -0.003 C 
ATOM     14  C   UNL     1      33.871 -16.126 -24.073  0.00  0.00    +0.037 C 
ATOM     15  C   UNL     1      33.879 -14.807 -22.048  0.00  0.00    +0.037 C 
ATOM     16  C   UNL     1      33.506 -14.970 -23.382  0.00  0.00    +0.145 C 
BRANCH  16  17
ATOM     17  O   UNL     1      32.786 -14.000 -24.011  0.00  0.00    -0.453 OA
BRANCH  17  18
ATOM     18  C   UNL     1      32.516 -12.840 -23.305  0.00  0.00    +0.145 C 
ATOM     19  C   UNL     1      31.819 -12.904 -22.099  0.00  0.00    +0.038 C 
ATOM     20  C   UNL     1      32.940 -11.607 -23.802  0.00  0.00    +0.038 C 
ATOM     21  C   UNL     1      31.544 -11.735 -21.390  0.00  0.00    +0.008 C 
ATOM     22  C   UNL     1      32.665 -10.438 -23.093  0.00  0.00    +0.008 C 
ATOM     23  C   UNL     1      31.967 -10.501 -21.886  0.00  0.00    +0.054 C 
BRANCH  23  26
ATOM     24  O   UNL     1      31.922  -8.135 -21.829  0.00  0.00    -0.431 OA
ATOM     25  N   UNL     1      31.226  -9.147 -19.930  0.00  0.00    -0.206 NA
ATOM     26  C   UNL     1      31.682  -9.292 -21.153  0.00  0.00    +0.230 C 
ATOM     27  C   UNL     1      31.581  -7.167 -20.934  0.00  0.00    +0.202 C 
ATOM     28  C   UNL     1      31.158  -7.785 -19.784  0.00  0.00    +0.143 C 
ENDBRANCH  23  26
ENDBRANCH  17  18
ENDBRANCH  16  17
ENDBRANCH  10  11
ENDBRANCH   1  10
BRANCH   2  29
ATOM     29  C   UNL     1      33.258 -22.267 -18.846  0.00  0.00    -0.050 C 
BRANCH  29  30
ATOM     30  C   UNL     1      32.927 -22.474 -17.392  0.00  0.00    -0.043 C 
ATOM     31  C   UNL     1      33.952 -22.655 -16.463  0.00  0.00    -0.006 C 
ATOM     32  C   UNL     1      31.596 -22.486 -16.974  0.00  0.00    -0.006 C 
ATOM     33  C   UNL     1      33.645 -22.848 -15.116  0.00  0.00    +0.006 C 
ATOM     34  C   UNL     1      31.290 -22.679 -15.627  0.00  0.00    +0.006 C 
ATOM     35  C   UNL     1      32.315 -22.859 -14.697  0.00  0.00    +0.075 C 
BRANCH  35  37
ATOM     36  O   UNL     1      30.861 -23.215 -12.832  0.00  0.00    -0.245 OA
ATOM     37  C   UNL     1      31.996 -23.059 -13.294  0.00  0.00    +0.338 C 
BRANCH  37  38
ATOM     38  O   UNL     1      33.104 -23.061 -12.503  0.00  0.00    -0.477 OA
ATOM     39  H   UNL     1      33.502 -23.873 -12.256  0.00  0.00    +0.295 HD
ENDBRANCH  37  38
ENDBRANCH  35  37
ENDBRANCH  29  30
ENDBRANCH   2  29
TORSDOF 9
ENDMDL
MODEL 8
REMARK VINA RESULT:     -12.3      4.100     13.328
REMARK  Name = 68488178
REMARK  9 active torsions:
REMARK  status: ('A' for Active; 'I' for Inactive)
REMARK    1  A    between atoms: N_1  and  C_10
REMARK    2  A    between atoms: N_2  and  C_29
REMARK    3  A    between atoms: C_10  and  C_11
REMARK    4  A    between atoms: C_16  and  O_17
REMARK    5  A    between atoms: O_17  and  C_18
REMARK    6  A    between atoms: C_23  and  C_26
REMARK    7  A    between atoms: C_29  and  C_30
REMARK    8  A    between atoms: C_35  and  C_37
REMARK    9  A    between atoms: C_37  and  O_38
REMARK                            x       y       z     vdW  Elec       q    Type
REMARK                         _______ _______ _______ _____ _____    ______ ____
ROOT
ATOM      1  N   UNL     1      33.359 -14.211 -22.458  0.00  0.00    +0.388 N 
ATOM      2  N   UNL     1      31.790 -12.231 -21.246  0.00  0.00    +0.388 N 
ATOM      3  C   UNL     1      33.318 -14.014 -20.988  0.00  0.00    -0.081 C 
ATOM      4  C   UNL     1      33.162 -11.968 -21.745  0.00  0.00    -0.081 C 
ATOM      5  C   UNL     1      34.058 -12.708 -20.768  0.00  0.00    -0.046 C 
ATOM      6  C   UNL     1      33.337 -12.832 -23.007  0.00  0.00    -0.098 C 
ATOM      7  C   UNL     1      31.877 -13.588 -20.650  0.00  0.00    -0.098 C 
ATOM      8  H   UNL     1      32.576 -14.775 -22.789  0.00  0.00    -0.079 HD
ATOM      9  H   UNL     1      31.095 -12.176 -21.992  0.00  0.00    -0.079 HD
ENDROOT
BRANCH   1  10
ATOM     10  C   UNL     1      34.535 -14.955 -22.891  0.00  0.00    -0.050 C 
BRANCH  10  11
ATOM     11  C   UNL     1      34.440 -16.414 -22.533  0.00  0.00    -0.043 C 
ATOM     12  C   UNL     1      33.972 -17.333 -23.472  0.00  0.00    -0.003 C 
ATOM     13  C   UNL     1      34.819 -16.846 -21.262  0.00  0.00    -0.003 C 
ATOM     14  C   UNL     1      33.883 -18.685 -23.141  0.00  0.00    +0.037 C 
ATOM     15  C   UNL     1      34.730 -18.199 -20.930  0.00  0.00    +0.037 C 
ATOM     16  C   UNL     1      34.262 -19.118 -21.870  0.00  0.00    +0.145 C 
BRANCH  16  17
ATOM     17  O   UNL     1      34.175 -20.437 -21.545  0.00  0.00    -0.453 OA
BRANCH  17  18
ATOM     18  C   UNL     1      34.537 -20.810 -20.262  0.00  0.00    +0.145 C 
ATOM     19  C   UNL     1      33.588 -21.364 -19.403  0.00  0.00    +0.038 C 
ATOM     20  C   UNL     1      35.850 -20.630 -19.828  0.00  0.00    +0.038 C 
ATOM     21  C   UNL     1      33.952 -21.737 -18.109  0.00  0.00    +0.008 C 
ATOM     22  C   UNL     1      36.214 -21.003 -18.534  0.00  0.00    +0.008 C 
ATOM     23  C   UNL     1      35.265 -21.557 -17.674  0.00  0.00    +0.054 C 
BRANCH  23  26
ATOM     24  O   UNL     1      34.638 -22.470 -15.582  0.00  0.00    -0.431 OA
ATOM     25  N   UNL     1      36.809 -21.856 -15.741  0.00  0.00    -0.206 NA
ATOM     26  C   UNL     1      35.641 -21.942 -16.336  0.00  0.00    +0.230 C 
ATOM     27  C   UNL     1      35.244 -22.742 -14.392  0.00  0.00    +0.202 C 
ATOM     28  C   UNL     1      36.561 -22.369 -14.494  0.00  0.00    +0.143 C 
ENDBRANCH  23  26
ENDBRANCH  17  18
ENDBRANCH  16  17
ENDBRANCH  10  11
ENDBRANCH   1  10
BRANCH   2  29
ATOM     29  C   UNL     1      31.343 -11.235 -20.279  0.00  0.00    -0.050 C 
BRANCH  29  30
ATOM     30  C   UNL     1      31.271  -9.858 -20.884  0.00  0.00    -0.043 C 
ATOM     31  C   UNL     1      30.907  -9.703 -22.222  0.00  0.00    -0.006 C 
ATOM     32  C   UNL     1      31.570  -8.738 -20.108  0.00  0.00    -0.006 C 
ATOM     33  C   UNL     1      30.841  -8.428 -22.782  0.00  0.00    +0.006 C 
ATOM     34  C   UNL     1      31.505  -7.464 -20.669  0.00  0.00    +0.006 C 
ATOM     35  C   UNL     1      31.139  -7.308 -22.007  0.00  0.00    +0.075 C 
BRANCH  35  37
ATOM     36  O   UNL     1      30.473  -5.684 -23.632  0.00  0.00    -0.245 OA
ATOM     37  C   UNL     1      31.070  -5.979 -22.592  0.00  0.00    +0.338 C 
BRANCH  37  38
ATOM     38  O   UNL     1      31.748  -5.053 -21.860  0.00  0.00    -0.477 OA
ATOM     39  H   UNL     1      31.521  -4.146 -21.925  0.00  0.00    +0.295 HD
ENDBRANCH  37  38
ENDBRANCH  35  37
ENDBRANCH  29  30
ENDBRANCH   2  29
TORSDOF 9
ENDMDL
MODEL 9
REMARK VINA RESULT:     -12.1      3.616      6.858
REMARK  Name = 68488178
REMARK  9 active torsions:
REMARK  status: ('A' for Active; 'I' for Inactive)
REMARK    1  A    between atoms: N_1  and  C_10
REMARK    2  A    between atoms: N_2  and  C_29
REMARK    3  A    between atoms: C_10  and  C_11
REMARK    4  A    between atoms: C_16  and  O_17
REMARK    5  A    between atoms: O_17  and  C_18
REMARK    6  A    between atoms: C_23  and  C_26
REMARK    7  A    between atoms: C_29  and  C_30
REMARK    8  A    between atoms: C_35  and  C_37
REMARK    9  A    between atoms: C_37  and  O_38
REMARK                            x       y       z     vdW  Elec       q    Type
REMARK                         _______ _______ _______ _____ _____    ______ ____
ROOT
ATOM      1  N   UNL     1      33.288 -23.458 -14.669  0.00  0.00    +0.388 N 
ATOM      2  N   UNL     1      30.644 -24.379 -14.554  0.00  0.00    +0.388 N 
ATOM      3  C   UNL     1      32.425 -23.260 -13.479  0.00  0.00    -0.081 C 
ATOM      4  C   UNL     1      31.006 -23.062 -15.132  0.00  0.00    -0.081 C 
ATOM      5  C   UNL     1      31.406 -22.228 -13.928  0.00  0.00    -0.046 C 
ATOM      6  C   UNL     1      32.371 -23.251 -15.818  0.00  0.00    -0.098 C 
ATOM      7  C   UNL     1      31.537 -24.513 -13.376  0.00  0.00    -0.098 C 
ATOM      8  H   UNL     1      33.720 -24.383 -14.677  0.00  0.00    -0.079 HD
ATOM      9  H   UNL     1      30.768 -25.138 -15.225  0.00  0.00    -0.079 HD
ENDROOT
BRANCH   1  10
ATOM     10  C   UNL     1      34.422 -22.542 -14.699  0.00  0.00    -0.050 C 
BRANCH  10  11
ATOM     11  C   UNL     1      34.814 -22.182 -16.107  0.00  0.00    -0.043 C 
ATOM     12  C   UNL     1      33.916 -22.386 -17.155  0.00  0.00    -0.003 C 
ATOM     13  C   UNL     1      36.076 -21.643 -16.363  0.00  0.00    -0.003 C 
ATOM     14  C   UNL     1      34.280 -22.052 -18.460  0.00  0.00    +0.037 C 
ATOM     15  C   UNL     1      36.439 -21.309 -17.668  0.00  0.00    +0.037 C 
ATOM     16  C   UNL     1      35.541 -21.514 -18.716  0.00  0.00    +0.145 C 
BRANCH  16  17
ATOM     17  O   UNL     1      35.896 -21.189 -19.989  0.00  0.00    -0.453 OA
BRANCH  17  18
ATOM     18  C   UNL     1      35.550 -19.930 -20.453  0.00  0.00    +0.145 C 
ATOM     19  C   UNL     1      36.546 -19.013 -20.789  0.00  0.00    +0.038 C 
ATOM     20  C   UNL     1      34.207 -19.579 -20.581  0.00  0.00    +0.038 C 
ATOM     21  C   UNL     1      36.198 -17.745 -21.253  0.00  0.00    +0.008 C 
ATOM     22  C   UNL     1      33.858 -18.311 -21.045  0.00  0.00    +0.008 C 
ATOM     23  C   UNL     1      34.854 -17.393 -21.382  0.00  0.00    +0.054 C 
BRANCH  23  26
ATOM     24  O   UNL     1      34.147 -15.187 -20.895  0.00  0.00    -0.431 OA
ATOM     25  N   UNL     1      34.453 -15.626 -23.092  0.00  0.00    -0.206 NA
ATOM     26  C   UNL     1      34.494 -16.081 -21.861  0.00  0.00    +0.230 C 
ATOM     27  C   UNL     1      33.858 -14.056 -21.597  0.00  0.00    +0.202 C 
ATOM     28  C   UNL     1      34.046 -14.327 -22.929  0.00  0.00    +0.143 C 
ENDBRANCH  23  26
ENDBRANCH  17  18
ENDBRANCH  16  17
ENDBRANCH  10  11
ENDBRANCH   1  10
BRANCH   2  29
ATOM     29  C   UNL     1      29.235 -24.464 -14.187  0.00  0.00    -0.050 C 
BRANCH  29  30
ATOM     30  C   UNL     1      28.372 -23.608 -15.076  0.00  0.00    -0.043 C 
ATOM     31  C   UNL     1      28.090 -24.020 -16.379  0.00  0.00    -0.006 C 
ATOM     32  C   UNL     1      27.855 -22.404 -14.597  0.00  0.00    -0.006 C 
ATOM     33  C   UNL     1      27.291 -23.227 -17.202  0.00  0.00    +0.006 C 
ATOM     34  C   UNL     1      27.057 -21.611 -15.421  0.00  0.00    +0.006 C 
ATOM     35  C   UNL     1      26.773 -22.023 -16.724  0.00  0.00    +0.075 C 
BRANCH  35  37
ATOM     36  O   UNL     1      25.590 -20.038 -17.340  0.00  0.00    -0.245 OA
ATOM     37  C   UNL     1      25.941 -21.197 -17.582  0.00  0.00    +0.338 C 
BRANCH  37  38
ATOM     38  O   UNL     1      25.569 -21.841 -18.723  0.00  0.00    -0.477 OA
ATOM     39  H   UNL     1      25.142 -22.675 -18.673  0.00  0.00    +0.295 HD
ENDBRANCH  37  38
ENDBRANCH  35  37
ENDBRANCH  29  30
ENDBRANCH   2  29
TORSDOF 9
ENDMDL
