MODEL 1
REMARK VINA RESULT:     -11.7      0.000      0.000
REMARK  Name = 5288720
REMARK  5 active torsions:
REMARK  status: ('A' for Active; 'I' for Inactive)
REMARK    1  A    between atoms: N_3  and  C_20
REMARK    2  A    between atoms: C_20  and  C_21
REMARK    3  A    between atoms: C_21  and  C_22
REMARK    4  A    between atoms: C_22  and  C_24
REMARK    5  A    between atoms: C_24  and  O_25
REMARK                            x       y       z     vdW  Elec       q    Type
REMARK                         _______ _______ _______ _____ _____    ______ ____
ROOT
ATOM      1  O   UNL     1      31.487 -22.282 -18.077  0.00  0.00    -0.287 OA
ATOM      2  O   UNL     1      33.902 -24.123 -12.381  0.00  0.00    -0.267 OA
ATOM      3  N   UNL     1      34.429 -23.155 -14.446  0.00  0.00    -0.295 N 
ATOM      4  C   UNL     1      33.964 -22.741 -15.687  0.00  0.00    +0.066 A 
ATOM      5  C   UNL     1      32.671 -22.873 -16.043  0.00  0.00    +0.055 A 
ATOM      6  C   UNL     1      34.708 -22.123 -16.793  0.00  0.00    +0.019 C 
ATOM      7  C   UNL     1      31.687 -23.459 -15.146  0.00  0.00    +0.009 A 
ATOM      8  C   UNL     1      33.813 -21.882 -17.835  0.00  0.00    +0.040 C 
ATOM      9  C   UNL     1      32.125 -23.887 -13.884  0.00  0.00    +0.056 A 
ATOM     10  C   UNL     1      32.500 -22.341 -17.413  0.00  0.00    +0.197 C 
ATOM     11  C   UNL     1      33.557 -23.737 -13.497  0.00  0.00    +0.261 A 
ATOM     12  C   UNL     1      36.033 -21.758 -16.982  0.00  0.00    +0.002 C 
ATOM     13  C   UNL     1      30.336 -23.612 -15.481  0.00  0.00    +0.000 C 
ATOM     14  C   UNL     1      34.159 -21.306 -19.046  0.00  0.00    +0.003 C 
ATOM     15  C   UNL     1      31.222 -24.458 -12.975  0.00  0.00    +0.005 C 
ATOM     16  C   UNL     1      36.420 -21.171 -18.198  0.00  0.00    +0.000 C 
ATOM     17  C   UNL     1      35.491 -20.946 -19.222  0.00  0.00    +0.000 C 
ATOM     18  C   UNL     1      29.439 -24.183 -14.574  0.00  0.00    +0.000 C 
ATOM     19  C   UNL     1      29.882 -24.605 -13.325  0.00  0.00    +0.000 C 
ENDROOT
BRANCH   3  20
ATOM     20  C   UNL     1      35.837 -22.988 -14.118  0.00  0.00    +0.110 C 
BRANCH  20  21
ATOM     21  C   UNL     1      36.669 -24.231 -14.424  0.00  0.00    +0.036 C 
BRANCH  21  22
ATOM     22  C   UNL     1      38.144 -23.940 -14.718  0.00  0.00    +0.111 C 
BRANCH  22  24
ATOM     23  O   UNL     1      39.065 -25.898 -13.599  0.00  0.00    -0.250 OA
ATOM     24  C   UNL     1      39.033 -25.154 -14.568  0.00  0.00    +0.314 C 
BRANCH  24  25
ATOM     25  O   UNL     1      39.801 -25.346 -15.674  0.00  0.00    -0.480 OA
ATOM     26  H   UNL     1      40.735 -25.309 -15.608  0.00  0.00    +0.295 HD
ENDBRANCH  24  25
ENDBRANCH  22  24
ENDBRANCH  21  22
ENDBRANCH  20  21
ENDBRANCH   3  20
TORSDOF 5
ENDMDL
MODEL 2
REMARK VINA RESULT:     -11.7      2.076      6.900
REMARK  Name = 5288720
REMARK  5 active torsions:
REMARK  status: ('A' for Active; 'I' for Inactive)
REMARK    1  A    between atoms: N_3  and  C_20
REMARK    2  A    between atoms: C_20  and  C_21
REMARK    3  A    between atoms: C_21  and  C_22
REMARK    4  A    between atoms: C_22  and  C_24
REMARK    5  A    between atoms: C_24  and  O_25
REMARK                            x       y       z     vdW  Elec       q    Type
REMARK                         _______ _______ _______ _____ _____    ______ ____
ROOT
ATOM      1  O   UNL     1      37.587 -22.070 -15.611  0.00  0.00    -0.287 OA
ATOM      2  O   UNL     1      31.458 -22.370 -17.614  0.00  0.00    -0.267 OA
ATOM      3  N   UNL     1      32.904 -22.850 -15.836  0.00  0.00    -0.295 N 
ATOM      4  C   UNL     1      34.205 -22.810 -15.354  0.00  0.00    +0.066 A 
ATOM      5  C   UNL     1      35.220 -22.314 -16.087  0.00  0.00    +0.055 A 
ATOM      6  C   UNL     1      34.722 -23.260 -14.054  0.00  0.00    +0.019 C 
ATOM      7  C   UNL     1      35.011 -21.790 -17.428  0.00  0.00    +0.009 A 
ATOM      8  C   UNL     1      36.095 -23.015 -14.027  0.00  0.00    +0.040 C 
ATOM      9  C   UNL     1      33.707 -21.816 -17.944  0.00  0.00    +0.056 A 
ATOM     10  C   UNL     1      36.467 -22.412 -15.297  0.00  0.00    +0.197 C 
ATOM     11  C   UNL     1      32.588 -22.366 -17.127  0.00  0.00    +0.261 A 
ATOM     12  C   UNL     1      34.148 -23.839 -12.932  0.00  0.00    +0.002 C 
ATOM     13  C   UNL     1      36.041 -21.267 -18.219  0.00  0.00    +0.000 C 
ATOM     14  C   UNL     1      36.922 -23.311 -12.956  0.00  0.00    +0.003 C 
ATOM     15  C   UNL     1      33.442 -21.324 -19.231  0.00  0.00    +0.005 C 
ATOM     16  C   UNL     1      34.955 -24.153 -11.827  0.00  0.00    +0.000 C 
ATOM     17  C   UNL     1      36.332 -23.891 -11.839  0.00  0.00    +0.000 C 
ATOM     18  C   UNL     1      35.775 -20.779 -19.501  0.00  0.00    +0.000 C 
ATOM     19  C   UNL     1      34.479 -20.808 -20.005  0.00  0.00    +0.000 C 
ENDROOT
BRANCH   3  20
ATOM     20  C   UNL     1      31.847 -23.399 -14.999  0.00  0.00    +0.110 C 
BRANCH  20  21
ATOM     21  C   UNL     1      30.760 -22.377 -14.670  0.00  0.00    +0.036 C 
BRANCH  21  22
ATOM     22  C   UNL     1      29.338 -22.944 -14.702  0.00  0.00    +0.111 C 
BRANCH  22  24
ATOM     23  O   UNL     1      27.369 -21.608 -15.225  0.00  0.00    -0.250 OA
ATOM     24  C   UNL     1      28.400 -22.155 -15.589  0.00  0.00    +0.314 C 
BRANCH  24  25
ATOM     25  O   UNL     1      28.856 -22.100 -16.868  0.00  0.00    -0.480 OA
ATOM     26  H   UNL     1      29.375 -21.372 -17.149  0.00  0.00    +0.295 HD
ENDBRANCH  24  25
ENDBRANCH  22  24
ENDBRANCH  21  22
ENDBRANCH  20  21
ENDBRANCH   3  20
TORSDOF 5
ENDMDL
MODEL 3
REMARK VINA RESULT:     -11.6      1.357      4.783
REMARK  Name = 5288720
REMARK  5 active torsions:
REMARK  status: ('A' for Active; 'I' for Inactive)
REMARK    1  A    between atoms: N_3  and  C_20
REMARK    2  A    between atoms: C_20  and  C_21
REMARK    3  A    between atoms: C_21  and  C_22
REMARK    4  A    between atoms: C_22  and  C_24
REMARK    5  A    between atoms: C_24  and  O_25
REMARK                            x       y       z     vdW  Elec       q    Type
REMARK                         _______ _______ _______ _____ _____    ______ ____
ROOT
ATOM      1  O   UNL     1      30.803 -22.355 -17.440  0.00  0.00    -0.287 OA
ATOM      2  O   UNL     1      37.141 -22.100 -16.246  0.00  0.00    -0.267 OA
ATOM      3  N   UNL     1      35.073 -22.797 -15.399  0.00  0.00    -0.295 N 
ATOM      4  C   UNL     1      33.703 -22.879 -15.603  0.00  0.00    +0.066 A 
ATOM      5  C   UNL     1      33.120 -22.400 -16.720  0.00  0.00    +0.055 A 
ATOM      6  C   UNL     1      32.671 -23.453 -14.728  0.00  0.00    +0.019 C 
ATOM      7  C   UNL     1      33.895 -21.769 -17.776  0.00  0.00    +0.009 A 
ATOM      8  C   UNL     1      31.437 -23.305 -15.360  0.00  0.00    +0.040 C 
ATOM      9  C   UNL     1      35.283 -21.671 -17.600  0.00  0.00    +0.056 A 
ATOM     10  C   UNL     1      31.663 -22.640 -16.634  0.00  0.00    +0.197 C 
ATOM     11  C   UNL     1      35.922 -22.203 -16.362  0.00  0.00    +0.261 A 
ATOM     12  C   UNL     1      32.690 -24.069 -13.486  0.00  0.00    +0.002 C 
ATOM     13  C   UNL     1      33.324 -21.259 -18.949  0.00  0.00    +0.000 C 
ATOM     14  C   UNL     1      30.230 -23.731 -14.830  0.00  0.00    +0.003 C 
ATOM     15  C   UNL     1      36.084 -21.073 -18.585  0.00  0.00    +0.005 C 
ATOM     16  C   UNL     1      31.486 -24.514 -12.917  0.00  0.00    +0.000 C 
ATOM     17  C   UNL     1      30.265 -24.346 -13.584  0.00  0.00    +0.000 C 
ATOM     18  C   UNL     1      34.124 -20.663 -19.928  0.00  0.00    +0.000 C 
ATOM     19  C   UNL     1      35.500 -20.571 -19.746  0.00  0.00    +0.000 C 
ENDROOT
BRANCH   3  20
ATOM     20  C   UNL     1      35.647 -23.332 -14.172  0.00  0.00    +0.110 C 
BRANCH  20  21
ATOM     21  C   UNL     1      36.228 -24.733 -14.351  0.00  0.00    +0.036 C 
BRANCH  21  22
ATOM     22  C   UNL     1      37.502 -24.990 -13.540  0.00  0.00    +0.111 C 
BRANCH  22  24
ATOM     23  O   UNL     1      39.392 -26.191 -14.499  0.00  0.00    -0.250 OA
ATOM     24  C   UNL     1      38.732 -25.166 -14.402  0.00  0.00    +0.314 C 
BRANCH  24  25
ATOM     25  O   UNL     1      39.020 -24.032 -15.094  0.00  0.00    -0.480 OA
ATOM     26  H   UNL     1      39.898 -23.867 -15.379  0.00  0.00    +0.295 HD
ENDBRANCH  24  25
ENDBRANCH  22  24
ENDBRANCH  21  22
ENDBRANCH  20  21
ENDBRANCH   3  20
TORSDOF 5
ENDMDL
MODEL 4
REMARK VINA RESULT:     -11.5      2.012      5.845
REMARK  Name = 5288720
REMARK  5 active torsions:
REMARK  status: ('A' for Active; 'I' for Inactive)
REMARK    1  A    between atoms: N_3  and  C_20
REMARK    2  A    between atoms: C_20  and  C_21
REMARK    3  A    between atoms: C_21  and  C_22
REMARK    4  A    between atoms: C_22  and  C_24
REMARK    5  A    between atoms: C_24  and  O_25
REMARK                            x       y       z     vdW  Elec       q    Type
REMARK                         _______ _______ _______ _____ _____    ______ ____
ROOT
ATOM      1  O   UNL     1      37.365 -21.716 -16.051  0.00  0.00    -0.287 OA
ATOM      2  O   UNL     1      32.428 -24.228 -12.736  0.00  0.00    -0.267 OA
ATOM      3  N   UNL     1      33.069 -23.319 -14.797  0.00  0.00    -0.295 N 
ATOM      4  C   UNL     1      34.095 -22.772 -15.556  0.00  0.00    +0.066 A 
ATOM      5  C   UNL     1      35.338 -22.612 -15.062  0.00  0.00    +0.055 A 
ATOM      6  C   UNL     1      34.059 -22.288 -16.943  0.00  0.00    +0.019 C 
ATOM      7  C   UNL     1      35.678 -23.003 -13.703  0.00  0.00    +0.009 A 
ATOM      8  C   UNL     1      35.334 -21.828 -17.272  0.00  0.00    +0.040 C 
ATOM      9  C   UNL     1      34.663 -23.560 -12.910  0.00  0.00    +0.056 A 
ATOM     10  C   UNL     1      36.190 -22.010 -16.111  0.00  0.00    +0.197 C 
ATOM     11  C   UNL     1      33.290 -23.735 -13.463  0.00  0.00    +0.261 A 
ATOM     12  C   UNL     1      33.073 -22.208 -17.914  0.00  0.00    +0.002 C 
ATOM     13  C   UNL     1      36.957 -22.852 -13.156  0.00  0.00    +0.000 C 
ATOM     14  C   UNL     1      35.680 -21.296 -18.503  0.00  0.00    +0.003 C 
ATOM     15  C   UNL     1      34.930 -23.957 -11.591  0.00  0.00    +0.005 C 
ATOM     16  C   UNL     1      33.387 -21.674 -19.175  0.00  0.00    +0.000 C 
ATOM     17  C   UNL     1      34.681 -21.222 -19.467  0.00  0.00    +0.000 C 
ATOM     18  C   UNL     1      37.221 -23.247 -11.842  0.00  0.00    +0.000 C 
ATOM     19  C   UNL     1      36.209 -23.799 -11.062  0.00  0.00    +0.000 C 
ENDROOT
BRANCH   3  20
ATOM     20  C   UNL     1      31.745 -23.468 -15.383  0.00  0.00    +0.110 C 
BRANCH  20  21
ATOM     21  C   UNL     1      30.771 -22.382 -14.929  0.00  0.00    +0.036 C 
BRANCH  21  22
ATOM     22  C   UNL     1      29.331 -22.872 -14.744  0.00  0.00    +0.111 C 
BRANCH  22  24
ATOM     23  O   UNL     1      27.290 -21.635 -15.230  0.00  0.00    -0.250 OA
ATOM     24  C   UNL     1      28.335 -22.141 -15.615  0.00  0.00    +0.314 C 
BRANCH  24  25
ATOM     25  O   UNL     1      28.752 -22.086 -16.907  0.00  0.00    -0.480 OA
ATOM     26  H   UNL     1      29.526 -21.606 -17.130  0.00  0.00    +0.295 HD
ENDBRANCH  24  25
ENDBRANCH  22  24
ENDBRANCH  21  22
ENDBRANCH  20  21
ENDBRANCH   3  20
TORSDOF 5
ENDMDL
MODEL 5
REMARK VINA RESULT:     -11.0      2.217      2.443
REMARK  Name = 5288720
REMARK  5 active torsions:
REMARK  status: ('A' for Active; 'I' for Inactive)
REMARK    1  A    between atoms: N_3  and  C_20
REMARK    2  A    between atoms: C_20  and  C_21
REMARK    3  A    between atoms: C_21  and  C_22
REMARK    4  A    between atoms: C_22  and  C_24
REMARK    5  A    between atoms: C_24  and  O_25
REMARK                            x       y       z     vdW  Elec       q    Type
REMARK                         _______ _______ _______ _____ _____    ______ ____
ROOT
ATOM      1  O   UNL     1      31.554 -21.872 -18.334  0.00  0.00    -0.287 OA
ATOM      2  O   UNL     1      32.725 -24.596 -12.601  0.00  0.00    -0.267 OA
ATOM      3  N   UNL     1      33.712 -23.535 -14.439  0.00  0.00    -0.295 N 
ATOM      4  C   UNL     1      33.518 -22.939 -15.678  0.00  0.00    +0.066 A 
ATOM      5  C   UNL     1      32.295 -22.831 -16.231  0.00  0.00    +0.055 A 
ATOM      6  C   UNL     1      34.513 -22.345 -16.582  0.00  0.00    +0.019 C 
ATOM      7  C   UNL     1      31.105 -23.334 -15.563  0.00  0.00    +0.009 A 
ATOM      8  C   UNL     1      33.842 -21.870 -17.709  0.00  0.00    +0.040 C 
ATOM      9  C   UNL     1      31.267 -23.942 -14.310  0.00  0.00    +0.056 A 
ATOM     10  C   UNL     1      32.426 -22.152 -17.540  0.00  0.00    +0.197 C 
ATOM     11  C   UNL     1      32.624 -24.058 -13.702  0.00  0.00    +0.261 A 
ATOM     12  C   UNL     1      35.889 -22.179 -16.531  0.00  0.00    +0.002 C 
ATOM     13  C   UNL     1      29.819 -23.240 -16.108  0.00  0.00    +0.000 C 
ATOM     14  C   UNL     1      34.459 -21.244 -18.780  0.00  0.00    +0.003 C 
ATOM     15  C   UNL     1      30.157 -24.446 -13.616  0.00  0.00    +0.005 C 
ATOM     16  C   UNL     1      36.548 -21.549 -17.600  0.00  0.00    +0.000 C 
ATOM     17  C   UNL     1      35.838 -21.085 -18.715  0.00  0.00    +0.000 C 
ATOM     18  C   UNL     1      28.715 -23.743 -15.416  0.00  0.00    +0.000 C 
ATOM     19  C   UNL     1      28.884 -24.345 -14.173  0.00  0.00    +0.000 C 
ENDROOT
BRANCH   3  20
ATOM     20  C   UNL     1      35.057 -23.624 -13.890  0.00  0.00    +0.110 C 
BRANCH  20  21
ATOM     21  C   UNL     1      35.250 -22.756 -12.648  0.00  0.00    +0.036 C 
BRANCH  21  22
ATOM     22  C   UNL     1      36.312 -23.280 -11.677  0.00  0.00    +0.111 C 
BRANCH  22  24
ATOM     23  O   UNL     1      36.069 -23.490  -9.262  0.00  0.00    -0.250 OA
ATOM     24  C   UNL     1      35.730 -23.820 -10.390  0.00  0.00    +0.314 C 
BRANCH  24  25
ATOM     25  O   UNL     1      34.742 -24.722 -10.632  0.00  0.00    -0.480 OA
ATOM     26  H   UNL     1      34.137 -24.577 -11.332  0.00  0.00    +0.295 HD
ENDBRANCH  24  25
ENDBRANCH  22  24
ENDBRANCH  21  22
ENDBRANCH  20  21
ENDBRANCH   3  20
TORSDOF 5
ENDMDL
MODEL 6
REMARK VINA RESULT:     -10.0      2.315      5.382
REMARK  Name = 5288720
REMARK  5 active torsions:
REMARK  status: ('A' for Active; 'I' for Inactive)
REMARK    1  A    between atoms: N_3  and  C_20
REMARK    2  A    between atoms: C_20  and  C_21
REMARK    3  A    between atoms: C_21  and  C_22
REMARK    4  A    between atoms: C_22  and  C_24
REMARK    5  A    between atoms: C_24  and  O_25
REMARK                            x       y       z     vdW  Elec       q    Type
REMARK                         _______ _______ _______ _____ _____    ______ ____
ROOT
ATOM      1  O   UNL     1      33.069 -24.277 -12.395  0.00  0.00    -0.287 OA
ATOM      2  O   UNL     1      31.842 -21.772 -18.216  0.00  0.00    -0.267 OA
ATOM      3  N   UNL     1      33.544 -22.407 -16.739  0.00  0.00    -0.295 N 
ATOM      4  C   UNL     1      33.866 -22.941 -15.499  0.00  0.00    +0.066 A 
ATOM      5  C   UNL     1      32.918 -23.318 -14.619  0.00  0.00    +0.055 A 
ATOM      6  C   UNL     1      35.192 -23.192 -14.917  0.00  0.00    +0.019 C 
ATOM      7  C   UNL     1      31.500 -23.186 -14.919  0.00  0.00    +0.009 A 
ATOM      8  C   UNL     1      35.010 -23.739 -13.647  0.00  0.00    +0.040 C 
ATOM      9  C   UNL     1      31.142 -22.651 -16.164  0.00  0.00    +0.056 A 
ATOM     10  C   UNL     1      33.580 -23.842 -13.404  0.00  0.00    +0.197 C 
ATOM     11  C   UNL     1      32.197 -22.236 -17.134  0.00  0.00    +0.261 A 
ATOM     12  C   UNL     1      36.493 -23.003 -15.359  0.00  0.00    +0.002 C 
ATOM     13  C   UNL     1      30.488 -23.567 -14.029  0.00  0.00    +0.000 C 
ATOM     14  C   UNL     1      36.042 -24.105 -12.799  0.00  0.00    +0.003 C 
ATOM     15  C   UNL     1      29.791 -22.500 -16.511  0.00  0.00    +0.005 C 
ATOM     16  C   UNL     1      37.564 -23.363 -14.525  0.00  0.00    +0.000 C 
ATOM     17  C   UNL     1      37.340 -23.910 -13.255  0.00  0.00    +0.000 C 
ATOM     18  C   UNL     1      29.143 -23.415 -14.376  0.00  0.00    +0.000 C 
ATOM     19  C   UNL     1      28.796 -22.883 -15.614  0.00  0.00    +0.000 C 
ENDROOT
BRANCH   3  20
ATOM     20  C   UNL     1      34.612 -22.017 -17.649  0.00  0.00    +0.110 C 
BRANCH  20  21
ATOM     21  C   UNL     1      34.165 -21.991 -19.110  0.00  0.00    +0.036 C 
BRANCH  21  22
ATOM     22  C   UNL     1      34.883 -20.942 -19.964  0.00  0.00    +0.111 C 
BRANCH  22  24
ATOM     23  O   UNL     1      34.360 -18.675 -20.688  0.00  0.00    -0.250 OA
ATOM     24  C   UNL     1      33.986 -19.800 -20.386  0.00  0.00    +0.314 C 
BRANCH  24  25
ATOM     25  O   UNL     1      32.681 -20.178 -20.416  0.00  0.00    -0.480 OA
ATOM     26  H   UNL     1      32.387 -20.886 -19.876  0.00  0.00    +0.295 HD
ENDBRANCH  24  25
ENDBRANCH  22  24
ENDBRANCH  21  22
ENDBRANCH  20  21
ENDBRANCH   3  20
TORSDOF 5
ENDMDL
MODEL 7
REMARK VINA RESULT:      -9.9      2.409      6.346
REMARK  Name = 5288720
REMARK  5 active torsions:
REMARK  status: ('A' for Active; 'I' for Inactive)
REMARK    1  A    between atoms: N_3  and  C_20
REMARK    2  A    between atoms: C_20  and  C_21
REMARK    3  A    between atoms: C_21  and  C_22
REMARK    4  A    between atoms: C_22  and  C_24
REMARK    5  A    between atoms: C_24  and  O_25
REMARK                            x       y       z     vdW  Elec       q    Type
REMARK                         _______ _______ _______ _____ _____    ______ ____
ROOT
ATOM      1  O   UNL     1      31.987 -24.652 -12.748  0.00  0.00    -0.287 OA
ATOM      2  O   UNL     1      35.274 -21.852 -17.546  0.00  0.00    -0.267 OA
ATOM      3  N   UNL     1      33.134 -22.413 -16.781  0.00  0.00    -0.295 N 
ATOM      4  C   UNL     1      32.377 -23.004 -15.779  0.00  0.00    +0.066 A 
ATOM      5  C   UNL     1      32.945 -23.550 -14.686  0.00  0.00    +0.055 A 
ATOM      6  C   UNL     1      30.918 -23.153 -15.690  0.00  0.00    +0.019 C 
ATOM      7  C   UNL     1      34.387 -23.553 -14.494  0.00  0.00    +0.009 A 
ATOM      8  C   UNL     1      30.622 -23.812 -14.497  0.00  0.00    +0.040 C 
ATOM      9  C   UNL     1      35.180 -22.964 -15.490  0.00  0.00    +0.056 A 
ATOM     10  C   UNL     1      31.877 -24.089 -13.816  0.00  0.00    +0.197 C 
ATOM     11  C   UNL     1      34.545 -22.360 -16.696  0.00  0.00    +0.261 A 
ATOM     12  C   UNL     1      29.857 -22.789 -16.506  0.00  0.00    +0.002 C 
ATOM     13  C   UNL     1      35.012 -24.111 -13.373  0.00  0.00    +0.000 C 
ATOM     14  C   UNL     1      29.342 -24.128 -14.074  0.00  0.00    +0.003 C 
ATOM     15  C   UNL     1      36.577 -22.935 -15.361  0.00  0.00    +0.005 C 
ATOM     16  C   UNL     1      28.544 -23.093 -16.110  0.00  0.00    +0.000 C 
ATOM     17  C   UNL     1      28.289 -23.757 -14.903  0.00  0.00    +0.000 C 
ATOM     18  C   UNL     1      36.404 -24.083 -13.247  0.00  0.00    +0.000 C 
ATOM     19  C   UNL     1      37.183 -23.496 -14.239  0.00  0.00    +0.000 C 
ENDROOT
BRANCH   3  20
ATOM     20  C   UNL     1      32.465 -21.839 -17.940  0.00  0.00    +0.110 C 
BRANCH  20  21
ATOM     21  C   UNL     1      33.409 -21.613 -19.119  0.00  0.00    +0.036 C 
BRANCH  21  22
ATOM     22  C   UNL     1      33.060 -20.393 -19.975  0.00  0.00    +0.111 C 
BRANCH  22  24
ATOM     23  O   UNL     1      34.269 -19.089 -21.640  0.00  0.00    -0.250 OA
ATOM     24  C   UNL     1      34.269 -19.738 -20.604  0.00  0.00    +0.314 C 
BRANCH  24  25
ATOM     25  O   UNL     1      35.386 -19.937 -19.856  0.00  0.00    -0.480 OA
ATOM     26  H   UNL     1      35.878 -19.203 -19.544  0.00  0.00    +0.295 HD
ENDBRANCH  24  25
ENDBRANCH  22  24
ENDBRANCH  21  22
ENDBRANCH  20  21
ENDBRANCH   3  20
TORSDOF 5
ENDMDL
MODEL 8
REMARK VINA RESULT:      -8.9      2.430      5.739
REMARK  Name = 5288720
REMARK  5 active torsions:
REMARK  status: ('A' for Active; 'I' for Inactive)
REMARK    1  A    between atoms: N_3  and  C_20
REMARK    2  A    between atoms: C_20  and  C_21
REMARK    3  A    between atoms: C_21  and  C_22
REMARK    4  A    between atoms: C_22  and  C_24
REMARK    5  A    between atoms: C_24  and  O_25
REMARK                            x       y       z     vdW  Elec       q    Type
REMARK                         _______ _______ _______ _____ _____    ______ ____
ROOT
ATOM      1  O   UNL     1      36.683 -21.488 -17.904  0.00  0.00    -0.287 OA
ATOM      2  O   UNL     1      31.999 -23.856 -14.146  0.00  0.00    -0.267 OA
ATOM      3  N   UNL     1      32.441 -22.698 -16.132  0.00  0.00    -0.295 N 
ATOM      4  C   UNL     1      33.407 -22.169 -16.978  0.00  0.00    +0.066 A 
ATOM      5  C   UNL     1      34.722 -22.264 -16.702  0.00  0.00    +0.055 A 
ATOM      6  C   UNL     1      33.229 -21.452 -18.248  0.00  0.00    +0.019 C 
ATOM      7  C   UNL     1      35.207 -22.926 -15.501  0.00  0.00    +0.009 A 
ATOM      8  C   UNL     1      34.493 -21.115 -18.734  0.00  0.00    +0.040 C 
ATOM      9  C   UNL     1      34.256 -23.471 -14.626  0.00  0.00    +0.056 A 
ATOM     10  C   UNL     1      35.482 -21.608 -17.789  0.00  0.00    +0.197 C 
ATOM     11  C   UNL     1      32.801 -23.364 -14.938  0.00  0.00    +0.261 A 
ATOM     12  C   UNL     1      32.127 -21.074 -18.999  0.00  0.00    +0.002 C 
ATOM     13  C   UNL     1      36.565 -23.043 -15.182  0.00  0.00    +0.000 C 
ATOM     14  C   UNL     1      34.719 -20.429 -19.916  0.00  0.00    +0.003 C 
ATOM     15  C   UNL     1      34.662 -24.123 -13.453  0.00  0.00    +0.005 C 
ATOM     16  C   UNL     1      32.317 -20.377 -20.203  0.00  0.00    +0.000 C 
ATOM     17  C   UNL     1      33.604 -20.057 -20.658  0.00  0.00    +0.000 C 
ATOM     18  C   UNL     1      36.967 -23.692 -14.012  0.00  0.00    +0.000 C 
ATOM     19  C   UNL     1      36.017 -24.230 -13.150  0.00  0.00    +0.000 C 
ENDROOT
BRANCH   3  20
ATOM     20  C   UNL     1      31.034 -22.565 -16.481  0.00  0.00    +0.110 C 
BRANCH  20  21
ATOM     21  C   UNL     1      30.246 -23.856 -16.268  0.00  0.00    +0.036 C 
BRANCH  21  22
ATOM     22  C   UNL     1      28.813 -23.639 -15.772  0.00  0.00    +0.111 C 
BRANCH  22  24
ATOM     23  O   UNL     1      27.816 -21.530 -15.072  0.00  0.00    -0.250 OA
ATOM     24  C   UNL     1      28.658 -22.402 -14.916  0.00  0.00    +0.314 C 
BRANCH  24  25
ATOM     25  O   UNL     1      29.572 -22.378 -13.910  0.00  0.00    -0.480 OA
ATOM     26  H   UNL     1      30.262 -23.011 -13.888  0.00  0.00    +0.295 HD
ENDBRANCH  24  25
ENDBRANCH  22  24
ENDBRANCH  21  22
ENDBRANCH  20  21
ENDBRANCH   3  20
TORSDOF 5
ENDMDL
