MODEL 1
REMARK VINA RESULT:     -13.4      0.000      0.000
REMARK  Name = 90311989
REMARK  4 active torsions:
REMARK  status: ('A' for Active; 'I' for Inactive)
REMARK    1  A    between atoms: C_16  and  O_33
REMARK    2  A    between atoms: C_17  and  C_21
REMARK    3  A    between atoms: N_20  and  C_23
REMARK    4  A    between atoms: C_23  and  C_27
REMARK                            x       y       z     vdW  Elec       q    Type
REMARK                         _______ _______ _______ _____ _____    ______ ____
ROOT
ATOM      1  O   UNL     1      37.565 -22.654 -15.051  0.00  0.00    -0.339 OA
ATOM      2  O   UNL     1      32.993 -22.693 -16.281  0.00  0.00    -0.268 OA
ATOM      3  O   UNL     1      33.177 -20.456 -20.853  0.00  0.00    -0.283 OA
ATOM      4  N   UNL     1      35.235 -22.789 -15.723  0.00  0.00    -0.253 N 
ATOM      5  N   UNL     1      35.799 -20.998 -17.809  0.00  0.00    -0.275 N 
ATOM      6  C   UNL     1      35.016 -23.693 -14.584  0.00  0.00    +0.080 C 
ATOM      7  C   UNL     1      37.262 -23.623 -14.043  0.00  0.00    +0.119 C 
ATOM      8  C   UNL     1      35.917 -23.263 -13.436  0.00  0.00    +0.049 C 
ATOM      9  C   UNL     1      35.542 -25.095 -14.922  0.00  0.00    +0.022 C 
ATOM     10  C   UNL     1      37.049 -25.024 -14.631  0.00  0.00    +0.031 C 
ATOM     11  C   UNL     1      36.623 -22.547 -16.131  0.00  0.00    +0.215 C 
ATOM     12  C   UNL     1      36.748 -21.150 -16.711  0.00  0.00    +0.147 C 
ATOM     13  C   UNL     1      34.163 -22.403 -16.530  0.00  0.00    +0.267 C 
ATOM     14  C   UNL     1      34.526 -21.579 -17.747  0.00  0.00    +0.143 C 
ATOM     15  C   UNL     1      36.122 -20.211 -18.906  0.00  0.00    +0.074 C 
ATOM     16  C   UNL     1      33.610 -21.433 -18.730  0.00  0.00    +0.191 C 
ATOM     17  C   UNL     1      35.315 -19.979 -19.948  0.00  0.00    +0.110 C 
ATOM     18  C   UNL     1      33.968 -20.608 -19.929  0.00  0.00    +0.236 C 
ENDROOT
BRANCH  17  21
ATOM     19  O   UNL     1      37.004 -18.994 -21.249  0.00  0.00    -0.270 OA
ATOM     20  N   UNL     1      34.775 -18.527 -21.750  0.00  0.00    -0.297 N 
ATOM     21  C   UNL     1      35.798 -19.127 -21.035  0.00  0.00    +0.251 C 
ATOM     22  H   UNL     1      33.847 -18.713 -21.480  0.00  0.00    +0.150 HD
BRANCH  20  23
ATOM     23  C   UNL     1      34.999 -17.640 -22.869  0.00  0.00    +0.121 C 
BRANCH  23  27
ATOM     24  F   UNL     1      34.684 -16.595 -20.260  0.00  0.00    -0.204 F 
ATOM     25  F   UNL     1      34.262 -15.849 -24.929  0.00  0.00    -0.204 F 
ATOM     26  F   UNL     1      33.066 -12.449 -21.865  0.00  0.00    -0.204 F 
ATOM     27  C   UNL     1      34.485 -16.256 -22.601  0.00  0.00    +0.053 C 
ATOM     28  C   UNL     1      34.353 -15.802 -21.289  0.00  0.00    +0.142 C 
ATOM     29  C   UNL     1      34.138 -15.422 -23.665  0.00  0.00    +0.142 C 
ATOM     30  C   UNL     1      33.873 -14.516 -21.040  0.00  0.00    +0.059 C 
ATOM     31  C   UNL     1      33.660 -14.137 -23.416  0.00  0.00    +0.059 C 
ATOM     32  C   UNL     1      33.527 -13.684 -22.104  0.00  0.00    +0.145 C 
ENDBRANCH  23  27
ENDBRANCH  20  23
ENDBRANCH  17  21
BRANCH  16  33
ATOM     33  O   UNL     1      32.359 -22.007 -18.714  0.00  0.00    -0.502 OA
ATOM     34  H   UNL     1      32.256 -22.912 -18.933  0.00  0.00    +0.292 HD
ENDBRANCH  16  33
TORSDOF 4
ENDMDL
MODEL 2
REMARK VINA RESULT:     -13.1      3.061      4.669
REMARK  Name = 90311989
REMARK  4 active torsions:
REMARK  status: ('A' for Active; 'I' for Inactive)
REMARK    1  A    between atoms: C_16  and  O_33
REMARK    2  A    between atoms: C_17  and  C_21
REMARK    3  A    between atoms: N_20  and  C_23
REMARK    4  A    between atoms: C_23  and  C_27
REMARK                            x       y       z     vdW  Elec       q    Type
REMARK                         _______ _______ _______ _____ _____    ______ ____
ROOT
ATOM      1  O   UNL     1      38.065 -23.558 -14.122  0.00  0.00    -0.339 OA
ATOM      2  O   UNL     1      33.883 -24.186 -11.994  0.00  0.00    -0.268 OA
ATOM      3  O   UNL     1      30.665 -23.179 -15.811  0.00  0.00    -0.283 OA
ATOM      4  N   UNL     1      35.929 -24.001 -13.053  0.00  0.00    -0.253 N 
ATOM      5  N   UNL     1      34.657 -22.769 -15.230  0.00  0.00    -0.275 N 
ATOM      6  C   UNL     1      36.676 -24.597 -11.934  0.00  0.00    +0.080 C 
ATOM      7  C   UNL     1      38.680 -24.255 -13.034  0.00  0.00    +0.119 C 
ATOM      8  C   UNL     1      37.980 -23.834 -11.753  0.00  0.00    +0.049 C 
ATOM      9  C   UNL     1      37.155 -26.004 -12.317  0.00  0.00    +0.022 C 
ATOM     10  C   UNL     1      38.449 -25.769 -13.112  0.00  0.00    +0.031 C 
ATOM     11  C   UNL     1      36.658 -23.787 -14.307  0.00  0.00    +0.215 C 
ATOM     12  C   UNL     1      36.090 -22.579 -15.029  0.00  0.00    +0.147 C 
ATOM     13  C   UNL     1      34.539 -23.899 -12.995  0.00  0.00    +0.267 C 
ATOM     14  C   UNL     1      33.868 -23.391 -14.253  0.00  0.00    +0.143 C 
ATOM     15  C   UNL     1      34.040 -22.269 -16.368  0.00  0.00    +0.074 C 
ATOM     16  C   UNL     1      32.534 -23.556 -14.391  0.00  0.00    +0.191 C 
ATOM     17  C   UNL     1      32.732 -22.359 -16.634  0.00  0.00    +0.110 C 
ATOM     18  C   UNL     1      31.871 -23.043 -15.633  0.00  0.00    +0.236 C 
ENDROOT
BRANCH  17  21
ATOM     19  O   UNL     1      31.019 -21.630 -18.066  0.00  0.00    -0.270 OA
ATOM     20  N   UNL     1      33.233 -21.457 -18.775  0.00  0.00    -0.297 N 
ATOM     21  C   UNL     1      32.227 -21.785 -17.881  0.00  0.00    +0.251 C 
ATOM     22  H   UNL     1      34.166 -21.630 -18.510  0.00  0.00    +0.150 HD
BRANCH  20  23
ATOM     23  C   UNL     1      32.987 -20.876 -20.075  0.00  0.00    +0.121 C 
BRANCH  23  27
ATOM     24  F   UNL     1      32.853 -19.205 -22.354  0.00  0.00    -0.204 F 
ATOM     25  F   UNL     1      35.495 -20.854 -18.771  0.00  0.00    -0.204 F 
ATOM     26  F   UNL     1      37.338 -17.782 -21.862  0.00  0.00    -0.204 F 
ATOM     27  C   UNL     1      34.145 -20.050 -20.551  0.00  0.00    +0.053 C 
ATOM     28  C   UNL     1      34.013 -19.247 -21.684  0.00  0.00    +0.142 C 
ATOM     29  C   UNL     1      35.358 -20.086 -19.861  0.00  0.00    +0.142 C 
ATOM     30  C   UNL     1      35.091 -18.481 -22.127  0.00  0.00    +0.059 C 
ATOM     31  C   UNL     1      36.435 -19.319 -20.303  0.00  0.00    +0.059 C 
ATOM     32  C   UNL     1      36.302 -18.518 -21.436  0.00  0.00    +0.145 C 
ENDBRANCH  23  27
ENDBRANCH  20  23
ENDBRANCH  17  21
BRANCH  16  33
ATOM     33  O   UNL     1      31.731 -24.182 -13.463  0.00  0.00    -0.502 OA
ATOM     34  H   UNL     1      30.844 -23.902 -13.348  0.00  0.00    +0.292 HD
ENDBRANCH  16  33
TORSDOF 4
ENDMDL
MODEL 3
REMARK VINA RESULT:     -13.1      3.067      4.488
REMARK  Name = 90311989
REMARK  4 active torsions:
REMARK  status: ('A' for Active; 'I' for Inactive)
REMARK    1  A    between atoms: C_16  and  O_33
REMARK    2  A    between atoms: C_17  and  C_21
REMARK    3  A    between atoms: N_20  and  C_23
REMARK    4  A    between atoms: C_23  and  C_27
REMARK                            x       y       z     vdW  Elec       q    Type
REMARK                         _______ _______ _______ _____ _____    ______ ____
ROOT
ATOM      1  O   UNL     1      38.063 -23.554 -14.103  0.00  0.00    -0.339 OA
ATOM      2  O   UNL     1      33.883 -24.196 -11.975  0.00  0.00    -0.268 OA
ATOM      3  O   UNL     1      30.663 -23.200 -15.793  0.00  0.00    -0.283 OA
ATOM      4  N   UNL     1      35.929 -24.004 -13.034  0.00  0.00    -0.253 N 
ATOM      5  N   UNL     1      34.653 -22.776 -15.211  0.00  0.00    -0.275 N 
ATOM      6  C   UNL     1      36.678 -24.598 -11.916  0.00  0.00    +0.080 C 
ATOM      7  C   UNL     1      38.680 -24.249 -13.015  0.00  0.00    +0.119 C 
ATOM      8  C   UNL     1      37.979 -23.831 -11.734  0.00  0.00    +0.049 C 
ATOM      9  C   UNL     1      37.161 -26.003 -12.299  0.00  0.00    +0.022 C 
ATOM     10  C   UNL     1      38.455 -25.764 -13.093  0.00  0.00    +0.031 C 
ATOM     11  C   UNL     1      36.658 -23.788 -14.288  0.00  0.00    +0.215 C 
ATOM     12  C   UNL     1      36.085 -22.581 -15.010  0.00  0.00    +0.147 C 
ATOM     13  C   UNL     1      34.538 -23.907 -12.976  0.00  0.00    +0.267 C 
ATOM     14  C   UNL     1      33.866 -23.401 -14.234  0.00  0.00    +0.143 C 
ATOM     15  C   UNL     1      34.034 -22.278 -16.349  0.00  0.00    +0.074 C 
ATOM     16  C   UNL     1      32.533 -23.570 -14.373  0.00  0.00    +0.191 C 
ATOM     17  C   UNL     1      32.727 -22.372 -16.615  0.00  0.00    +0.110 C 
ATOM     18  C   UNL     1      31.868 -23.059 -15.615  0.00  0.00    +0.236 C 
ENDROOT
BRANCH  17  21
ATOM     19  O   UNL     1      31.011 -21.646 -18.046  0.00  0.00    -0.270 OA
ATOM     20  N   UNL     1      33.225 -21.471 -18.757  0.00  0.00    -0.297 N 
ATOM     21  C   UNL     1      32.220 -21.799 -17.863  0.00  0.00    +0.251 C 
ATOM     22  H   UNL     1      34.158 -21.642 -18.493  0.00  0.00    +0.150 HD
BRANCH  20  23
ATOM     23  C   UNL     1      32.977 -20.891 -20.058  0.00  0.00    +0.121 C 
BRANCH  23  27
ATOM     24  F   UNL     1      35.493 -20.877 -18.765  0.00  0.00    -0.204 F 
ATOM     25  F   UNL     1      32.835 -19.212 -22.329  0.00  0.00    -0.204 F 
ATOM     26  F   UNL     1      37.320 -17.787 -21.847  0.00  0.00    -0.204 F 
ATOM     27  C   UNL     1      34.135 -20.065 -20.535  0.00  0.00    +0.053 C 
ATOM     28  C   UNL     1      35.350 -20.103 -19.850  0.00  0.00    +0.142 C 
ATOM     29  C   UNL     1      33.997 -19.256 -21.664  0.00  0.00    +0.142 C 
ATOM     30  C   UNL     1      36.425 -19.334 -20.293  0.00  0.00    +0.059 C 
ATOM     31  C   UNL     1      35.073 -18.488 -22.107  0.00  0.00    +0.059 C 
ATOM     32  C   UNL     1      36.287 -18.526 -21.422  0.00  0.00    +0.145 C 
ENDBRANCH  23  27
ENDBRANCH  20  23
ENDBRANCH  17  21
BRANCH  16  33
ATOM     33  O   UNL     1      31.732 -24.199 -13.445  0.00  0.00    -0.502 OA
ATOM     34  H   UNL     1      31.233 -23.690 -12.837  0.00  0.00    +0.292 HD
ENDBRANCH  16  33
TORSDOF 4
ENDMDL
MODEL 4
REMARK VINA RESULT:     -12.7      6.246     12.276
REMARK  Name = 90311989
REMARK  4 active torsions:
REMARK  status: ('A' for Active; 'I' for Inactive)
REMARK    1  A    between atoms: C_16  and  O_33
REMARK    2  A    between atoms: C_17  and  C_21
REMARK    3  A    between atoms: N_20  and  C_23
REMARK    4  A    between atoms: C_23  and  C_27
REMARK                            x       y       z     vdW  Elec       q    Type
REMARK                         _______ _______ _______ _____ _____    ______ ____
ROOT
ATOM      1  O   UNL     1      31.802  -6.596 -23.783  0.00  0.00    -0.339 OA
ATOM      2  O   UNL     1      30.745  -9.172 -19.953  0.00  0.00    -0.268 OA
ATOM      3  O   UNL     1      32.536 -13.743 -21.307  0.00  0.00    -0.283 OA
ATOM      4  N   UNL     1      31.364  -7.877 -21.766  0.00  0.00    -0.253 N 
ATOM      5  N   UNL     1      31.912 -10.220 -23.212  0.00  0.00    -0.275 N 
ATOM      6  C   UNL     1      31.057  -6.606 -21.092  0.00  0.00    +0.080 C 
ATOM      7  C   UNL     1      31.587  -5.417 -23.001  0.00  0.00    +0.119 C 
ATOM      8  C   UNL     1      30.397  -5.668 -22.091  0.00  0.00    +0.049 C 
ATOM      9  C   UNL     1      32.359  -5.872 -20.744  0.00  0.00    +0.022 C 
ATOM     10  C   UNL     1      32.749  -5.141 -22.038  0.00  0.00    +0.031 C 
ATOM     11  C   UNL     1      32.071  -7.802 -23.049  0.00  0.00    +0.215 C 
ATOM     12  C   UNL     1      31.662  -8.972 -23.926  0.00  0.00    +0.147 C 
ATOM     13  C   UNL     1      31.224  -9.087 -21.084  0.00  0.00    +0.267 C 
ATOM     14  C   UNL     1      31.693 -10.316 -21.832  0.00  0.00    +0.143 C 
ATOM     15  C   UNL     1      32.305 -11.354 -23.908  0.00  0.00    +0.074 C 
ATOM     16  C   UNL     1      31.883 -11.463 -21.143  0.00  0.00    +0.191 C 
ATOM     17  C   UNL     1      32.528 -12.553 -23.357  0.00  0.00    +0.110 C 
ATOM     18  C   UNL     1      32.336 -12.682 -21.888  0.00  0.00    +0.236 C 
ENDROOT
BRANCH  17  21
ATOM     19  O   UNL     1      32.814 -13.589 -25.445  0.00  0.00    -0.270 OA
ATOM     20  N   UNL     1      33.468 -14.730 -23.519  0.00  0.00    -0.297 N 
ATOM     21  C   UNL     1      32.942 -13.658 -24.222  0.00  0.00    +0.251 C 
ATOM     22  H   UNL     1      33.518 -14.664 -22.538  0.00  0.00    +0.150 HD
BRANCH  20  23
ATOM     23  C   UNL     1      33.946 -15.939 -24.151  0.00  0.00    +0.121 C 
BRANCH  23  27
ATOM     24  F   UNL     1      33.568 -18.691 -24.687  0.00  0.00    -0.204 F 
ATOM     25  F   UNL     1      34.942 -15.392 -21.562  0.00  0.00    -0.204 F 
ATOM     26  F   UNL     1      35.073 -19.973 -20.389  0.00  0.00    -0.204 F 
ATOM     27  C   UNL     1      34.247 -17.014 -23.149  0.00  0.00    +0.053 C 
ATOM     28  C   UNL     1      34.037 -18.354 -23.477  0.00  0.00    +0.142 C 
ATOM     29  C   UNL     1      34.737 -16.676 -21.887  0.00  0.00    +0.142 C 
ATOM     30  C   UNL     1      34.317 -19.353 -22.545  0.00  0.00    +0.059 C 
ATOM     31  C   UNL     1      35.017 -17.675 -20.955  0.00  0.00    +0.059 C 
ATOM     32  C   UNL     1      34.806 -19.013 -21.284  0.00  0.00    +0.145 C 
ENDBRANCH  23  27
ENDBRANCH  20  23
ENDBRANCH  17  21
BRANCH  16  33
ATOM     33  O   UNL     1      31.700 -11.590 -19.784  0.00  0.00    -0.502 OA
ATOM     34  H   UNL     1      31.670 -10.825 -19.243  0.00  0.00    +0.292 HD
ENDBRANCH  16  33
TORSDOF 4
ENDMDL
MODEL 5
REMARK VINA RESULT:     -12.7      2.186      3.709
REMARK  Name = 90311989
REMARK  4 active torsions:
REMARK  status: ('A' for Active; 'I' for Inactive)
REMARK    1  A    between atoms: C_16  and  O_33
REMARK    2  A    between atoms: C_17  and  C_21
REMARK    3  A    between atoms: N_20  and  C_23
REMARK    4  A    between atoms: C_23  and  C_27
REMARK                            x       y       z     vdW  Elec       q    Type
REMARK                         _______ _______ _______ _____ _____    ______ ____
ROOT
ATOM      1  O   UNL     1      30.112 -22.356 -16.650  0.00  0.00    -0.339 OA
ATOM      2  O   UNL     1      34.781 -23.124 -16.472  0.00  0.00    -0.268 OA
ATOM      3  O   UNL     1      36.458 -19.862 -20.006  0.00  0.00    -0.283 OA
ATOM      4  N   UNL     1      32.513 -22.671 -16.464  0.00  0.00    -0.253 N 
ATOM      5  N   UNL     1      32.822 -21.240 -18.859  0.00  0.00    -0.275 N 
ATOM      6  C   UNL     1      32.261 -23.440 -15.236  0.00  0.00    +0.080 C 
ATOM      7  C   UNL     1      29.993 -23.026 -15.391  0.00  0.00    +0.119 C 
ATOM      8  C   UNL     1      30.954 -24.202 -15.394  0.00  0.00    +0.049 C 
ATOM      9  C   UNL     1      31.960 -22.485 -14.074  0.00  0.00    +0.022 C 
ATOM     10  C   UNL     1      30.467 -22.152 -14.223  0.00  0.00    +0.031 C 
ATOM     11  C   UNL     1      31.415 -21.844 -16.975  0.00  0.00    +0.215 C 
ATOM     12  C   UNL     1      31.506 -21.750 -18.487  0.00  0.00    +0.147 C 
ATOM     13  C   UNL     1      33.813 -22.535 -16.955  0.00  0.00    +0.267 C 
ATOM     14  C   UNL     1      33.968 -21.616 -18.146  0.00  0.00    +0.143 C 
ATOM     15  C   UNL     1      32.964 -20.428 -19.975  0.00  0.00    +0.074 C 
ATOM     16  C   UNL     1      35.206 -21.189 -18.482  0.00  0.00    +0.191 C 
ATOM     17  C   UNL     1      34.125 -19.935 -20.421  0.00  0.00    +0.110 C 
ATOM     18  C   UNL     1      35.358 -20.287 -19.669  0.00  0.00    +0.236 C 
ENDROOT
BRANCH  17  21
ATOM     19  O   UNL     1      33.313 -19.283 -22.527  0.00  0.00    -0.270 OA
ATOM     20  N   UNL     1      35.078 -18.090 -21.579  0.00  0.00    -0.297 N 
ATOM     21  C   UNL     1      34.116 -19.087 -21.614  0.00  0.00    +0.251 C 
ATOM     22  H   UNL     1      35.664 -18.036 -20.790  0.00  0.00    +0.150 HD
BRANCH  20  23
ATOM     23  C   UNL     1      35.267 -17.128 -22.641  0.00  0.00    +0.121 C 
BRANCH  23  27
ATOM     24  F   UNL     1      34.398 -15.405 -24.709  0.00  0.00    -0.204 F 
ATOM     25  F   UNL     1      34.610 -16.234 -20.040  0.00  0.00    -0.204 F 
ATOM     26  F   UNL     1      32.478 -12.336 -21.664  0.00  0.00    -0.204 F 
ATOM     27  C   UNL     1      34.523 -15.851 -22.381  0.00  0.00    +0.053 C 
ATOM     28  C   UNL     1      34.123 -15.046 -23.448  0.00  0.00    +0.142 C 
ATOM     29  C   UNL     1      34.230 -15.468 -21.071  0.00  0.00    +0.142 C 
ATOM     30  C   UNL     1      33.432 -13.859 -23.205  0.00  0.00    +0.059 C 
ATOM     31  C   UNL     1      33.539 -14.281 -20.829  0.00  0.00    +0.059 C 
ATOM     32  C   UNL     1      33.141 -13.477 -21.896  0.00  0.00    +0.145 C 
ENDBRANCH  23  27
ENDBRANCH  20  23
ENDBRANCH  17  21
BRANCH  16  33
ATOM     33  O   UNL     1      36.352 -21.518 -17.792  0.00  0.00    -0.502 OA
ATOM     34  H   UNL     1      37.127 -21.758 -18.261  0.00  0.00    +0.292 HD
ENDBRANCH  16  33
TORSDOF 4
ENDMDL
MODEL 6
REMARK VINA RESULT:     -12.5      3.883      9.461
REMARK  Name = 90311989
REMARK  4 active torsions:
REMARK  status: ('A' for Active; 'I' for Inactive)
REMARK    1  A    between atoms: C_16  and  O_33
REMARK    2  A    between atoms: C_17  and  C_21
REMARK    3  A    between atoms: N_20  and  C_23
REMARK    4  A    between atoms: C_23  and  C_27
REMARK                            x       y       z     vdW  Elec       q    Type
REMARK                         _______ _______ _______ _____ _____    ______ ____
ROOT
ATOM      1  O   UNL     1      36.462 -19.190 -20.989  0.00  0.00    -0.339 OA
ATOM      2  O   UNL     1      31.959 -20.570 -20.514  0.00  0.00    -0.268 OA
ATOM      3  O   UNL     1      32.090 -22.836 -15.954  0.00  0.00    -0.283 OA
ATOM      4  N   UNL     1      34.125 -19.785 -20.703  0.00  0.00    -0.253 N 
ATOM      5  N   UNL     1      34.870 -21.410 -18.539  0.00  0.00    -0.275 N 
ATOM      6  C   UNL     1      33.825 -18.941 -21.870  0.00  0.00    +0.080 C 
ATOM      7  C   UNL     1      36.043 -18.315 -22.041  0.00  0.00    +0.119 C 
ATOM      8  C   UNL     1      34.981 -19.036 -22.854  0.00  0.00    +0.049 C 
ATOM      9  C   UNL     1      33.843 -17.462 -21.463  0.00  0.00    +0.022 C 
ATOM     10  C   UNL     1      35.328 -17.067 -21.506  0.00  0.00    +0.031 C 
ATOM     11  C   UNL     1      35.439 -19.618 -20.074  0.00  0.00    +0.215 C 
ATOM     12  C   UNL     1      35.888 -20.936 -19.470  0.00  0.00    +0.147 C 
ATOM     13  C   UNL     1      33.107 -20.507 -20.077  0.00  0.00    +0.267 C 
ATOM     14  C   UNL     1      33.506 -21.234 -18.811  0.00  0.00    +0.143 C 
ATOM     15  C   UNL     1      35.239 -22.109 -17.398  0.00  0.00    +0.074 C 
ATOM     16  C   UNL     1      32.536 -21.687 -17.988  0.00  0.00    +0.191 C 
ATOM     17  C   UNL     1      34.387 -22.614 -16.499  0.00  0.00    +0.110 C 
ATOM     18  C   UNL     1      32.933 -22.417 -16.740  0.00  0.00    +0.236 C 
ENDROOT
BRANCH  17  21
ATOM     19  O   UNL     1      34.702 -24.525 -15.170  0.00  0.00    -0.270 OA
ATOM     20  N   UNL     1      35.686 -22.517 -14.511  0.00  0.00    -0.297 N 
ATOM     21  C   UNL     1      34.928 -23.326 -15.341  0.00  0.00    +0.251 C 
ATOM     22  H   UNL     1      35.794 -21.569 -14.756  0.00  0.00    +0.150 HD
BRANCH  20  23
ATOM     23  C   UNL     1      36.325 -22.990 -13.303  0.00  0.00    +0.121 C 
BRANCH  23  27
ATOM     24  F   UNL     1      38.038 -22.596 -15.520  0.00  0.00    -0.204 F 
ATOM     25  F   UNL     1      37.009 -25.211 -11.693  0.00  0.00    -0.204 F 
ATOM     26  F   UNL     1      40.709 -26.341 -14.415  0.00  0.00    -0.204 F 
ATOM     27  C   UNL     1      37.494 -23.882 -13.599  0.00  0.00    +0.053 C 
ATOM     28  C   UNL     1      38.299 -23.632 -14.711  0.00  0.00    +0.142 C 
ATOM     29  C   UNL     1      37.777 -24.963 -12.763  0.00  0.00    +0.142 C 
ATOM     30  C   UNL     1      39.386 -24.463 -14.986  0.00  0.00    +0.059 C 
ATOM     31  C   UNL     1      38.863 -25.792 -13.038  0.00  0.00    +0.059 C 
ATOM     32  C   UNL     1      39.667 -25.543 -14.150  0.00  0.00    +0.145 C 
ENDBRANCH  23  27
ENDBRANCH  20  23
ENDBRANCH  17  21
BRANCH  16  33
ATOM     33  O   UNL     1      31.188 -21.514 -18.211  0.00  0.00    -0.502 OA
ATOM     34  H   UNL     1      30.575 -21.677 -17.521  0.00  0.00    +0.292 HD
ENDBRANCH  16  33
TORSDOF 4
ENDMDL
MODEL 7
REMARK VINA RESULT:     -12.5      4.050      9.967
REMARK  Name = 90311989
REMARK  4 active torsions:
REMARK  status: ('A' for Active; 'I' for Inactive)
REMARK    1  A    between atoms: C_16  and  O_33
REMARK    2  A    between atoms: C_17  and  C_21
REMARK    3  A    between atoms: N_20  and  C_23
REMARK    4  A    between atoms: C_23  and  C_27
REMARK                            x       y       z     vdW  Elec       q    Type
REMARK                         _______ _______ _______ _____ _____    ______ ____
ROOT
ATOM      1  O   UNL     1      32.220 -11.213 -19.875  0.00  0.00    -0.339 OA
ATOM      2  O   UNL     1      32.662 -12.338 -24.453  0.00  0.00    -0.268 OA
ATOM      3  O   UNL     1      34.164 -17.195 -24.140  0.00  0.00    -0.283 OA
ATOM      4  N   UNL     1      32.326 -11.814 -22.226  0.00  0.00    -0.253 N 
ATOM      5  N   UNL     1      33.696 -14.154 -21.500  0.00  0.00    -0.275 N 
ATOM      6  C   UNL     1      31.637 -10.549 -22.523  0.00  0.00    +0.080 C 
ATOM      7  C   UNL     1      31.461 -10.066 -20.270  0.00  0.00    +0.119 C 
ATOM      8  C   UNL     1      32.095  -9.495 -21.527  0.00  0.00    +0.049 C 
ATOM      9  C   UNL     1      30.140 -10.683 -22.213  0.00  0.00    +0.022 C 
ATOM     10  C   UNL     1      30.035 -10.435 -20.700  0.00  0.00    +0.031 C 
ATOM     11  C   UNL     1      32.304 -12.279 -20.835  0.00  0.00    +0.215 C 
ATOM     12  C   UNL     1      33.569 -13.063 -20.539  0.00  0.00    +0.147 C 
ATOM     13  C   UNL     1      32.741 -12.649 -23.264  0.00  0.00    +0.267 C 
ATOM     14  C   UNL     1      33.319 -13.981 -22.839  0.00  0.00    +0.143 C 
ATOM     15  C   UNL     1      34.261 -15.361 -21.114  0.00  0.00    +0.074 C 
ATOM     16  C   UNL     1      33.452 -14.958 -23.763  0.00  0.00    +0.191 C 
ATOM     17  C   UNL     1      34.454 -16.410 -21.922  0.00  0.00    +0.110 C 
ATOM     18  C   UNL     1      34.035 -16.273 -23.342  0.00  0.00    +0.236 C 
ENDROOT
BRANCH  17  21
ATOM     19  O   UNL     1      36.011 -17.555 -20.587  0.00  0.00    -0.270 OA
ATOM     20  N   UNL     1      34.456 -18.784 -21.815  0.00  0.00    -0.297 N 
ATOM     21  C   UNL     1      35.060 -17.621 -21.368  0.00  0.00    +0.251 C 
ATOM     22  H   UNL     1      33.701 -18.706 -22.442  0.00  0.00    +0.150 HD
BRANCH  20  23
ATOM     23  C   UNL     1      34.877 -20.107 -21.411  0.00  0.00    +0.121 C 
BRANCH  23  27
ATOM     24  F   UNL     1      36.032 -21.503 -19.238  0.00  0.00    -0.204 F 
ATOM     25  F   UNL     1      32.077 -19.768 -21.210  0.00  0.00    -0.204 F 
ATOM     26  F   UNL     1      31.862 -22.045 -17.069  0.00  0.00    -0.204 F 
ATOM     27  C   UNL     1      34.074 -20.623 -20.253  0.00  0.00    +0.053 C 
ATOM     28  C   UNL     1      34.706 -21.305 -19.213  0.00  0.00    +0.142 C 
ATOM     29  C   UNL     1      32.694 -20.422 -20.216  0.00  0.00    +0.142 C 
ATOM     30  C   UNL     1      33.959 -21.785 -18.137  0.00  0.00    +0.059 C 
ATOM     31  C   UNL     1      31.947 -20.901 -19.140  0.00  0.00    +0.059 C 
ATOM     32  C   UNL     1      32.579 -21.583 -18.102  0.00  0.00    +0.145 C 
ENDBRANCH  23  27
ENDBRANCH  20  23
ENDBRANCH  17  21
BRANCH  16  33
ATOM     33  O   UNL     1      33.073 -14.833 -25.081  0.00  0.00    -0.502 OA
ATOM     34  H   UNL     1      32.655 -14.047 -25.375  0.00  0.00    +0.292 HD
ENDBRANCH  16  33
TORSDOF 4
ENDMDL
MODEL 8
REMARK VINA RESULT:     -12.3      2.133      3.351
REMARK  Name = 90311989
REMARK  4 active torsions:
REMARK  status: ('A' for Active; 'I' for Inactive)
REMARK    1  A    between atoms: C_16  and  O_33
REMARK    2  A    between atoms: C_17  and  C_21
REMARK    3  A    between atoms: N_20  and  C_23
REMARK    4  A    between atoms: C_23  and  C_27
REMARK                            x       y       z     vdW  Elec       q    Type
REMARK                         _______ _______ _______ _____ _____    ______ ____
ROOT
ATOM      1  O   UNL     1      30.376 -23.134 -15.426  0.00  0.00    -0.339 OA
ATOM      2  O   UNL     1      35.094 -23.470 -15.633  0.00  0.00    -0.268 OA
ATOM      3  O   UNL     1      36.143 -20.344 -19.515  0.00  0.00    -0.283 OA
ATOM      4  N   UNL     1      32.803 -23.221 -15.444  0.00  0.00    -0.253 N 
ATOM      5  N   UNL     1      32.766 -21.950 -17.947  0.00  0.00    -0.275 N 
ATOM      6  C   UNL     1      32.732 -23.916 -14.150  0.00  0.00    +0.080 C 
ATOM      7  C   UNL     1      30.430 -23.717 -14.120  0.00  0.00    +0.119 C 
ATOM      8  C   UNL     1      31.495 -24.800 -14.135  0.00  0.00    +0.049 C 
ATOM      9  C   UNL     1      32.444 -22.907 -13.030  0.00  0.00    +0.022 C 
ATOM     10  C   UNL     1      30.919 -22.720 -13.061  0.00  0.00    +0.031 C 
ATOM     11  C   UNL     1      31.592 -22.534 -15.904  0.00  0.00    +0.215 C 
ATOM     12  C   UNL     1      31.542 -22.545 -17.421  0.00  0.00    +0.147 C 
ATOM     13  C   UNL     1      34.037 -23.007 -16.061  0.00  0.00    +0.267 C 
ATOM     14  C   UNL     1      34.001 -22.168 -17.320  0.00  0.00    +0.143 C 
ATOM     15  C   UNL     1      32.734 -21.213 -19.122  0.00  0.00    +0.074 C 
ATOM     16  C   UNL     1      35.158 -21.660 -17.797  0.00  0.00    +0.191 C 
ATOM     17  C   UNL     1      33.800 -20.653 -19.706  0.00  0.00    +0.110 C 
ATOM     18  C   UNL     1      35.121 -20.838 -19.050  0.00  0.00    +0.236 C 
ENDROOT
BRANCH  17  21
ATOM     19  O   UNL     1      32.479 -19.599 -21.337  0.00  0.00    -0.270 OA
ATOM     20  N   UNL     1      34.798 -19.589 -21.582  0.00  0.00    -0.297 N 
ATOM     21  C   UNL     1      33.608 -19.900 -20.945  0.00  0.00    +0.251 C 
ATOM     22  H   UNL     1      35.640 -19.887 -21.167  0.00  0.00    +0.150 HD
BRANCH  20  23
ATOM     23  C   UNL     1      34.868 -18.851 -22.823  0.00  0.00    +0.121 C 
BRANCH  23  27
ATOM     24  F   UNL     1      35.247 -17.468 -20.385  0.00  0.00    -0.204 F 
ATOM     25  F   UNL     1      33.747 -17.274 -24.885  0.00  0.00    -0.204 F 
ATOM     26  F   UNL     1      33.503 -13.433 -22.133  0.00  0.00    -0.204 F 
ATOM     27  C   UNL     1      34.506 -17.407 -22.640  0.00  0.00    +0.053 C 
ATOM     28  C   UNL     1      34.718 -16.785 -21.409  0.00  0.00    +0.142 C 
ATOM     29  C   UNL     1      33.955 -16.685 -23.699  0.00  0.00    +0.142 C 
ATOM     30  C   UNL     1      34.379 -15.442 -21.238  0.00  0.00    +0.059 C 
ATOM     31  C   UNL     1      33.617 -15.343 -23.528  0.00  0.00    +0.059 C 
ATOM     32  C   UNL     1      33.828 -14.722 -22.298  0.00  0.00    +0.145 C 
ENDBRANCH  23  27
ENDBRANCH  20  23
ENDBRANCH  17  21
BRANCH  16  33
ATOM     33  O   UNL     1      36.385 -21.834 -17.197  0.00  0.00    -0.502 OA
ATOM     34  H   UNL     1      36.467 -21.754 -16.267  0.00  0.00    +0.292 HD
ENDBRANCH  16  33
TORSDOF 4
ENDMDL
MODEL 9
REMARK VINA RESULT:     -12.2      4.153      9.941
REMARK  Name = 90311989
REMARK  4 active torsions:
REMARK  status: ('A' for Active; 'I' for Inactive)
REMARK    1  A    between atoms: C_16  and  O_33
REMARK    2  A    between atoms: C_17  and  C_21
REMARK    3  A    between atoms: N_20  and  C_23
REMARK    4  A    between atoms: C_23  and  C_27
REMARK                            x       y       z     vdW  Elec       q    Type
REMARK                         _______ _______ _______ _____ _____    ______ ____
ROOT
ATOM      1  O   UNL     1      32.449 -11.607 -20.053  0.00  0.00    -0.339 OA
ATOM      2  O   UNL     1      32.516 -12.552 -24.691  0.00  0.00    -0.268 OA
ATOM      3  O   UNL     1      34.239 -17.344 -24.703  0.00  0.00    -0.283 OA
ATOM      4  N   UNL     1      32.363 -12.120 -22.425  0.00  0.00    -0.253 N 
ATOM      5  N   UNL     1      33.890 -14.420 -21.916  0.00  0.00    -0.275 N 
ATOM      6  C   UNL     1      31.598 -10.878 -22.610  0.00  0.00    +0.080 C 
ATOM      7  C   UNL     1      31.610 -10.482 -20.334  0.00  0.00    +0.119 C 
ATOM      8  C   UNL     1      32.102  -9.840 -21.619  0.00  0.00    +0.049 C 
ATOM      9  C   UNL     1      30.143 -11.090 -22.171  0.00  0.00    +0.022 C 
ATOM     10  C   UNL     1      30.167 -10.899 -20.647  0.00  0.00    +0.031 C 
ATOM     11  C   UNL     1      32.488 -12.634 -21.057  0.00  0.00    +0.215 C 
ATOM     12  C   UNL     1      33.807 -13.370 -20.906  0.00  0.00    +0.147 C 
ATOM     13  C   UNL     1      32.716 -12.900 -23.528  0.00  0.00    +0.267 C 
ATOM     14  C   UNL     1      33.385 -14.219 -23.208  0.00  0.00    +0.143 C 
ATOM     15  C   UNL     1      34.538 -15.614 -21.630  0.00  0.00    +0.074 C 
ATOM     16  C   UNL     1      33.473 -15.156 -24.178  0.00  0.00    +0.191 C 
ATOM     17  C   UNL     1      34.698 -16.625 -22.491  0.00  0.00    +0.110 C 
ATOM     18  C   UNL     1      34.146 -16.457 -23.862  0.00  0.00    +0.236 C 
ENDROOT
BRANCH  17  21
ATOM     19  O   UNL     1      36.626 -17.925 -22.156  0.00  0.00    -0.270 OA
ATOM     20  N   UNL     1      34.558 -18.781 -21.501  0.00  0.00    -0.297 N 
ATOM     21  C   UNL     1      35.403 -17.826 -22.042  0.00  0.00    +0.251 C 
ATOM     22  H   UNL     1      33.594 -18.583 -21.466  0.00  0.00    +0.150 HD
BRANCH  20  23
ATOM     23  C   UNL     1      35.017 -20.052 -20.989  0.00  0.00    +0.121 C 
BRANCH  23  27
ATOM     24  F   UNL     1      32.214 -19.679 -21.084  0.00  0.00    -0.204 F 
ATOM     25  F   UNL     1      35.906 -21.571 -18.776  0.00  0.00    -0.204 F 
ATOM     26  F   UNL     1      31.517 -22.144 -17.107  0.00  0.00    -0.204 F 
ATOM     27  C   UNL     1      34.083 -20.611 -19.955  0.00  0.00    +0.053 C 
ATOM     28  C   UNL     1      32.710 -20.389 -20.061  0.00  0.00    +0.142 C 
ATOM     29  C   UNL     1      34.588 -21.352 -18.886  0.00  0.00    +0.142 C 
ATOM     30  C   UNL     1      31.843 -20.907 -19.099  0.00  0.00    +0.059 C 
ATOM     31  C   UNL     1      33.722 -21.871 -17.925  0.00  0.00    +0.059 C 
ATOM     32  C   UNL     1      32.349 -21.647 -18.031  0.00  0.00    +0.145 C 
ENDBRANCH  23  27
ENDBRANCH  20  23
ENDBRANCH  17  21
BRANCH  16  33
ATOM     33  O   UNL     1      32.970 -15.002 -25.450  0.00  0.00    -0.502 OA
ATOM     34  H   UNL     1      33.118 -15.666 -26.095  0.00  0.00    +0.292 HD
ENDBRANCH  16  33
TORSDOF 4
ENDMDL
