MODEL 1
REMARK VINA RESULT:     -10.8      0.000      0.000
REMARK  Name = 24771758
REMARK  7 active torsions:
REMARK  status: ('A' for Active; 'I' for Inactive)
REMARK    1  A    between atoms: C_7  and  C_27
REMARK    2  A    between atoms: C_9  and  C_14
REMARK    3  A    between atoms: C_16  and  O_24
REMARK    4  A    between atoms: C_17  and  S_18
REMARK    5  A    between atoms: S_18  and  N_21
REMARK    6  A    between atoms: O_24  and  C_25
REMARK    7  A    between atoms: C_27  and  C_28
REMARK                            x       y       z     vdW  Elec       q    Type
REMARK                         _______ _______ _______ _____ _____    ______ ____
ROOT
ATOM      1  O   UNL     1      31.308 -23.786 -13.303  0.00  0.00    -0.208 OA
ATOM      2  N   UNL     1      31.048 -22.768 -16.120  0.00  0.00    -0.236 N 
ATOM      3  N   UNL     1      34.472 -23.001 -15.763  0.00  0.00    -0.284 N 
ATOM      4  N   UNL     1      31.342 -22.334 -17.365  0.00  0.00    -0.172 NA
ATOM      5  N   UNL     1      33.592 -23.735 -13.637  0.00  0.00    -0.316 NA
ATOM      6  C   UNL     1      33.215 -22.807 -16.193  0.00  0.00    +0.095 A 
ATOM      7  C   UNL     1      32.682 -22.364 -17.402  0.00  0.00    +0.094 A 
ATOM      8  C   UNL     1      32.151 -23.067 -15.375  0.00  0.00    +0.187 A 
ATOM      9  C   UNL     1      34.590 -23.471 -14.451  0.00  0.00    +0.200 C 
ATOM     10  C   UNL     1      32.269 -23.554 -14.028  0.00  0.00    +0.225 C 
ATOM     11  C   UNL     1      29.666 -22.866 -15.716  0.00  0.00    +0.155 C 
ATOM     12  H   UNL     1      35.256 -22.824 -16.331  0.00  0.00    +0.155 HD
ENDROOT
BRANCH   9  14
ATOM     13  S   UNL     1      37.976 -23.755 -12.311  0.00  0.00    -0.031 S 
ATOM     14  C   UNL     1      35.970 -23.703 -13.915  0.00  0.00    +0.087 C 
ATOM     15  C   UNL     1      37.046 -24.283 -14.647  0.00  0.00    +0.034 C 
ATOM     16  C   UNL     1      36.339 -23.370 -12.630  0.00  0.00    +0.174 C 
ATOM     17  C   UNL     1      38.196 -24.370 -13.894  0.00  0.00    +0.154 C 
BRANCH  17  18
ATOM     18  S   UNL     1      39.812 -24.977 -14.230  0.00  0.00    +0.063 S 
ATOM     19  O   UNL     1      40.738 -23.862 -14.131  0.00  0.00    -0.153 OA
ATOM     20  O   UNL     1      40.018 -26.174 -13.435  0.00  0.00    -0.153 OA
BRANCH  18  21
ATOM     21  N   UNL     1      39.645 -25.419 -15.870  0.00  0.00    -0.203 NA
ATOM     22  H   UNL     1      40.315 -24.896 -16.433  0.00  0.00    +0.144 HD
ATOM     23  H   UNL     1      38.699 -25.209 -16.185  0.00  0.00    +0.144 HD
ENDBRANCH  18  21
ENDBRANCH  17  18
BRANCH  16  24
ATOM     24  O   UNL     1      35.593 -22.814 -11.677  0.00  0.00    -0.469 OA
BRANCH  24  25
ATOM     25  C   UNL     1      35.933 -23.084 -10.305  0.00  0.00    +0.206 C 
ATOM     26  C   UNL     1      35.067 -24.217  -9.796  0.00  0.00    +0.051 C 
ENDBRANCH  24  25
ENDBRANCH  16  24
ENDBRANCH   9  14
BRANCH   7  27
ATOM     27  C   UNL     1      33.391 -21.954 -18.625  0.00  0.00    +0.049 C 
BRANCH  27  28
ATOM     28  C   UNL     1      32.657 -20.843 -19.403  0.00  0.00    +0.006 C 
ATOM     29  C   UNL     1      33.600 -19.993 -20.240  0.00  0.00    +0.000 C 
ENDBRANCH  27  28
ENDBRANCH   7  27
TORSDOF 7
ENDMDL
MODEL 2
REMARK VINA RESULT:      -9.8      1.932      3.400
REMARK  Name = 24771758
REMARK  7 active torsions:
REMARK  status: ('A' for Active; 'I' for Inactive)
REMARK    1  A    between atoms: C_7  and  C_27
REMARK    2  A    between atoms: C_9  and  C_14
REMARK    3  A    between atoms: C_16  and  O_24
REMARK    4  A    between atoms: C_17  and  S_18
REMARK    5  A    between atoms: S_18  and  N_21
REMARK    6  A    between atoms: O_24  and  C_25
REMARK    7  A    between atoms: C_27  and  C_28
REMARK                            x       y       z     vdW  Elec       q    Type
REMARK                         _______ _______ _______ _____ _____    ______ ____
ROOT
ATOM      1  O   UNL     1      35.531 -20.781 -19.098  0.00  0.00    -0.208 OA
ATOM      2  N   UNL     1      32.601 -21.284 -18.652  0.00  0.00    -0.236 N 
ATOM      3  N   UNL     1      34.017 -22.893 -15.948  0.00  0.00    -0.284 N 
ATOM      4  N   UNL     1      31.432 -21.705 -18.119  0.00  0.00    -0.172 NA
ATOM      5  N   UNL     1      35.897 -21.983 -17.161  0.00  0.00    -0.316 NA
ATOM      6  C   UNL     1      33.195 -22.370 -16.871  0.00  0.00    +0.095 A 
ATOM      7  C   UNL     1      31.809 -22.373 -17.020  0.00  0.00    +0.094 A 
ATOM      8  C   UNL     1      33.694 -21.662 -17.929  0.00  0.00    +0.187 A 
ATOM      9  C   UNL     1      35.380 -22.661 -16.161  0.00  0.00    +0.200 C 
ATOM     10  C   UNL     1      35.093 -21.418 -18.147  0.00  0.00    +0.225 C 
ATOM     11  C   UNL     1      32.583 -20.515 -19.873  0.00  0.00    +0.155 C 
ATOM     12  H   UNL     1      33.684 -23.405 -15.176  0.00  0.00    +0.155 HD
ENDROOT
BRANCH   9  14
ATOM     13  S   UNL     1      37.374 -23.977 -12.933  0.00  0.00    -0.031 S 
ATOM     14  C   UNL     1      36.347 -23.224 -15.164  0.00  0.00    +0.087 C 
ATOM     15  C   UNL     1      37.631 -23.756 -15.479  0.00  0.00    +0.034 C 
ATOM     16  C   UNL     1      36.080 -23.283 -13.814  0.00  0.00    +0.174 C 
ATOM     17  C   UNL     1      38.297 -24.201 -14.358  0.00  0.00    +0.154 C 
BRANCH  17  18
ATOM     18  S   UNL     1      39.872 -24.939 -14.106  0.00  0.00    +0.063 S 
ATOM     19  O   UNL     1      40.838 -23.873 -13.906  0.00  0.00    -0.153 OA
ATOM     20  O   UNL     1      39.724 -25.990 -13.116  0.00  0.00    -0.153 OA
BRANCH  18  21
ATOM     21  N   UNL     1      40.133 -25.648 -15.636  0.00  0.00    -0.203 NA
ATOM     22  H   UNL     1      39.314 -25.499 -16.225  0.00  0.00    +0.144 HD
ATOM     23  H   UNL     1      40.294 -26.648 -15.525  0.00  0.00    +0.144 HD
ENDBRANCH  18  21
ENDBRANCH  17  18
BRANCH  16  24
ATOM     24  O   UNL     1      34.986 -22.879 -13.173  0.00  0.00    -0.469 OA
BRANCH  24  25
ATOM     25  C   UNL     1      34.199 -23.868 -12.482  0.00  0.00    +0.206 C 
ATOM     26  C   UNL     1      32.820 -23.922 -13.103  0.00  0.00    +0.051 C 
ENDBRANCH  24  25
ENDBRANCH  16  24
ENDBRANCH   9  14
BRANCH   7  27
ATOM     27  C   UNL     1      30.792 -22.990 -16.153  0.00  0.00    +0.049 C 
BRANCH  27  28
ATOM     28  C   UNL     1      29.393 -22.362 -16.325  0.00  0.00    +0.006 C 
ATOM     29  C   UNL     1      28.342 -23.027 -15.451  0.00  0.00    +0.000 C 
ENDBRANCH  27  28
ENDBRANCH   7  27
TORSDOF 7
ENDMDL
MODEL 3
REMARK VINA RESULT:      -9.5      4.657      7.307
REMARK  Name = 24771758
REMARK  7 active torsions:
REMARK  status: ('A' for Active; 'I' for Inactive)
REMARK    1  A    between atoms: C_7  and  C_27
REMARK    2  A    between atoms: C_9  and  C_14
REMARK    3  A    between atoms: C_16  and  O_24
REMARK    4  A    between atoms: C_17  and  S_18
REMARK    5  A    between atoms: S_18  and  N_21
REMARK    6  A    between atoms: O_24  and  C_25
REMARK    7  A    between atoms: C_27  and  C_28
REMARK                            x       y       z     vdW  Elec       q    Type
REMARK                         _______ _______ _______ _____ _____    ______ ____
ROOT
ATOM      1  O   UNL     1      38.552 -22.743 -15.465  0.00  0.00    -0.208 OA
ATOM      2  N   UNL     1      36.426 -23.986 -13.740  0.00  0.00    -0.236 N 
ATOM      3  N   UNL     1      34.552 -22.572 -16.269  0.00  0.00    -0.284 N 
ATOM      4  N   UNL     1      35.228 -24.386 -13.259  0.00  0.00    -0.172 NA
ATOM      5  N   UNL     1      36.836 -22.032 -16.837  0.00  0.00    -0.316 NA
ATOM      6  C   UNL     1      34.996 -23.212 -15.176  0.00  0.00    +0.095 A 
ATOM      7  C   UNL     1      34.352 -23.905 -14.153  0.00  0.00    +0.094 A 
ATOM      8  C   UNL     1      36.334 -23.273 -14.900  0.00  0.00    +0.187 A 
ATOM      9  C   UNL     1      35.543 -21.991 -17.067  0.00  0.00    +0.200 C 
ATOM     10  C   UNL     1      37.355 -22.682 -15.720  0.00  0.00    +0.225 C 
ATOM     11  C   UNL     1      37.627 -24.331 -13.018  0.00  0.00    +0.155 C 
ATOM     12  H   UNL     1      33.595 -22.514 -16.492  0.00  0.00    +0.155 HD
ENDROOT
BRANCH   9  14
ATOM     13  S   UNL     1      33.657 -20.460 -20.265  0.00  0.00    -0.031 S 
ATOM     14  C   UNL     1      35.106 -21.260 -18.300  0.00  0.00    +0.087 C 
ATOM     15  C   UNL     1      35.900 -20.320 -19.019  0.00  0.00    +0.034 C 
ATOM     16  C   UNL     1      33.863 -21.430 -18.869  0.00  0.00    +0.174 C 
ATOM     17  C   UNL     1      35.234 -19.808 -20.111  0.00  0.00    +0.154 C 
BRANCH  17  18
ATOM     18  S   UNL     1      35.672 -18.642 -21.351  0.00  0.00    +0.063 S 
ATOM     19  O   UNL     1      37.121 -18.595 -21.428  0.00  0.00    -0.153 OA
ATOM     20  O   UNL     1      34.884 -18.927 -22.536  0.00  0.00    -0.153 OA
BRANCH  18  21
ATOM     21  N   UNL     1      35.104 -17.199 -20.638  0.00  0.00    -0.203 NA
ATOM     22  H   UNL     1      34.542 -17.424 -19.817  0.00  0.00    +0.144 HD
ATOM     23  H   UNL     1      34.533 -16.689 -21.311  0.00  0.00    +0.144 HD
ENDBRANCH  18  21
ENDBRANCH  17  18
BRANCH  16  24
ATOM     24  O   UNL     1      32.874 -22.223 -18.464  0.00  0.00    -0.469 OA
BRANCH  24  25
ATOM     25  C   UNL     1      31.667 -21.609 -17.975  0.00  0.00    +0.206 C 
ATOM     26  C   UNL     1      31.177 -22.377 -16.766  0.00  0.00    +0.051 C 
ENDBRANCH  24  25
ENDBRANCH  16  24
ENDBRANCH   9  14
BRANCH   7  27
ATOM     27  C   UNL     1      32.911 -24.145 -13.969  0.00  0.00    +0.049 C 
BRANCH  27  28
ATOM     28  C   UNL     1      32.175 -22.939 -13.350  0.00  0.00    +0.006 C 
ATOM     29  C   UNL     1      30.686 -23.192 -13.171  0.00  0.00    +0.000 C 
ENDBRANCH  27  28
ENDBRANCH   7  27
TORSDOF 7
ENDMDL
MODEL 4
REMARK VINA RESULT:      -9.4      4.704      6.823
REMARK  Name = 24771758
REMARK  7 active torsions:
REMARK  status: ('A' for Active; 'I' for Inactive)
REMARK    1  A    between atoms: C_7  and  C_27
REMARK    2  A    between atoms: C_9  and  C_14
REMARK    3  A    between atoms: C_16  and  O_24
REMARK    4  A    between atoms: C_17  and  S_18
REMARK    5  A    between atoms: S_18  and  N_21
REMARK    6  A    between atoms: O_24  and  C_25
REMARK    7  A    between atoms: C_27  and  C_28
REMARK                            x       y       z     vdW  Elec       q    Type
REMARK                         _______ _______ _______ _____ _____    ______ ____
ROOT
ATOM      1  O   UNL     1      29.566 -22.436 -16.855  0.00  0.00    -0.208 OA
ATOM      2  N   UNL     1      30.997 -23.814 -14.598  0.00  0.00    -0.236 N 
ATOM      3  N   UNL     1      33.628 -22.588 -16.464  0.00  0.00    -0.284 N 
ATOM      4  N   UNL     1      31.969 -24.292 -13.790  0.00  0.00    -0.172 NA
ATOM      5  N   UNL     1      31.656 -21.883 -17.666  0.00  0.00    -0.316 NA
ATOM      6  C   UNL     1      32.838 -23.176 -15.553  0.00  0.00    +0.095 A 
ATOM      7  C   UNL     1      33.101 -23.893 -14.386  0.00  0.00    +0.094 A 
ATOM      8  C   UNL     1      31.477 -23.131 -15.677  0.00  0.00    +0.187 A 
ATOM      9  C   UNL     1      32.960 -21.952 -17.514  0.00  0.00    +0.200 C 
ATOM     10  C   UNL     1      30.787 -22.473 -16.752  0.00  0.00    +0.225 C 
ATOM     11  C   UNL     1      29.616 -24.060 -14.261  0.00  0.00    +0.155 C 
ATOM     12  H   UNL     1      34.610 -22.604 -16.397  0.00  0.00    +0.155 HD
ENDROOT
BRANCH   9  14
ATOM     13  S   UNL     1      35.832 -20.490 -19.911  0.00  0.00    -0.031 S 
ATOM     14  C   UNL     1      33.791 -21.280 -18.564  0.00  0.00    +0.087 C 
ATOM     15  C   UNL     1      33.277 -20.494 -19.637  0.00  0.00    +0.034 C 
ATOM     16  C   UNL     1      35.166 -21.359 -18.595  0.00  0.00    +0.174 C 
ATOM     17  C   UNL     1      34.279 -20.003 -20.445  0.00  0.00    +0.154 C 
BRANCH  17  18
ATOM     18  S   UNL     1      34.280 -18.998 -21.887  0.00  0.00    +0.063 S 
ATOM     19  O   UNL     1      35.437 -19.362 -22.686  0.00  0.00    -0.153 OA
ATOM     20  O   UNL     1      32.948 -19.039 -22.465  0.00  0.00    -0.153 OA
BRANCH  18  21
ATOM     21  N   UNL     1      34.540 -17.460 -21.196  0.00  0.00    -0.203 NA
ATOM     22  H   UNL     1      35.447 -17.446 -20.731  0.00  0.00    +0.144 HD
ATOM     23  H   UNL     1      33.806 -17.263 -20.517  0.00  0.00    +0.144 HD
ENDBRANCH  18  21
ENDBRANCH  17  18
BRANCH  16  24
ATOM     24  O   UNL     1      35.971 -22.005 -17.754  0.00  0.00    -0.469 OA
BRANCH  24  25
ATOM     25  C   UNL     1      36.748 -21.226 -16.824  0.00  0.00    +0.206 C 
ATOM     26  C   UNL     1      37.272 -22.137 -15.735  0.00  0.00    +0.051 C 
ENDBRANCH  24  25
ENDBRANCH  16  24
ENDBRANCH   9  14
BRANCH   7  27
ATOM     27  C   UNL     1      34.403 -24.229 -13.787  0.00  0.00    +0.049 C 
BRANCH  27  28
ATOM     28  C   UNL     1      35.287 -25.089 -14.714  0.00  0.00    +0.006 C 
ATOM     29  C   UNL     1      36.609 -25.474 -14.069  0.00  0.00    +0.000 C 
ENDBRANCH  27  28
ENDBRANCH   7  27
TORSDOF 7
ENDMDL
MODEL 5
REMARK VINA RESULT:      -9.3      1.627      3.292
REMARK  Name = 24771758
REMARK  7 active torsions:
REMARK  status: ('A' for Active; 'I' for Inactive)
REMARK    1  A    between atoms: C_7  and  C_27
REMARK    2  A    between atoms: C_9  and  C_14
REMARK    3  A    between atoms: C_16  and  O_24
REMARK    4  A    between atoms: C_17  and  S_18
REMARK    5  A    between atoms: S_18  and  N_21
REMARK    6  A    between atoms: O_24  and  C_25
REMARK    7  A    between atoms: C_27  and  C_28
REMARK                            x       y       z     vdW  Elec       q    Type
REMARK                         _______ _______ _______ _____ _____    ______ ____
ROOT
ATOM      1  O   UNL     1      33.986 -22.301 -17.971  0.00  0.00    -0.208 OA
ATOM      2  N   UNL     1      31.444 -22.285 -16.366  0.00  0.00    -0.236 N 
ATOM      3  N   UNL     1      33.693 -23.628 -14.121  0.00  0.00    -0.284 N 
ATOM      4  N   UNL     1      30.555 -22.436 -15.359  0.00  0.00    -0.172 NA
ATOM      5  N   UNL     1      34.999 -23.216 -16.109  0.00  0.00    -0.316 NA
ATOM      6  C   UNL     1      32.613 -23.145 -14.754  0.00  0.00    +0.095 A 
ATOM      7  C   UNL     1      31.286 -22.967 -14.369  0.00  0.00    +0.094 A 
ATOM      8  C   UNL     1      32.703 -22.700 -16.044  0.00  0.00    +0.187 A 
ATOM      9  C   UNL     1      34.873 -23.639 -14.871  0.00  0.00    +0.200 C 
ATOM     10  C   UNL     1      33.915 -22.704 -16.816  0.00  0.00    +0.225 C 
ATOM     11  C   UNL     1      31.000 -21.729 -17.621  0.00  0.00    +0.155 C 
ATOM     12  H   UNL     1      33.657 -23.954 -13.192  0.00  0.00    +0.155 HD
ENDROOT
BRANCH   9  14
ATOM     13  S   UNL     1      37.687 -25.184 -12.458  0.00  0.00    -0.031 S 
ATOM     14  C   UNL     1      36.112 -24.171 -14.217  0.00  0.00    +0.087 C 
ATOM     15  C   UNL     1      37.393 -24.252 -14.834  0.00  0.00    +0.034 C 
ATOM     16  C   UNL     1      36.130 -24.644 -12.924  0.00  0.00    +0.174 C 
ATOM     17  C   UNL     1      38.342 -24.784 -13.989  0.00  0.00    +0.154 C 
BRANCH  17  18
ATOM     18  S   UNL     1      40.057 -25.129 -14.167  0.00  0.00    +0.063 S 
ATOM     19  O   UNL     1      40.780 -23.876 -14.041  0.00  0.00    -0.153 OA
ATOM     20  O   UNL     1      40.382 -26.253 -13.308  0.00  0.00    -0.153 OA
BRANCH  18  21
ATOM     21  N   UNL     1      40.106 -25.639 -15.795  0.00  0.00    -0.203 NA
ATOM     22  H   UNL     1      39.445 -26.404 -15.931  0.00  0.00    +0.144 HD
ATOM     23  H   UNL     1      41.046 -25.958 -16.024  0.00  0.00    +0.144 HD
ENDBRANCH  18  21
ENDBRANCH  17  18
BRANCH  16  24
ATOM     24  O   UNL     1      35.119 -24.717 -12.060  0.00  0.00    -0.469 OA
BRANCH  24  25
ATOM     25  C   UNL     1      35.302 -24.145 -10.751  0.00  0.00    +0.206 C 
ATOM     26  C   UNL     1      35.924 -22.773 -10.895  0.00  0.00    +0.051 C 
ENDBRANCH  24  25
ENDBRANCH  16  24
ENDBRANCH   9  14
BRANCH   7  27
ATOM     27  C   UNL     1      30.653 -23.278 -13.077  0.00  0.00    +0.049 C 
BRANCH  27  28
ATOM     28  C   UNL     1      30.156 -24.736 -12.986  0.00  0.00    +0.006 C 
ATOM     29  C   UNL     1      29.209 -25.102 -14.117  0.00  0.00    +0.000 C 
ENDBRANCH  27  28
ENDBRANCH   7  27
TORSDOF 7
ENDMDL
MODEL 6
REMARK VINA RESULT:      -8.6      3.275      7.924
REMARK  Name = 24771758
REMARK  7 active torsions:
REMARK  status: ('A' for Active; 'I' for Inactive)
REMARK    1  A    between atoms: C_7  and  C_27
REMARK    2  A    between atoms: C_9  and  C_14
REMARK    3  A    between atoms: C_16  and  O_24
REMARK    4  A    between atoms: C_17  and  S_18
REMARK    5  A    between atoms: S_18  and  N_21
REMARK    6  A    between atoms: O_24  and  C_25
REMARK    7  A    between atoms: C_27  and  C_28
REMARK                            x       y       z     vdW  Elec       q    Type
REMARK                         _______ _______ _______ _____ _____    ______ ____
ROOT
ATOM      1  O   UNL     1      36.730 -26.508 -15.611  0.00  0.00    -0.208 OA
ATOM      2  N   UNL     1      37.891 -25.105 -13.220  0.00  0.00    -0.236 N 
ATOM      3  N   UNL     1      35.002 -23.300 -13.768  0.00  0.00    -0.284 N 
ATOM      4  N   UNL     1      38.071 -24.248 -12.190  0.00  0.00    -0.172 NA
ATOM      5  N   UNL     1      34.996 -24.987 -15.495  0.00  0.00    -0.316 NA
ATOM      6  C   UNL     1      36.163 -23.797 -13.315  0.00  0.00    +0.095 A 
ATOM      7  C   UNL     1      36.999 -23.445 -12.256  0.00  0.00    +0.094 A 
ATOM      8  C   UNL     1      36.749 -24.870 -13.928  0.00  0.00    +0.187 A 
ATOM      9  C   UNL     1      34.466 -23.952 -14.883  0.00  0.00    +0.200 C 
ATOM     10  C   UNL     1      36.198 -25.545 -15.070  0.00  0.00    +0.225 C 
ATOM     11  C   UNL     1      38.874 -26.133 -13.461  0.00  0.00    +0.155 C 
ATOM     12  H   UNL     1      34.558 -22.530 -13.345  0.00  0.00    +0.155 HD
ENDROOT
BRANCH   9  14
ATOM     13  S   UNL     1      31.474 -22.306 -16.997  0.00  0.00    -0.031 S 
ATOM     14  C   UNL     1      33.171 -23.439 -15.435  0.00  0.00    +0.087 C 
ATOM     15  C   UNL     1      31.900 -23.582 -14.808  0.00  0.00    +0.034 C 
ATOM     16  C   UNL     1      33.084 -22.764 -16.633  0.00  0.00    +0.174 C 
ATOM     17  C   UNL     1      30.889 -23.011 -15.550  0.00  0.00    +0.154 C 
BRANCH  17  18
ATOM     18  S   UNL     1      29.154 -22.866 -15.311  0.00  0.00    +0.063 S 
ATOM     19  O   UNL     1      28.618 -24.199 -15.102  0.00  0.00    -0.153 OA
ATOM     20  O   UNL     1      28.920 -21.820 -14.331  0.00  0.00    -0.153 OA
BRANCH  18  21
ATOM     21  N   UNL     1      28.672 -22.305 -16.849  0.00  0.00    -0.203 NA
ATOM     22  H   UNL     1      27.901 -21.645 -16.744  0.00  0.00    +0.144 HD
ATOM     23  H   UNL     1      28.369 -23.093 -17.419  0.00  0.00    +0.144 HD
ENDBRANCH  18  21
ENDBRANCH  17  18
BRANCH  16  24
ATOM     24  O   UNL     1      34.066 -22.456 -17.477  0.00  0.00    -0.469 OA
BRANCH  24  25
ATOM     25  C   UNL     1      33.709 -21.952 -18.778  0.00  0.00    +0.206 C 
ATOM     26  C   UNL     1      34.871 -21.157 -19.335  0.00  0.00    +0.051 C 
ENDBRANCH  24  25
ENDBRANCH  16  24
ENDBRANCH   9  14
BRANCH   7  27
ATOM     27  C   UNL     1      36.834 -22.361 -11.274  0.00  0.00    +0.049 C 
BRANCH  27  28
ATOM     28  C   UNL     1      35.783 -22.684 -10.192  0.00  0.00    +0.006 C 
ATOM     29  C   UNL     1      35.418 -24.160 -10.154  0.00  0.00    +0.000 C 
ENDBRANCH  27  28
ENDBRANCH   7  27
TORSDOF 7
ENDMDL
MODEL 7
REMARK VINA RESULT:      -8.6      4.032      7.284
REMARK  Name = 24771758
REMARK  7 active torsions:
REMARK  status: ('A' for Active; 'I' for Inactive)
REMARK    1  A    between atoms: C_7  and  C_27
REMARK    2  A    between atoms: C_9  and  C_14
REMARK    3  A    between atoms: C_16  and  O_24
REMARK    4  A    between atoms: C_17  and  S_18
REMARK    5  A    between atoms: S_18  and  N_21
REMARK    6  A    between atoms: O_24  and  C_25
REMARK    7  A    between atoms: C_27  and  C_28
REMARK                            x       y       z     vdW  Elec       q    Type
REMARK                         _______ _______ _______ _____ _____    ______ ____
ROOT
ATOM      1  O   UNL     1      31.951 -20.110 -20.617  0.00  0.00    -0.208 OA
ATOM      2  N   UNL     1      34.918 -20.199 -20.145  0.00  0.00    -0.236 N 
ATOM      3  N   UNL     1      33.713 -21.924 -17.412  0.00  0.00    -0.284 N 
ATOM      4  N   UNL     1      36.130 -20.451 -19.602  0.00  0.00    -0.172 NA
ATOM      5  N   UNL     1      31.737 -21.306 -18.654  0.00  0.00    -0.316 NA
ATOM      6  C   UNL     1      34.464 -21.314 -18.341  0.00  0.00    +0.095 A 
ATOM      7  C   UNL     1      35.839 -21.140 -18.490  0.00  0.00    +0.094 A 
ATOM      8  C   UNL     1      33.881 -20.703 -19.417  0.00  0.00    +0.187 A 
ATOM      9  C   UNL     1      32.333 -21.878 -17.632  0.00  0.00    +0.200 C 
ATOM     10  C   UNL     1      32.464 -20.659 -19.649  0.00  0.00    +0.225 C 
ATOM     11  C   UNL     1      34.841 -19.456 -21.380  0.00  0.00    +0.155 C 
ATOM     12  H   UNL     1      34.107 -22.373 -16.628  0.00  0.00    +0.155 HD
ENDROOT
BRANCH   9  14
ATOM     13  S   UNL     1      30.660 -23.746 -14.495  0.00  0.00    -0.031 S 
ATOM     14  C   UNL     1      31.444 -22.540 -16.624  0.00  0.00    +0.087 C 
ATOM     15  C   UNL     1      30.037 -22.717 -16.764  0.00  0.00    +0.034 C 
ATOM     16  C   UNL     1      31.913 -23.055 -15.436  0.00  0.00    +0.174 C 
ATOM     17  C   UNL     1      29.484 -23.359 -15.678  0.00  0.00    +0.154 C 
BRANCH  17  18
ATOM     18  S   UNL     1      27.845 -23.849 -15.273  0.00  0.00    +0.063 S 
ATOM     19  O   UNL     1      27.928 -24.964 -14.347  0.00  0.00    -0.153 OA
ATOM     20  O   UNL     1      27.093 -22.659 -14.923  0.00  0.00    -0.153 OA
BRANCH  18  21
ATOM     21  N   UNL     1      27.307 -24.422 -16.788  0.00  0.00    -0.203 NA
ATOM     22  H   UNL     1      27.807 -23.935 -17.533  0.00  0.00    +0.144 HD
ATOM     23  H   UNL     1      26.307 -24.249 -16.882  0.00  0.00    +0.144 HD
ENDBRANCH  18  21
ENDBRANCH  17  18
BRANCH  16  24
ATOM     24  O   UNL     1      33.164 -23.064 -14.979  0.00  0.00    -0.469 OA
BRANCH  24  25
ATOM     25  C   UNL     1      33.592 -24.192 -14.194  0.00  0.00    +0.206 C 
ATOM     26  C   UNL     1      34.182 -23.691 -12.893  0.00  0.00    +0.051 C 
ENDBRANCH  24  25
ENDBRANCH  16  24
ENDBRANCH   9  14
BRANCH   7  27
ATOM     27  C   UNL     1      36.925 -21.606 -17.611  0.00  0.00    +0.049 C 
BRANCH  27  28
ATOM     28  C   UNL     1      36.862 -20.990 -16.198  0.00  0.00    +0.006 C 
ATOM     29  C   UNL     1      36.773 -22.042 -15.105  0.00  0.00    +0.000 C 
ENDBRANCH  27  28
ENDBRANCH   7  27
TORSDOF 7
ENDMDL
MODEL 8
REMARK VINA RESULT:      -8.5      4.213      7.953
REMARK  Name = 24771758
REMARK  7 active torsions:
REMARK  status: ('A' for Active; 'I' for Inactive)
REMARK    1  A    between atoms: C_7  and  C_27
REMARK    2  A    between atoms: C_9  and  C_14
REMARK    3  A    between atoms: C_16  and  O_24
REMARK    4  A    between atoms: C_17  and  S_18
REMARK    5  A    between atoms: S_18  and  N_21
REMARK    6  A    between atoms: O_24  and  C_25
REMARK    7  A    between atoms: C_27  and  C_28
REMARK                            x       y       z     vdW  Elec       q    Type
REMARK                         _______ _______ _______ _____ _____    ______ ____
ROOT
ATOM      1  O   UNL     1      34.882 -21.932 -18.070  0.00  0.00    -0.208 OA
ATOM      2  N   UNL     1      36.441 -22.215 -15.515  0.00  0.00    -0.236 N 
ATOM      3  N   UNL     1      33.243 -22.997 -14.485  0.00  0.00    -0.284 N 
ATOM      4  N   UNL     1      36.768 -22.442 -14.224  0.00  0.00    -0.172 NA
ATOM      5  N   UNL     1      33.019 -22.524 -16.843  0.00  0.00    -0.316 NA
ATOM      6  C   UNL     1      34.557 -22.746 -14.581  0.00  0.00    +0.095 A 
ATOM      7  C   UNL     1      35.600 -22.771 -13.655  0.00  0.00    +0.094 A 
ATOM      8  C   UNL     1      35.114 -22.388 -15.777  0.00  0.00    +0.187 A 
ATOM      9  C   UNL     1      32.519 -22.861 -15.675  0.00  0.00    +0.200 C 
ATOM     10  C   UNL     1      34.374 -22.252 -17.002  0.00  0.00    +0.225 C 
ATOM     11  C   UNL     1      37.474 -21.828 -16.447  0.00  0.00    +0.155 C 
ATOM     12  H   UNL     1      32.817 -23.259 -13.637  0.00  0.00    +0.155 HD
ENDROOT
BRANCH   9  14
ATOM     13  S   UNL     1      28.782 -24.170 -15.003  0.00  0.00    -0.031 S 
ATOM     14  C   UNL     1      31.045 -23.126 -15.628  0.00  0.00    +0.087 C 
ATOM     15  C   UNL     1      30.061 -22.411 -16.371  0.00  0.00    +0.034 C 
ATOM     16  C   UNL     1      30.486 -24.110 -14.844  0.00  0.00    +0.174 C 
ATOM     17  C   UNL     1      28.788 -22.876 -16.125  0.00  0.00    +0.154 C 
BRANCH  17  18
ATOM     18  S   UNL     1      27.201 -22.414 -16.722  0.00  0.00    +0.063 S 
ATOM     19  O   UNL     1      27.292 -21.055 -17.228  0.00  0.00    -0.153 OA
ATOM     20  O   UNL     1      26.711 -23.482 -17.575  0.00  0.00    -0.153 OA
BRANCH  18  21
ATOM     21  N   UNL     1      26.309 -22.409 -15.268  0.00  0.00    -0.203 NA
ATOM     22  H   UNL     1      25.796 -23.286 -15.180  0.00  0.00    +0.144 HD
ATOM     23  H   UNL     1      25.651 -21.630 -15.274  0.00  0.00    +0.144 HD
ENDBRANCH  18  21
ENDBRANCH  17  18
BRANCH  16  24
ATOM     24  O   UNL     1      31.104 -24.962 -14.028  0.00  0.00    -0.469 OA
BRANCH  24  25
ATOM     25  C   UNL     1      30.831 -24.870 -12.617  0.00  0.00    +0.206 C 
ATOM     26  C   UNL     1      30.474 -23.439 -12.276  0.00  0.00    +0.051 C 
ENDBRANCH  24  25
ENDBRANCH  16  24
ENDBRANCH   9  14
BRANCH   7  27
ATOM     27  C   UNL     1      35.549 -23.098 -12.221  0.00  0.00    +0.049 C 
BRANCH  27  28
ATOM     28  C   UNL     1      36.856 -23.732 -11.702  0.00  0.00    +0.006 C 
ATOM     29  C   UNL     1      36.920 -25.230 -11.955  0.00  0.00    +0.000 C 
ENDBRANCH  27  28
ENDBRANCH   7  27
TORSDOF 7
ENDMDL
MODEL 9
REMARK VINA RESULT:      -8.1      3.250      7.974
REMARK  Name = 24771758
REMARK  7 active torsions:
REMARK  status: ('A' for Active; 'I' for Inactive)
REMARK    1  A    between atoms: C_7  and  C_27
REMARK    2  A    between atoms: C_9  and  C_14
REMARK    3  A    between atoms: C_16  and  O_24
REMARK    4  A    between atoms: C_17  and  S_18
REMARK    5  A    between atoms: S_18  and  N_21
REMARK    6  A    between atoms: O_24  and  C_25
REMARK    7  A    between atoms: C_27  and  C_28
REMARK                            x       y       z     vdW  Elec       q    Type
REMARK                         _______ _______ _______ _____ _____    ______ ____
ROOT
ATOM      1  O   UNL     1      38.429 -22.900 -15.893  0.00  0.00    -0.208 OA
ATOM      2  N   UNL     1      38.436 -24.264 -13.214  0.00  0.00    -0.236 N 
ATOM      3  N   UNL     1      35.058 -23.927 -13.830  0.00  0.00    -0.284 N 
ATOM      4  N   UNL     1      38.031 -24.850 -12.065  0.00  0.00    -0.172 NA
ATOM      5  N   UNL     1      36.124 -22.949 -15.764  0.00  0.00    -0.316 NA
ATOM      6  C   UNL     1      36.271 -24.193 -13.321  0.00  0.00    +0.095 A 
ATOM      7  C   UNL     1      36.694 -24.803 -12.141  0.00  0.00    +0.094 A 
ATOM      8  C   UNL     1      37.404 -23.852 -14.006  0.00  0.00    +0.187 A 
ATOM      9  C   UNL     1      35.058 -23.289 -15.075  0.00  0.00    +0.200 C 
ATOM     10  C   UNL     1      37.408 -23.201 -15.286  0.00  0.00    +0.225 C 
ATOM     11  C   UNL     1      39.848 -24.134 -13.479  0.00  0.00    +0.155 C 
ATOM     12  H   UNL     1      34.226 -24.164 -13.360  0.00  0.00    +0.155 HD
ENDROOT
BRANCH   9  14
ATOM     13  S   UNL     1      31.966 -22.190 -17.390  0.00  0.00    -0.031 S 
ATOM     14  C   UNL     1      33.732 -22.963 -15.692  0.00  0.00    +0.087 C 
ATOM     15  C   UNL     1      32.469 -23.130 -15.053  0.00  0.00    +0.034 C 
ATOM     16  C   UNL     1      33.603 -22.460 -16.967  0.00  0.00    +0.174 C 
ATOM     17  C   UNL     1      31.423 -22.747 -15.864  0.00  0.00    +0.154 C 
BRANCH  17  18
ATOM     18  S   UNL     1      29.679 -22.719 -15.649  0.00  0.00    +0.063 S 
ATOM     19  O   UNL     1      29.399 -22.145 -14.344  0.00  0.00    -0.153 OA
ATOM     20  O   UNL     1      29.087 -22.146 -16.844  0.00  0.00    -0.153 OA
BRANCH  18  21
ATOM     21  N   UNL     1      29.342 -24.391 -15.607  0.00  0.00    -0.203 NA
ATOM     22  H   UNL     1      28.368 -24.535 -15.342  0.00  0.00    +0.144 HD
ATOM     23  H   UNL     1      29.950 -24.844 -14.926  0.00  0.00    +0.144 HD
ENDBRANCH  18  21
ENDBRANCH  17  18
BRANCH  16  24
ATOM     24  O   UNL     1      34.566 -22.182 -17.843  0.00  0.00    -0.469 OA
BRANCH  24  25
ATOM     25  C   UNL     1      34.186 -21.636 -19.120  0.00  0.00    +0.206 C 
ATOM     26  C   UNL     1      35.330 -20.806 -19.662  0.00  0.00    +0.051 C 
ENDBRANCH  24  25
ENDBRANCH  16  24
ENDBRANCH   9  14
BRANCH   7  27
ATOM     27  C   UNL     1      35.877 -25.361 -11.050  0.00  0.00    +0.049 C 
BRANCH  27  28
ATOM     28  C   UNL     1      35.123 -24.279 -10.250  0.00  0.00    +0.006 C 
ATOM     29  C   UNL     1      35.913 -22.985 -10.128  0.00  0.00    +0.000 C 
ENDBRANCH  27  28
ENDBRANCH   7  27
TORSDOF 7
ENDMDL
