MODEL 1
REMARK VINA RESULT:     -12.8      0.000      0.000
REMARK  Name = 5496659
REMARK  9 active torsions:
REMARK  status: ('A' for Active; 'I' for Inactive)
REMARK    1  A    between atoms: C_1  and  N_4
REMARK    2  A    between atoms: C_1  and  C_20
REMARK    3  A    between atoms: C_5  and  C_7
REMARK    4  A    between atoms: C_10  and  C_15
REMARK    5  A    between atoms: C_20  and  C_22
REMARK    6  A    between atoms: C_20  and  C_25
REMARK    7  A    between atoms: C_22  and  O_23
REMARK    8  A    between atoms: C_25  and  C_26
REMARK    9  A    between atoms: C_29  and  C_34
REMARK                            x       y       z     vdW  Elec       q    Type
REMARK                         _______ _______ _______ _____ _____    ______ ____
ROOT
ATOM      1  C   UNL     1      32.935 -23.253 -15.458  0.00  0.00    +0.083 C 
ATOM      2  C   UNL     1      31.722 -22.853 -14.621  0.00  0.00    +0.022 C 
ENDROOT
BRANCH   1   4
ATOM      3  O   UNL     1      33.183 -23.894 -18.246  0.00  0.00    -0.270 OA
ATOM      4  N   UNL     1      33.120 -22.320 -16.545  0.00  0.00    -0.302 N 
ATOM      5  C   UNL     1      33.230 -22.727 -17.865  0.00  0.00    +0.246 C 
ATOM      6  H   UNL     1      33.171 -21.358 -16.340  0.00  0.00    +0.150 HD
BRANCH   5   7
ATOM      7  C   UNL     1      33.443 -21.646 -18.862  0.00  0.00    +0.053 C 
ATOM      8  C   UNL     1      34.735 -21.327 -19.279  0.00  0.00    +0.005 C 
ATOM      9  C   UNL     1      32.351 -20.951 -19.380  0.00  0.00    +0.005 C 
ATOM     10  C   UNL     1      33.843 -19.616 -20.733  0.00  0.00    +0.000 C 
ATOM     11  C   UNL     1      34.935 -20.312 -20.214  0.00  0.00    +0.000 C 
ATOM     12  C   UNL     1      32.550 -19.936 -20.315  0.00  0.00    +0.000 C 
BRANCH  10  15
ATOM     13  O   UNL     1      34.622 -15.600 -24.422  0.00  0.00    -0.163 OA
ATOM     14  N   UNL     1      34.443 -16.529 -23.569  0.00  0.00    -0.127 N 
ATOM     15  C   UNL     1      34.048 -18.562 -21.702  0.00  0.00    +0.003 C 
ATOM     16  C   UNL     1      33.726 -18.772 -23.038  0.00  0.00    +0.022 C 
ATOM     17  C   UNL     1      34.568 -17.336 -21.298  0.00  0.00    +0.022 C 
ATOM     18  C   UNL     1      33.927 -17.750 -23.959  0.00  0.00    +0.121 C 
ATOM     19  C   UNL     1      34.760 -16.330 -22.239  0.00  0.00    +0.121 C 
ENDBRANCH  10  15
ENDBRANCH   5   7
ENDBRANCH   1   4
BRANCH   1  20
ATOM     20  C   UNL     1      34.209 -23.426 -14.600  0.00  0.00    +0.121 C 
BRANCH  20  22
ATOM     21  O   UNL     1      35.479 -21.373 -14.260  0.00  0.00    -0.250 OA
ATOM     22  C   UNL     1      35.254 -22.368 -14.939  0.00  0.00    +0.319 C 
BRANCH  22  23
ATOM     23  O   UNL     1      35.886 -22.701 -16.102  0.00  0.00    -0.444 OA
ATOM     24  C   UNL     1      36.930 -21.811 -16.512  0.00  0.00    +0.256 C 
ENDBRANCH  22  23
ENDBRANCH  20  22
BRANCH  20  25
ATOM     25  C   UNL     1      34.821 -24.835 -14.751  0.00  0.00    +0.039 C 
BRANCH  25  26
ATOM     26  C   UNL     1      36.078 -25.018 -13.931  0.00  0.00    -0.021 C 
ATOM     27  C   UNL     1      37.285 -25.318 -14.562  0.00  0.00    -0.002 C 
ATOM     28  C   UNL     1      36.029 -24.889 -12.543  0.00  0.00    -0.004 C 
ATOM     29  C   UNL     1      38.443 -25.489 -13.804  0.00  0.00    +0.030 C 
ATOM     30  C   UNL     1      37.188 -25.060 -11.786  0.00  0.00    -0.000 C 
ATOM     31  C   UNL     1      38.395 -25.360 -12.416  0.00  0.00    +0.003 C 
BRANCH  29  34
ATOM     32  N   UNL     1      40.731 -26.455 -13.784  0.00  0.00    -0.343 N 
ATOM     33  N   UNL     1      39.886 -25.466 -15.725  0.00  0.00    -0.285 NA
ATOM     34  C   UNL     1      39.702 -25.804 -14.462  0.00  0.00    +0.117 C 
ATOM     35  H   UNL     1      41.575 -26.658 -14.248  0.00  0.00    +0.144 HD
ATOM     36  H   UNL     1      40.614 -26.712 -12.841  0.00  0.00    +0.144 HD
ATOM     37  H   UNL     1      40.739 -25.678 -16.172  0.00  0.00    +0.188 HD
ENDBRANCH  29  34
ENDBRANCH  25  26
ENDBRANCH  20  25
ENDBRANCH   1  20
TORSDOF 9
ENDMDL
MODEL 2
REMARK VINA RESULT:     -12.4      1.447      2.599
REMARK  Name = 5496659
REMARK  9 active torsions:
REMARK  status: ('A' for Active; 'I' for Inactive)
REMARK    1  A    between atoms: C_1  and  N_4
REMARK    2  A    between atoms: C_1  and  C_20
REMARK    3  A    between atoms: C_5  and  C_7
REMARK    4  A    between atoms: C_10  and  C_15
REMARK    5  A    between atoms: C_20  and  C_22
REMARK    6  A    between atoms: C_20  and  C_25
REMARK    7  A    between atoms: C_22  and  O_23
REMARK    8  A    between atoms: C_25  and  C_26
REMARK    9  A    between atoms: C_29  and  C_34
REMARK                            x       y       z     vdW  Elec       q    Type
REMARK                         _______ _______ _______ _____ _____    ______ ____
ROOT
ATOM      1  C   UNL     1      32.113 -23.185 -15.338  0.00  0.00    +0.083 C 
ATOM      2  C   UNL     1      30.932 -22.651 -14.530  0.00  0.00    +0.022 C 
ENDROOT
BRANCH   1   4
ATOM      3  O   UNL     1      33.372 -23.885 -17.822  0.00  0.00    -0.270 OA
ATOM      4  N   UNL     1      32.408 -22.295 -16.437  0.00  0.00    -0.302 N 
ATOM      5  C   UNL     1      33.022 -22.728 -17.602  0.00  0.00    +0.246 C 
ATOM      6  H   UNL     1      32.165 -21.344 -16.355  0.00  0.00    +0.150 HD
BRANCH   5   7
ATOM      7  C   UNL     1      33.279 -21.685 -18.626  0.00  0.00    +0.053 C 
ATOM      8  C   UNL     1      34.583 -21.430 -19.050  0.00  0.00    +0.005 C 
ATOM      9  C   UNL     1      32.217 -20.959 -19.164  0.00  0.00    +0.005 C 
ATOM     10  C   UNL     1      33.762 -19.723 -20.550  0.00  0.00    +0.000 C 
ATOM     11  C   UNL     1      34.825 -20.449 -20.012  0.00  0.00    +0.000 C 
ATOM     12  C   UNL     1      32.458 -19.978 -20.126  0.00  0.00    +0.000 C 
BRANCH  10  15
ATOM     13  O   UNL     1      34.715 -15.844 -24.344  0.00  0.00    -0.163 OA
ATOM     14  N   UNL     1      34.494 -16.740 -23.467  0.00  0.00    -0.127 N 
ATOM     15  C   UNL     1      34.012 -18.704 -21.547  0.00  0.00    +0.003 C 
ATOM     16  C   UNL     1      34.629 -17.512 -21.183  0.00  0.00    +0.022 C 
ATOM     17  C   UNL     1      33.635 -18.916 -22.868  0.00  0.00    +0.022 C 
ATOM     18  C   UNL     1      34.864 -16.541 -22.150  0.00  0.00    +0.121 C 
ATOM     19  C   UNL     1      33.882 -17.928 -23.817  0.00  0.00    +0.121 C 
ENDBRANCH  10  15
ENDBRANCH   5   7
ENDBRANCH   1   4
BRANCH   1  20
ATOM     20  C   UNL     1      33.349 -23.467 -14.454  0.00  0.00    +0.121 C 
BRANCH  20  22
ATOM     21  O   UNL     1      32.060 -24.769 -12.845  0.00  0.00    -0.250 OA
ATOM     22  C   UNL     1      32.940 -23.945 -13.064  0.00  0.00    +0.319 C 
BRANCH  22  23
ATOM     23  O   UNL     1      33.698 -23.316 -12.119  0.00  0.00    -0.444 OA
ATOM     24  C   UNL     1      34.657 -24.142 -11.450  0.00  0.00    +0.256 C 
ENDBRANCH  22  23
ENDBRANCH  20  22
BRANCH  20  25
ATOM     25  C   UNL     1      34.269 -22.234 -14.334  0.00  0.00    +0.039 C 
BRANCH  25  26
ATOM     26  C   UNL     1      35.665 -22.493 -14.852  0.00  0.00    -0.021 C 
ATOM     27  C   UNL     1      36.369 -23.620 -14.427  0.00  0.00    -0.002 C 
ATOM     28  C   UNL     1      36.251 -21.604 -15.753  0.00  0.00    -0.004 C 
ATOM     29  C   UNL     1      37.658 -23.857 -14.903  0.00  0.00    +0.030 C 
ATOM     30  C   UNL     1      37.540 -21.842 -16.229  0.00  0.00    -0.000 C 
ATOM     31  C   UNL     1      38.244 -22.968 -15.804  0.00  0.00    +0.003 C 
BRANCH  29  34
ATOM     32  N   UNL     1      38.002 -25.745 -13.325  0.00  0.00    -0.343 N 
ATOM     33  N   UNL     1      39.455 -25.436 -15.130  0.00  0.00    -0.285 NA
ATOM     34  C   UNL     1      38.393 -25.031 -14.458  0.00  0.00    +0.117 C 
ATOM     35  H   UNL     1      38.515 -26.536 -13.042  0.00  0.00    +0.144 HD
ATOM     36  H   UNL     1      37.215 -25.456 -12.810  0.00  0.00    +0.144 HD
ATOM     37  H   UNL     1      39.954 -26.231 -14.830  0.00  0.00    +0.188 HD
ENDBRANCH  29  34
ENDBRANCH  25  26
ENDBRANCH  20  25
ENDBRANCH   1  20
TORSDOF 9
ENDMDL
MODEL 3
REMARK VINA RESULT:     -12.1      4.038     11.041
REMARK  Name = 5496659
REMARK  9 active torsions:
REMARK  status: ('A' for Active; 'I' for Inactive)
REMARK    1  A    between atoms: C_1  and  N_4
REMARK    2  A    between atoms: C_1  and  C_20
REMARK    3  A    between atoms: C_5  and  C_7
REMARK    4  A    between atoms: C_10  and  C_15
REMARK    5  A    between atoms: C_20  and  C_22
REMARK    6  A    between atoms: C_20  and  C_25
REMARK    7  A    between atoms: C_22  and  O_23
REMARK    8  A    between atoms: C_25  and  C_26
REMARK    9  A    between atoms: C_29  and  C_34
REMARK                            x       y       z     vdW  Elec       q    Type
REMARK                         _______ _______ _______ _____ _____    ______ ____
ROOT
ATOM      1  C   UNL     1      35.487 -19.127 -21.330  0.00  0.00    +0.083 C 
ATOM      2  C   UNL     1      36.732 -18.387 -20.844  0.00  0.00    +0.022 C 
ENDROOT
BRANCH   1   4
ATOM      3  O   UNL     1      36.148 -21.657 -20.147  0.00  0.00    -0.270 OA
ATOM      4  N   UNL     1      34.817 -19.760 -20.219  0.00  0.00    -0.302 N 
ATOM      5  C   UNL     1      35.211 -20.990 -19.715  0.00  0.00    +0.246 C 
ATOM      6  H   UNL     1      34.051 -19.301 -19.803  0.00  0.00    +0.150 HD
BRANCH   5   7
ATOM      7  C   UNL     1      34.404 -21.518 -18.586  0.00  0.00    +0.053 C 
ATOM      8  C   UNL     1      33.019 -21.627 -18.710  0.00  0.00    +0.005 C 
ATOM      9  C   UNL     1      35.030 -21.903 -17.401  0.00  0.00    +0.005 C 
ATOM     10  C   UNL     1      32.887 -22.508 -16.464  0.00  0.00    +0.000 C 
ATOM     11  C   UNL     1      32.260 -22.122 -17.649  0.00  0.00    +0.000 C 
ATOM     12  C   UNL     1      34.272 -22.398 -16.340  0.00  0.00    +0.000 C 
BRANCH  10  15
ATOM     13  O   UNL     1      29.898 -24.455 -12.266  0.00  0.00    -0.163 OA
ATOM     14  N   UNL     1      30.589 -24.006 -13.237  0.00  0.00    -0.127 N 
ATOM     15  C   UNL     1      32.102 -23.020 -15.362  0.00  0.00    +0.003 C 
ATOM     16  C   UNL     1      32.707 -23.790 -14.374  0.00  0.00    +0.022 C 
ATOM     17  C   UNL     1      30.741 -22.743 -15.289  0.00  0.00    +0.022 C 
ATOM     18  C   UNL     1      31.942 -24.275 -13.320  0.00  0.00    +0.121 C 
ATOM     19  C   UNL     1      29.997 -23.240 -14.223  0.00  0.00    +0.121 C 
ENDBRANCH  10  15
ENDBRANCH   5   7
ENDBRANCH   1   4
BRANCH   1  20
ATOM     20  C   UNL     1      34.545 -18.214 -22.149  0.00  0.00    +0.121 C 
BRANCH  20  22
ATOM     21  O   UNL     1      34.545 -19.867 -23.942  0.00  0.00    -0.250 OA
ATOM     22  C   UNL     1      33.981 -18.946 -23.364  0.00  0.00    +0.319 C 
BRANCH  22  23
ATOM     23  O   UNL     1      32.768 -18.417 -23.697  0.00  0.00    -0.444 OA
ATOM     24  C   UNL     1      32.743 -17.647 -24.903  0.00  0.00    +0.256 C 
ENDBRANCH  22  23
ENDBRANCH  20  22
BRANCH  20  25
ATOM     25  C   UNL     1      35.245 -16.914 -22.599  0.00  0.00    +0.039 C 
BRANCH  25  26
ATOM     26  C   UNL     1      34.501 -15.671 -22.168  0.00  0.00    -0.021 C 
ATOM     27  C   UNL     1      34.177 -14.692 -23.108  0.00  0.00    -0.002 C 
ATOM     28  C   UNL     1      34.142 -15.500 -20.831  0.00  0.00    -0.004 C 
ATOM     29  C   UNL     1      33.493 -13.543 -22.709  0.00  0.00    +0.030 C 
ATOM     30  C   UNL     1      33.458 -14.352 -20.434  0.00  0.00    -0.000 C 
ATOM     31  C   UNL     1      33.134 -13.373 -21.372  0.00  0.00    +0.003 C 
BRANCH  29  34
ATOM     32  N   UNL     1      32.493 -12.843 -24.872  0.00  0.00    -0.343 N 
ATOM     33  N   UNL     1      33.484 -11.262 -23.464  0.00  0.00    -0.285 NA
ATOM     34  C   UNL     1      33.156 -12.522 -23.689  0.00  0.00    +0.117 C 
ATOM     35  H   UNL     1      32.275 -12.135 -25.521  0.00  0.00    +0.144 HD
ATOM     36  H   UNL     1      32.243 -13.776 -25.058  0.00  0.00    +0.144 HD
ATOM     37  H   UNL     1      33.257 -10.569 -24.127  0.00  0.00    +0.188 HD
ENDBRANCH  29  34
ENDBRANCH  25  26
ENDBRANCH  20  25
ENDBRANCH   1  20
TORSDOF 9
ENDMDL
MODEL 4
REMARK VINA RESULT:     -12.0      3.113     11.095
REMARK  Name = 5496659
REMARK  9 active torsions:
REMARK  status: ('A' for Active; 'I' for Inactive)
REMARK    1  A    between atoms: C_1  and  N_4
REMARK    2  A    between atoms: C_1  and  C_20
REMARK    3  A    between atoms: C_5  and  C_7
REMARK    4  A    between atoms: C_10  and  C_15
REMARK    5  A    between atoms: C_20  and  C_22
REMARK    6  A    between atoms: C_20  and  C_25
REMARK    7  A    between atoms: C_22  and  O_23
REMARK    8  A    between atoms: C_25  and  C_26
REMARK    9  A    between atoms: C_29  and  C_34
REMARK                            x       y       z     vdW  Elec       q    Type
REMARK                         _______ _______ _______ _____ _____    ______ ____
ROOT
ATOM      1  C   UNL     1      36.011 -19.061 -21.220  0.00  0.00    +0.083 C 
ATOM      2  C   UNL     1      37.332 -18.301 -21.335  0.00  0.00    +0.022 C 
ENDROOT
BRANCH   1   4
ATOM      3  O   UNL     1      35.005 -21.684 -20.630  0.00  0.00    -0.270 OA
ATOM      4  N   UNL     1      35.897 -19.668 -19.915  0.00  0.00    -0.302 N 
ATOM      5  C   UNL     1      35.395 -20.947 -19.729  0.00  0.00    +0.246 C 
ATOM      6  H   UNL     1      36.185 -19.153 -19.126  0.00  0.00    +0.150 HD
BRANCH   5   7
ATOM      7  C   UNL     1      35.319 -21.416 -18.322  0.00  0.00    +0.053 C 
ATOM      8  C   UNL     1      34.166 -22.049 -17.860  0.00  0.00    +0.005 C 
ATOM      9  C   UNL     1      36.400 -21.223 -17.463  0.00  0.00    +0.005 C 
ATOM     10  C   UNL     1      35.175 -22.296 -15.679  0.00  0.00    +0.000 C 
ATOM     11  C   UNL     1      34.093 -22.489 -16.538  0.00  0.00    +0.000 C 
ATOM     12  C   UNL     1      36.329 -21.662 -16.142  0.00  0.00    +0.000 C 
BRANCH  10  15
ATOM     13  O   UNL     1      34.894 -24.022 -10.455  0.00  0.00    -0.163 OA
ATOM     14  N   UNL     1      34.959 -23.624 -11.663  0.00  0.00    -0.127 N 
ATOM     15  C   UNL     1      35.101 -22.750 -14.307  0.00  0.00    +0.003 C 
ATOM     16  C   UNL     1      36.169 -22.531 -13.443  0.00  0.00    +0.022 C 
ATOM     17  C   UNL     1      33.963 -23.406 -13.851  0.00  0.00    +0.022 C 
ATOM     18  C   UNL     1      36.085 -22.971 -12.127  0.00  0.00    +0.121 C 
ATOM     19  C   UNL     1      33.905 -23.837 -12.529  0.00  0.00    +0.121 C 
ENDBRANCH  10  15
ENDBRANCH   5   7
ENDBRANCH   1   4
BRANCH   1  20
ATOM     20  C   UNL     1      34.793 -18.177 -21.574  0.00  0.00    +0.121 C 
BRANCH  20  22
ATOM     21  O   UNL     1      32.733 -19.477 -21.691  0.00  0.00    -0.250 OA
ATOM     22  C   UNL     1      33.700 -18.988 -22.263  0.00  0.00    +0.319 C 
BRANCH  22  23
ATOM     23  O   UNL     1      33.970 -19.082 -23.598  0.00  0.00    -0.444 OA
ATOM     24  C   UNL     1      33.062 -18.389 -24.460  0.00  0.00    +0.256 C 
ENDBRANCH  22  23
ENDBRANCH  20  22
BRANCH  20  25
ATOM     25  C   UNL     1      35.188 -16.973 -22.455  0.00  0.00    +0.039 C 
BRANCH  25  26
ATOM     26  C   UNL     1      34.470 -15.702 -22.064  0.00  0.00    -0.021 C 
ATOM     27  C   UNL     1      34.165 -14.747 -23.034  0.00  0.00    -0.002 C 
ATOM     28  C   UNL     1      34.114 -15.483 -20.733  0.00  0.00    -0.004 C 
ATOM     29  C   UNL     1      33.505 -13.573 -22.673  0.00  0.00    +0.030 C 
ATOM     30  C   UNL     1      33.453 -14.309 -20.373  0.00  0.00    -0.000 C 
ATOM     31  C   UNL     1      33.149 -13.353 -21.342  0.00  0.00    +0.003 C 
BRANCH  29  34
ATOM     32  N   UNL     1      32.512 -12.918 -24.853  0.00  0.00    -0.343 N 
ATOM     33  N   UNL     1      33.551 -11.318 -23.503  0.00  0.00    -0.285 NA
ATOM     34  C   UNL     1      33.190 -12.575 -23.684  0.00  0.00    +0.117 C 
ATOM     35  H   UNL     1      32.309 -12.227 -25.524  0.00  0.00    +0.144 HD
ATOM     36  H   UNL     1      32.237 -13.851 -25.007  0.00  0.00    +0.144 HD
ATOM     37  H   UNL     1      33.338 -10.641 -24.187  0.00  0.00    +0.188 HD
ENDBRANCH  29  34
ENDBRANCH  25  26
ENDBRANCH  20  25
ENDBRANCH   1  20
TORSDOF 9
ENDMDL
MODEL 5
REMARK VINA RESULT:     -11.7      7.613     15.187
REMARK  Name = 5496659
REMARK  9 active torsions:
REMARK  status: ('A' for Active; 'I' for Inactive)
REMARK    1  A    between atoms: C_1  and  N_4
REMARK    2  A    between atoms: C_1  and  C_20
REMARK    3  A    between atoms: C_5  and  C_7
REMARK    4  A    between atoms: C_10  and  C_15
REMARK    5  A    between atoms: C_20  and  C_22
REMARK    6  A    between atoms: C_20  and  C_25
REMARK    7  A    between atoms: C_22  and  O_23
REMARK    8  A    between atoms: C_25  and  C_26
REMARK    9  A    between atoms: C_29  and  C_34
REMARK                            x       y       z     vdW  Elec       q    Type
REMARK                         _______ _______ _______ _____ _____    ______ ____
ROOT
ATOM      1  C   UNL     1      32.659 -10.264 -23.154  0.00  0.00    +0.083 C 
ATOM      2  C   UNL     1      33.867  -9.449 -23.612  0.00  0.00    +0.022 C 
ENDROOT
BRANCH   1   4
ATOM      3  O   UNL     1      32.896 -12.589 -24.822  0.00  0.00    -0.270 OA
ATOM      4  N   UNL     1      33.075 -11.584 -22.741  0.00  0.00    -0.302 N 
ATOM      5  C   UNL     1      33.159 -12.649 -23.624  0.00  0.00    +0.246 C 
ATOM      6  H   UNL     1      33.308 -11.733 -21.795  0.00  0.00    +0.150 HD
BRANCH   5   7
ATOM      7  C   UNL     1      33.579 -13.947 -23.037  0.00  0.00    +0.053 C 
ATOM      8  C   UNL     1      33.830 -15.039 -23.867  0.00  0.00    +0.005 C 
ATOM      9  C   UNL     1      33.722 -14.074 -21.656  0.00  0.00    +0.005 C 
ATOM     10  C   UNL     1      34.367 -16.385 -21.934  0.00  0.00    +0.000 C 
ATOM     11  C   UNL     1      34.223 -16.259 -23.316  0.00  0.00    +0.000 C 
ATOM     12  C   UNL     1      34.116 -15.292 -21.104  0.00  0.00    +0.000 C 
BRANCH  10  15
ATOM     13  O   UNL     1      35.914 -21.201 -19.753  0.00  0.00    -0.163 OA
ATOM     14  N   UNL     1      35.556 -20.088 -20.256  0.00  0.00    -0.127 N 
ATOM     15  C   UNL     1      34.773 -17.650 -21.360  0.00  0.00    +0.003 C 
ATOM     16  C   UNL     1      33.821 -18.622 -21.073  0.00  0.00    +0.022 C 
ATOM     17  C   UNL     1      36.116 -17.895 -21.096  0.00  0.00    +0.022 C 
ATOM     18  C   UNL     1      34.224 -19.833 -20.523  0.00  0.00    +0.121 C 
ATOM     19  C   UNL     1      36.494 -19.116 -20.546  0.00  0.00    +0.121 C 
ENDBRANCH  10  15
ENDBRANCH   5   7
ENDBRANCH   1   4
BRANCH   1  20
ATOM     20  C   UNL     1      31.836  -9.534 -22.068  0.00  0.00    +0.121 C 
BRANCH  20  22
ATOM     21  O   UNL     1      29.916 -10.975 -21.642  0.00  0.00    -0.250 OA
ATOM     22  C   UNL     1      30.986 -10.513 -21.264  0.00  0.00    +0.319 C 
BRANCH  22  23
ATOM     23  O   UNL     1      31.598 -10.784 -20.075  0.00  0.00    -0.444 OA
ATOM     24  C   UNL     1      31.288  -9.886 -19.004  0.00  0.00    +0.256 C 
ENDBRANCH  22  23
ENDBRANCH  20  22
BRANCH  20  25
ATOM     25  C   UNL     1      30.939  -8.429 -22.667  0.00  0.00    +0.039 C 
BRANCH  25  26
ATOM     26  C   UNL     1      31.113  -7.096 -21.975  0.00  0.00    -0.021 C 
ATOM     27  C   UNL     1      30.629  -5.932 -22.573  0.00  0.00    -0.002 C 
ATOM     28  C   UNL     1      31.758  -7.030 -20.740  0.00  0.00    -0.004 C 
ATOM     29  C   UNL     1      30.792  -4.703 -21.936  0.00  0.00    +0.030 C 
ATOM     30  C   UNL     1      31.919  -5.800 -20.103  0.00  0.00    -0.000 C 
ATOM     31  C   UNL     1      31.437  -4.636 -20.701  0.00  0.00    +0.003 C 
BRANCH  29  34
ATOM     32  N   UNL     1      30.160  -3.385 -23.944  0.00  0.00    -0.343 N 
ATOM     33  N   UNL     1      29.950  -2.455 -21.810  0.00  0.00    -0.285 NA
ATOM     34  C   UNL     1      30.289  -3.488 -22.560  0.00  0.00    +0.117 C 
ATOM     35  H   UNL     1      29.818  -2.554 -24.345  0.00  0.00    +0.144 HD
ATOM     36  H   UNL     1      30.410  -4.144 -24.520  0.00  0.00    +0.144 HD
ATOM     37  H   UNL     1      29.610  -1.632 -22.231  0.00  0.00    +0.188 HD
ENDBRANCH  29  34
ENDBRANCH  25  26
ENDBRANCH  20  25
ENDBRANCH   1  20
TORSDOF 9
ENDMDL
MODEL 6
REMARK VINA RESULT:     -11.4      2.357      5.140
REMARK  Name = 5496659
REMARK  9 active torsions:
REMARK  status: ('A' for Active; 'I' for Inactive)
REMARK    1  A    between atoms: C_1  and  N_4
REMARK    2  A    between atoms: C_1  and  C_20
REMARK    3  A    between atoms: C_5  and  C_7
REMARK    4  A    between atoms: C_10  and  C_15
REMARK    5  A    between atoms: C_20  and  C_22
REMARK    6  A    between atoms: C_20  and  C_25
REMARK    7  A    between atoms: C_22  and  O_23
REMARK    8  A    between atoms: C_25  and  C_26
REMARK    9  A    between atoms: C_29  and  C_34
REMARK                            x       y       z     vdW  Elec       q    Type
REMARK                         _______ _______ _______ _____ _____    ______ ____
ROOT
ATOM      1  C   UNL     1      35.591 -23.552 -14.873  0.00  0.00    +0.083 C 
ATOM      2  C   UNL     1      35.431 -25.005 -15.317  0.00  0.00    +0.022 C 
ENDROOT
BRANCH   1   4
ATOM      3  O   UNL     1      33.523 -23.654 -16.862  0.00  0.00    -0.270 OA
ATOM      4  N   UNL     1      35.437 -22.666 -16.003  0.00  0.00    -0.302 N 
ATOM      5  C   UNL     1      34.400 -22.795 -16.914  0.00  0.00    +0.246 C 
ATOM      6  H   UNL     1      36.093 -21.943 -16.131  0.00  0.00    +0.150 HD
BRANCH   5   7
ATOM      7  C   UNL     1      34.396 -21.821 -18.035  0.00  0.00    +0.053 C 
ATOM      8  C   UNL     1      35.597 -21.274 -18.488  0.00  0.00    +0.005 C 
ATOM      9  C   UNL     1      33.192 -21.452 -18.634  0.00  0.00    +0.005 C 
ATOM     10  C   UNL     1      34.388 -19.990 -20.140  0.00  0.00    +0.000 C 
ATOM     11  C   UNL     1      35.593 -20.359 -19.540  0.00  0.00    +0.000 C 
ATOM     12  C   UNL     1      33.188 -20.536 -19.686  0.00  0.00    +0.000 C 
BRANCH  10  15
ATOM     13  O   UNL     1      34.362 -16.368 -24.290  0.00  0.00    -0.163 OA
ATOM     14  N   UNL     1      34.369 -17.205 -23.331  0.00  0.00    -0.127 N 
ATOM     15  C   UNL     1      34.382 -19.039 -21.230  0.00  0.00    +0.003 C 
ATOM     16  C   UNL     1      33.806 -19.381 -22.449  0.00  0.00    +0.022 C 
ATOM     17  C   UNL     1      34.952 -17.782 -21.061  0.00  0.00    +0.022 C 
ATOM     18  C   UNL     1      33.806 -18.458 -23.488  0.00  0.00    +0.121 C 
ATOM     19  C   UNL     1      34.939 -16.876 -22.117  0.00  0.00    +0.121 C 
ENDBRANCH  10  15
ENDBRANCH   5   7
ENDBRANCH   1   4
BRANCH   1  20
ATOM     20  C   UNL     1      34.650 -23.189 -13.701  0.00  0.00    +0.121 C 
BRANCH  20  22
ATOM     21  O   UNL     1      36.534 -22.636 -12.256  0.00  0.00    -0.250 OA
ATOM     22  C   UNL     1      35.412 -23.111 -12.382  0.00  0.00    +0.319 C 
BRANCH  22  23
ATOM     23  O   UNL     1      34.655 -23.647 -11.381  0.00  0.00    -0.444 OA
ATOM     24  C   UNL     1      35.336 -23.858 -10.140  0.00  0.00    +0.256 C 
ENDBRANCH  22  23
ENDBRANCH  20  22
BRANCH  20  25
ATOM     25  C   UNL     1      33.477 -24.184 -13.571  0.00  0.00    +0.039 C 
BRANCH  25  26
ATOM     26  C   UNL     1      32.138 -23.554 -13.878  0.00  0.00    -0.021 C 
ATOM     27  C   UNL     1      31.029 -24.361 -14.131  0.00  0.00    -0.002 C 
ATOM     28  C   UNL     1      32.013 -22.165 -13.911  0.00  0.00    -0.004 C 
ATOM     29  C   UNL     1      29.794 -23.778 -14.416  0.00  0.00    +0.030 C 
ATOM     30  C   UNL     1      30.778 -21.583 -14.195  0.00  0.00    -0.000 C 
ATOM     31  C   UNL     1      29.669 -22.390 -14.449  0.00  0.00    +0.003 C 
BRANCH  29  34
ATOM     32  N   UNL     1      28.458 -25.834 -14.021  0.00  0.00    -0.343 N 
ATOM     33  N   UNL     1      27.736 -24.238 -15.568  0.00  0.00    -0.285 NA
ATOM     34  C   UNL     1      28.638 -24.620 -14.681  0.00  0.00    +0.117 C 
ATOM     35  H   UNL     1      27.668 -26.388 -14.216  0.00  0.00    +0.144 HD
ATOM     36  H   UNL     1      29.121 -26.137 -13.359  0.00  0.00    +0.144 HD
ATOM     37  H   UNL     1      26.952 -24.807 -15.749  0.00  0.00    +0.188 HD
ENDBRANCH  29  34
ENDBRANCH  25  26
ENDBRANCH  20  25
ENDBRANCH   1  20
TORSDOF 9
ENDMDL
MODEL 7
REMARK VINA RESULT:     -11.2      2.316      5.035
REMARK  Name = 5496659
REMARK  9 active torsions:
REMARK  status: ('A' for Active; 'I' for Inactive)
REMARK    1  A    between atoms: C_1  and  N_4
REMARK    2  A    between atoms: C_1  and  C_20
REMARK    3  A    between atoms: C_5  and  C_7
REMARK    4  A    between atoms: C_10  and  C_15
REMARK    5  A    between atoms: C_20  and  C_22
REMARK    6  A    between atoms: C_20  and  C_25
REMARK    7  A    between atoms: C_22  and  O_23
REMARK    8  A    between atoms: C_25  and  C_26
REMARK    9  A    between atoms: C_29  and  C_34
REMARK                            x       y       z     vdW  Elec       q    Type
REMARK                         _______ _______ _______ _____ _____    ______ ____
ROOT
ATOM      1  C   UNL     1      35.364 -23.500 -14.956  0.00  0.00    +0.083 C 
ATOM      2  C   UNL     1      35.480 -24.941 -15.451  0.00  0.00    +0.022 C 
ENDROOT
BRANCH   1   4
ATOM      3  O   UNL     1      33.527 -23.735 -17.149  0.00  0.00    -0.270 OA
ATOM      4  N   UNL     1      35.238 -22.597 -16.076  0.00  0.00    -0.302 N 
ATOM      5  C   UNL     1      34.315 -22.795 -17.092  0.00  0.00    +0.246 C 
ATOM      6  H   UNL     1      35.829 -21.810 -16.120  0.00  0.00    +0.150 HD
BRANCH   5   7
ATOM      7  C   UNL     1      34.328 -21.790 -18.185  0.00  0.00    +0.053 C 
ATOM      8  C   UNL     1      33.130 -21.376 -18.765  0.00  0.00    +0.005 C 
ATOM      9  C   UNL     1      35.539 -21.261 -18.631  0.00  0.00    +0.005 C 
ATOM     10  C   UNL     1      34.353 -19.902 -20.239  0.00  0.00    +0.000 C 
ATOM     11  C   UNL     1      33.142 -20.432 -19.793  0.00  0.00    +0.000 C 
ATOM     12  C   UNL     1      35.552 -20.317 -19.658  0.00  0.00    +0.000 C 
BRANCH  10  15
ATOM     13  O   UNL     1      34.405 -16.180 -24.299  0.00  0.00    -0.163 OA
ATOM     14  N   UNL     1      34.394 -17.041 -23.361  0.00  0.00    -0.127 N 
ATOM     15  C   UNL     1      34.368 -18.925 -21.305  0.00  0.00    +0.003 C 
ATOM     16  C   UNL     1      33.852 -19.251 -22.555  0.00  0.00    +0.022 C 
ATOM     17  C   UNL     1      34.896 -17.658 -21.082  0.00  0.00    +0.022 C 
ATOM     18  C   UNL     1      33.871 -18.302 -23.572  0.00  0.00    +0.121 C 
ATOM     19  C   UNL     1      34.903 -16.727 -22.116  0.00  0.00    +0.121 C 
ENDBRANCH  10  15
ENDBRANCH   5   7
ENDBRANCH   1   4
BRANCH   1  20
ATOM     20  C   UNL     1      34.228 -23.325 -13.921  0.00  0.00    +0.121 C 
BRANCH  20  22
ATOM     21  O   UNL     1      34.185 -23.150 -11.490  0.00  0.00    -0.250 OA
ATOM     22  C   UNL     1      34.782 -22.972 -12.544  0.00  0.00    +0.319 C 
BRANCH  22  23
ATOM     23  O   UNL     1      36.029 -22.432 -12.675  0.00  0.00    -0.444 OA
ATOM     24  C   UNL     1      36.965 -22.793 -11.654  0.00  0.00    +0.256 C 
ENDBRANCH  22  23
ENDBRANCH  20  22
BRANCH  20  25
ATOM     25  C   UNL     1      33.337 -24.582 -13.822  0.00  0.00    +0.039 C 
BRANCH  25  26
ATOM     26  C   UNL     1      31.866 -24.269 -13.971  0.00  0.00    -0.021 C 
ATOM     27  C   UNL     1      31.425 -23.478 -15.032  0.00  0.00    -0.002 C 
ATOM     28  C   UNL     1      30.950 -24.769 -13.045  0.00  0.00    -0.004 C 
ATOM     29  C   UNL     1      30.068 -23.188 -15.168  0.00  0.00    +0.030 C 
ATOM     30  C   UNL     1      29.593 -24.479 -13.182  0.00  0.00    -0.000 C 
ATOM     31  C   UNL     1      29.152 -23.688 -14.242  0.00  0.00    +0.003 C 
BRANCH  29  34
ATOM     32  N   UNL     1      28.252 -22.114 -16.477  0.00  0.00    -0.343 N 
ATOM     33  N   UNL     1      30.484 -21.835 -17.110  0.00  0.00    -0.285 NA
ATOM     34  C   UNL     1      29.608 -22.362 -16.273  0.00  0.00    +0.117 C 
ATOM     35  H   UNL     1      27.963 -21.552 -17.232  0.00  0.00    +0.144 HD
ATOM     36  H   UNL     1      27.584 -22.500 -15.866  0.00  0.00    +0.144 HD
ATOM     37  H   UNL     1      30.174 -21.276 -17.859  0.00  0.00    +0.188 HD
ENDBRANCH  29  34
ENDBRANCH  25  26
ENDBRANCH  20  25
ENDBRANCH   1  20
TORSDOF 9
ENDMDL
MODEL 8
REMARK VINA RESULT:     -11.1      2.439      4.956
REMARK  Name = 5496659
REMARK  9 active torsions:
REMARK  status: ('A' for Active; 'I' for Inactive)
REMARK    1  A    between atoms: C_1  and  N_4
REMARK    2  A    between atoms: C_1  and  C_20
REMARK    3  A    between atoms: C_5  and  C_7
REMARK    4  A    between atoms: C_10  and  C_15
REMARK    5  A    between atoms: C_20  and  C_22
REMARK    6  A    between atoms: C_20  and  C_25
REMARK    7  A    between atoms: C_22  and  O_23
REMARK    8  A    between atoms: C_25  and  C_26
REMARK    9  A    between atoms: C_29  and  C_34
REMARK                            x       y       z     vdW  Elec       q    Type
REMARK                         _______ _______ _______ _____ _____    ______ ____
ROOT
ATOM      1  C   UNL     1      36.514 -21.298 -15.788  0.00  0.00    +0.083 C 
ATOM      2  C   UNL     1      37.681 -22.224 -16.128  0.00  0.00    +0.022 C 
ENDROOT
BRANCH   1   4
ATOM      3  O   UNL     1      36.360 -22.325 -18.465  0.00  0.00    -0.270 OA
ATOM      4  N   UNL     1      36.092 -20.577 -16.966  0.00  0.00    -0.302 N 
ATOM      5  C   UNL     1      36.050 -21.162 -18.222  0.00  0.00    +0.246 C 
ATOM      6  H   UNL     1      35.823 -19.634 -16.873  0.00  0.00    +0.150 HD
BRANCH   5   7
ATOM      7  C   UNL     1      35.617 -20.279 -19.335  0.00  0.00    +0.053 C 
ATOM      8  C   UNL     1      36.509 -19.356 -19.881  0.00  0.00    +0.005 C 
ATOM      9  C   UNL     1      34.318 -20.371 -19.834  0.00  0.00    +0.005 C 
ATOM     10  C   UNL     1      34.803 -18.619 -21.425  0.00  0.00    +0.000 C 
ATOM     11  C   UNL     1      36.102 -18.526 -20.926  0.00  0.00    +0.000 C 
ATOM     12  C   UNL     1      33.911 -19.542 -20.878  0.00  0.00    +0.000 C 
BRANCH  10  15
ATOM     13  O   UNL     1      33.190 -15.340 -25.547  0.00  0.00    -0.163 OA
ATOM     14  N   UNL     1      33.562 -16.098 -24.594  0.00  0.00    -0.127 N 
ATOM     15  C   UNL     1      34.378 -17.758 -22.507  0.00  0.00    +0.003 C 
ATOM     16  C   UNL     1      34.611 -16.389 -22.439  0.00  0.00    +0.022 C 
ATOM     17  C   UNL     1      33.738 -18.298 -23.617  0.00  0.00    +0.022 C 
ATOM     18  C   UNL     1      34.199 -15.572 -23.486  0.00  0.00    +0.121 C 
ATOM     19  C   UNL     1      33.336 -17.460 -24.651  0.00  0.00    +0.121 C 
ENDBRANCH  10  15
ENDBRANCH   5   7
ENDBRANCH   1   4
BRANCH   1  20
ATOM     20  C   UNL     1      35.350 -22.049 -15.102  0.00  0.00    +0.121 C 
BRANCH  20  22
ATOM     21  O   UNL     1      36.251 -22.302 -12.851  0.00  0.00    -0.250 OA
ATOM     22  C   UNL     1      35.833 -22.821 -13.878  0.00  0.00    +0.319 C 
BRANCH  22  23
ATOM     23  O   UNL     1      35.729 -24.163 -14.110  0.00  0.00    -0.444 OA
ATOM     24  C   UNL     1      36.859 -24.946 -13.712  0.00  0.00    +0.256 C 
ENDBRANCH  22  23
ENDBRANCH  20  22
BRANCH  20  25
ATOM     25  C   UNL     1      34.626 -23.005 -16.073  0.00  0.00    +0.039 C 
BRANCH  25  26
ATOM     26  C   UNL     1      33.121 -22.916 -15.968  0.00  0.00    -0.021 C 
ATOM     27  C   UNL     1      32.471 -23.398 -14.832  0.00  0.00    -0.002 C 
ATOM     28  C   UNL     1      32.381 -22.354 -17.009  0.00  0.00    -0.004 C 
ATOM     29  C   UNL     1      31.082 -23.318 -14.736  0.00  0.00    +0.030 C 
ATOM     30  C   UNL     1      30.992 -22.273 -16.913  0.00  0.00    -0.000 C 
ATOM     31  C   UNL     1      30.342 -22.756 -15.777  0.00  0.00    +0.003 C 
BRANCH  29  34
ATOM     32  N   UNL     1      29.611 -24.968 -13.603  0.00  0.00    -0.343 N 
ATOM     33  N   UNL     1      30.532 -23.188 -12.401  0.00  0.00    -0.285 NA
ATOM     34  C   UNL     1      30.404 -23.822 -13.552  0.00  0.00    +0.117 C 
ATOM     35  H   UNL     1      29.162 -25.291 -12.790  0.00  0.00    +0.144 HD
ATOM     36  H   UNL     1      29.502 -25.452 -14.453  0.00  0.00    +0.144 HD
ATOM     37  H   UNL     1      30.074 -23.528 -11.598  0.00  0.00    +0.188 HD
ENDBRANCH  29  34
ENDBRANCH  25  26
ENDBRANCH  20  25
ENDBRANCH   1  20
TORSDOF 9
ENDMDL
MODEL 9
REMARK VINA RESULT:     -11.0      3.256      5.931
REMARK  Name = 5496659
REMARK  9 active torsions:
REMARK  status: ('A' for Active; 'I' for Inactive)
REMARK    1  A    between atoms: C_1  and  N_4
REMARK    2  A    between atoms: C_1  and  C_20
REMARK    3  A    between atoms: C_5  and  C_7
REMARK    4  A    between atoms: C_10  and  C_15
REMARK    5  A    between atoms: C_20  and  C_22
REMARK    6  A    between atoms: C_20  and  C_25
REMARK    7  A    between atoms: C_22  and  O_23
REMARK    8  A    between atoms: C_25  and  C_26
REMARK    9  A    between atoms: C_29  and  C_34
REMARK                            x       y       z     vdW  Elec       q    Type
REMARK                         _______ _______ _______ _____ _____    ______ ____
ROOT
ATOM      1  C   UNL     1      35.464 -20.523 -19.906  0.00  0.00    +0.083 C 
ATOM      2  C   UNL     1      34.999 -21.564 -20.923  0.00  0.00    +0.022 C 
ENDROOT
BRANCH   1   4
ATOM      3  O   UNL     1      36.687 -18.637 -21.692  0.00  0.00    -0.270 OA
ATOM      4  N   UNL     1      34.958 -19.218 -20.261  0.00  0.00    -0.302 N 
ATOM      5  C   UNL     1      35.623 -18.374 -21.137  0.00  0.00    +0.246 C 
ATOM      6  H   UNL     1      34.108 -18.916 -19.865  0.00  0.00    +0.150 HD
BRANCH   5   7
ATOM      7  C   UNL     1      34.984 -17.056 -21.378  0.00  0.00    +0.053 C 
ATOM      8  C   UNL     1      34.438 -16.339 -20.314  0.00  0.00    +0.005 C 
ATOM      9  C   UNL     1      34.929 -16.534 -22.670  0.00  0.00    +0.005 C 
ATOM     10  C   UNL     1      33.783 -14.579 -21.833  0.00  0.00    +0.000 C 
ATOM     11  C   UNL     1      33.837 -15.101 -20.540  0.00  0.00    +0.000 C 
ATOM     12  C   UNL     1      34.329 -15.296 -22.898  0.00  0.00    +0.000 C 
BRANCH  10  15
ATOM     13  O   UNL     1      31.404  -9.694 -22.741  0.00  0.00    -0.163 OA
ATOM     14  N   UNL     1      31.955 -10.823 -22.531  0.00  0.00    -0.127 N 
ATOM     15  C   UNL     1      33.159 -13.296 -22.071  0.00  0.00    +0.003 C 
ATOM     16  C   UNL     1      33.517 -12.543 -23.184  0.00  0.00    +0.022 C 
ATOM     17  C   UNL     1      32.199 -12.814 -21.187  0.00  0.00    +0.022 C 
ATOM     18  C   UNL     1      32.909 -11.312 -23.402  0.00  0.00    +0.121 C 
ATOM     19  C   UNL     1      31.606 -11.578 -21.428  0.00  0.00    +0.121 C 
ENDBRANCH  10  15
ENDBRANCH   5   7
ENDBRANCH   1   4
BRANCH   1  20
ATOM     20  C   UNL     1      35.111 -20.923 -18.455  0.00  0.00    +0.121 C 
BRANCH  20  22
ATOM     21  O   UNL     1      36.945 -19.812 -17.293  0.00  0.00    -0.250 OA
ATOM     22  C   UNL     1      36.334 -20.843 -17.545  0.00  0.00    +0.319 C 
BRANCH  22  23
ATOM     23  O   UNL     1      36.632 -22.087 -17.066  0.00  0.00    -0.444 OA
ATOM     24  C   UNL     1      37.280 -22.115 -15.790  0.00  0.00    +0.256 C 
ENDBRANCH  22  23
ENDBRANCH  20  22
BRANCH  20  25
ATOM     25  C   UNL     1      34.490 -22.333 -18.377  0.00  0.00    +0.039 C 
BRANCH  25  26
ATOM     26  C   UNL     1      33.374 -22.427 -17.363  0.00  0.00    -0.021 C 
ATOM     27  C   UNL     1      33.644 -22.872 -16.069  0.00  0.00    -0.002 C 
ATOM     28  C   UNL     1      32.074 -22.070 -17.721  0.00  0.00    -0.004 C 
ATOM     29  C   UNL     1      32.613 -22.961 -15.133  0.00  0.00    +0.030 C 
ATOM     30  C   UNL     1      31.044 -22.158 -16.786  0.00  0.00    -0.000 C 
ATOM     31  C   UNL     1      31.313 -22.604 -15.492  0.00  0.00    +0.003 C 
BRANCH  29  34
ATOM     32  N   UNL     1      33.820 -24.441 -13.546  0.00  0.00    -0.343 N 
ATOM     33  N   UNL     1      32.260 -22.889 -12.758  0.00  0.00    -0.285 NA
ATOM     34  C   UNL     1      32.893 -23.427 -13.784  0.00  0.00    +0.117 C 
ATOM     35  H   UNL     1      33.994 -24.741 -12.625  0.00  0.00    +0.144 HD
ATOM     36  H   UNL     1      34.300 -24.856 -14.298  0.00  0.00    +0.144 HD
ATOM     37  H   UNL     1      32.449 -23.204 -11.843  0.00  0.00    +0.188 HD
ENDBRANCH  29  34
ENDBRANCH  25  26
ENDBRANCH  20  25
ENDBRANCH   1  20
TORSDOF 9
ENDMDL
