MODEL 1
REMARK VINA RESULT:     -12.1      0.000      0.000
REMARK  Name = 11504295
REMARK  9 active torsions:
REMARK  status: ('A' for Active; 'I' for Inactive)
REMARK    1  A    between atoms: C_1  and  C_5
REMARK    2  A    between atoms: C_1  and  O_16
REMARK    3  A    between atoms: C_1  and  C_18
REMARK    4  A    between atoms: C_9  and  O_14
REMARK    5  A    between atoms: C_18  and  N_19
REMARK    6  A    between atoms: N_19  and  C_22
REMARK    7  A    between atoms: C_22  and  C_25
REMARK    8  A    between atoms: C_25  and  C_26
REMARK    9  A    between atoms: C_31  and  O_32
REMARK                            x       y       z     vdW  Elec       q    Type
REMARK                         _______ _______ _______ _____ _____    ______ ____
ROOT
ATOM      1  C   UNL     1      34.362 -15.289 -21.292  0.00  0.00    +0.115 C 
ENDROOT
BRANCH   1   5
ATOM      2  O   UNL     1      32.976 -12.926 -20.735  0.00  0.00    -0.465 OA
ATOM      3  O   UNL     1      31.026  -9.909 -21.128  0.00  0.00    -0.271 OA
ATOM      4  N   UNL     1      31.724 -11.385 -22.749  0.00  0.00    -0.278 N 
ATOM      5  C   UNL     1      33.692 -14.482 -22.357  0.00  0.00    +0.040 C 
ATOM      6  C   UNL     1      32.987 -13.321 -22.044  0.00  0.00    +0.151 C 
ATOM      7  C   UNL     1      33.778 -14.908 -23.683  0.00  0.00    +0.038 C 
ATOM      8  C   UNL     1      32.386 -12.577 -23.058  0.00  0.00    +0.088 C 
ATOM      9  C   UNL     1      33.171 -14.165 -24.696  0.00  0.00    +0.135 C 
ATOM     10  C   UNL     1      32.480 -12.994 -24.388  0.00  0.00    +0.054 C 
ATOM     11  C   UNL     1      31.941 -12.017 -20.412  0.00  0.00    +0.290 C 
ATOM     12  C   UNL     1      31.540 -10.980 -21.447  0.00  0.00    +0.271 C 
ATOM     13  H   UNL     1      31.381 -10.821 -23.480  0.00  0.00    +0.155 HD
BRANCH   9  14
ATOM     14  O   UNL     1      33.263 -14.580 -25.990  0.00  0.00    -0.505 OA
ATOM     15  H   UNL     1      33.247 -15.495 -26.190  0.00  0.00    +0.292 HD
ENDBRANCH   9  14
ENDBRANCH   1   5
BRANCH   1  16
ATOM     16  O   UNL     1      33.764 -14.977 -20.027  0.00  0.00    -0.382 OA
ATOM     17  H   UNL     1      33.781 -15.764 -19.459  0.00  0.00    +0.211 HD
ENDBRANCH   1  16
BRANCH   1  18
ATOM     18  C   UNL     1      34.252 -16.803 -21.556  0.00  0.00    -0.047 C 
BRANCH  18  19
ATOM     19  N   UNL     1      35.152 -17.563 -20.692  0.00  0.00    +0.388 N 
ATOM     20  H   UNL     1      35.899 -16.950 -20.365  0.00  0.00    -0.084 HD
ATOM     21  H   UNL     1      34.619 -17.926 -19.902  0.00  0.00    -0.084 HD
BRANCH  19  22
ATOM     22  C   UNL     1      35.737 -18.683 -21.414  0.00  0.00    -0.042 C 
ATOM     23  C   UNL     1      37.016 -18.168 -22.088  0.00  0.00    -0.021 C 
ATOM     24  C   UNL     1      34.724 -19.114 -22.481  0.00  0.00    -0.021 C 
BRANCH  22  25
ATOM     25  C   UNL     1      36.027 -19.809 -20.386  0.00  0.00    +0.007 C 
BRANCH  25  26
ATOM     26  C   UNL     1      34.823 -20.437 -19.723  0.00  0.00    -0.024 C 
ATOM     27  C   UNL     1      33.554 -20.042 -20.110  0.00  0.00    -0.001 C 
ATOM     28  C   UNL     1      35.014 -21.395 -18.741  0.00  0.00    -0.001 C 
ATOM     29  C   UNL     1      32.443 -20.622 -19.498  0.00  0.00    +0.037 C 
ATOM     30  C   UNL     1      33.903 -21.975 -18.129  0.00  0.00    +0.037 C 
ATOM     31  C   UNL     1      32.616 -21.588 -18.507  0.00  0.00    +0.139 C 
BRANCH  31  32
ATOM     32  O   UNL     1      31.532 -22.154 -17.911  0.00  0.00    -0.471 OA
ATOM     33  C   UNL     1      31.710 -22.663 -16.590  0.00  0.00    +0.252 C 
ENDBRANCH  31  32
ENDBRANCH  25  26
ENDBRANCH  22  25
ENDBRANCH  19  22
ENDBRANCH  18  19
ENDBRANCH   1  18
TORSDOF 9
ENDMDL
MODEL 2
REMARK VINA RESULT:     -12.0      2.995      9.366
REMARK  Name = 11504295
REMARK  9 active torsions:
REMARK  status: ('A' for Active; 'I' for Inactive)
REMARK    1  A    between atoms: C_1  and  C_5
REMARK    2  A    between atoms: C_1  and  O_16
REMARK    3  A    between atoms: C_1  and  C_18
REMARK    4  A    between atoms: C_9  and  O_14
REMARK    5  A    between atoms: C_18  and  N_19
REMARK    6  A    between atoms: N_19  and  C_22
REMARK    7  A    between atoms: C_22  and  C_25
REMARK    8  A    between atoms: C_25  and  C_26
REMARK    9  A    between atoms: C_31  and  O_32
REMARK                            x       y       z     vdW  Elec       q    Type
REMARK                         _______ _______ _______ _____ _____    ______ ____
ROOT
ATOM      1  C   UNL     1      34.317 -21.201 -19.587  0.00  0.00    +0.115 C 
ENDROOT
BRANCH   1   5
ATOM      2  O   UNL     1      32.431 -22.329 -17.861  0.00  0.00    -0.465 OA
ATOM      3  O   UNL     1      30.888 -23.817 -14.952  0.00  0.00    -0.271 OA
ATOM      4  N   UNL     1      33.081 -23.189 -15.246  0.00  0.00    -0.278 N 
ATOM      5  C   UNL     1      34.661 -21.643 -18.202  0.00  0.00    +0.040 C 
ATOM      6  C   UNL     1      33.692 -22.180 -17.356  0.00  0.00    +0.151 C 
ATOM      7  C   UNL     1      35.977 -21.511 -17.757  0.00  0.00    +0.038 C 
ATOM      8  C   UNL     1      34.043 -22.602 -16.075  0.00  0.00    +0.088 C 
ATOM      9  C   UNL     1      36.326 -21.930 -16.473  0.00  0.00    +0.135 C 
ATOM     10  C   UNL     1      35.361 -22.482 -15.630  0.00  0.00    +0.054 C 
ATOM     11  C   UNL     1      31.425 -22.476 -16.877  0.00  0.00    +0.290 C 
ATOM     12  C   UNL     1      31.757 -23.253 -15.614  0.00  0.00    +0.271 C 
ATOM     13  H   UNL     1      33.357 -23.564 -14.379  0.00  0.00    +0.155 HD
BRANCH   9  14
ATOM     14  O   UNL     1      37.613 -21.806 -16.044  0.00  0.00    -0.505 OA
ATOM     15  H   UNL     1      38.033 -22.523 -15.613  0.00  0.00    +0.292 HD
ENDBRANCH   9  14
ENDBRANCH   1   5
BRANCH   1  16
ATOM     16  O   UNL     1      33.188 -20.321 -19.527  0.00  0.00    -0.382 OA
ATOM     17  H   UNL     1      33.292 -19.711 -18.779  0.00  0.00    +0.211 HD
ENDBRANCH   1  16
BRANCH   1  18
ATOM     18  C   UNL     1      35.495 -20.484 -20.276  0.00  0.00    -0.047 C 
BRANCH  18  19
ATOM     19  N   UNL     1      35.409 -19.035 -20.112  0.00  0.00    +0.388 N 
ATOM     20  H   UNL     1      34.532 -18.802 -19.645  0.00  0.00    -0.084 HD
ATOM     21  H   UNL     1      36.203 -18.721 -19.555  0.00  0.00    -0.084 HD
BRANCH  19  22
ATOM     22  C   UNL     1      35.453 -18.365 -21.404  0.00  0.00    -0.042 C 
ATOM     23  C   UNL     1      34.650 -19.228 -22.388  0.00  0.00    -0.021 C 
ATOM     24  C   UNL     1      36.923 -18.312 -21.838  0.00  0.00    -0.021 C 
BRANCH  22  25
ATOM     25  C   UNL     1      34.839 -16.951 -21.225  0.00  0.00    +0.007 C 
BRANCH  25  26
ATOM     26  C   UNL     1      34.352 -16.268 -22.481  0.00  0.00    -0.024 C 
ATOM     27  C   UNL     1      34.077 -14.912 -22.451  0.00  0.00    -0.001 C 
ATOM     28  C   UNL     1      34.190 -17.013 -23.637  0.00  0.00    -0.001 C 
ATOM     29  C   UNL     1      33.628 -14.280 -23.612  0.00  0.00    +0.037 C 
ATOM     30  C   UNL     1      33.740 -16.382 -24.797  0.00  0.00    +0.037 C 
ATOM     31  C   UNL     1      33.459 -15.016 -24.785  0.00  0.00    +0.139 C 
BRANCH  31  32
ATOM     32  O   UNL     1      33.021 -14.400 -25.917  0.00  0.00    -0.471 OA
ATOM     33  C   UNL     1      32.722 -13.008 -25.824  0.00  0.00    +0.252 C 
ENDBRANCH  31  32
ENDBRANCH  25  26
ENDBRANCH  22  25
ENDBRANCH  19  22
ENDBRANCH  18  19
ENDBRANCH   1  18
TORSDOF 9
ENDMDL
MODEL 3
REMARK VINA RESULT:     -11.5      2.902      9.695
REMARK  Name = 11504295
REMARK  9 active torsions:
REMARK  status: ('A' for Active; 'I' for Inactive)
REMARK    1  A    between atoms: C_1  and  C_5
REMARK    2  A    between atoms: C_1  and  O_16
REMARK    3  A    between atoms: C_1  and  C_18
REMARK    4  A    between atoms: C_9  and  O_14
REMARK    5  A    between atoms: C_18  and  N_19
REMARK    6  A    between atoms: N_19  and  C_22
REMARK    7  A    between atoms: C_22  and  C_25
REMARK    8  A    between atoms: C_25  and  C_26
REMARK    9  A    between atoms: C_31  and  O_32
REMARK                            x       y       z     vdW  Elec       q    Type
REMARK                         _______ _______ _______ _____ _____    ______ ____
ROOT
ATOM      1  C   UNL     1      34.224 -22.184 -18.807  0.00  0.00    +0.115 C 
ENDROOT
BRANCH   1   5
ATOM      2  O   UNL     1      35.703 -22.369 -16.443  0.00  0.00    -0.465 OA
ATOM      3  O   UNL     1      36.584 -22.724 -12.956  0.00  0.00    -0.271 OA
ATOM      4  N   UNL     1      34.491 -22.711 -13.911  0.00  0.00    -0.278 N 
ATOM      5  C   UNL     1      33.581 -22.377 -17.472  0.00  0.00    +0.040 C 
ATOM      6  C   UNL     1      34.349 -22.490 -16.313  0.00  0.00    +0.151 C 
ATOM      7  C   UNL     1      32.190 -22.445 -17.395  0.00  0.00    +0.038 C 
ATOM      8  C   UNL     1      33.723 -22.651 -15.078  0.00  0.00    +0.088 C 
ATOM      9  C   UNL     1      31.566 -22.612 -16.158  0.00  0.00    +0.135 C 
ATOM     10  C   UNL     1      32.330 -22.709 -14.995  0.00  0.00    +0.054 C 
ATOM     11  C   UNL     1      36.440 -22.890 -15.353  0.00  0.00    +0.290 C 
ATOM     12  C   UNL     1      35.866 -22.739 -13.954  0.00  0.00    +0.271 C 
ATOM     13  H   UNL     1      34.038 -22.735 -13.037  0.00  0.00    +0.155 HD
BRANCH   9  14
ATOM     14  O   UNL     1      30.207 -22.672 -16.085  0.00  0.00    -0.505 OA
ATOM     15  H   UNL     1      29.684 -22.152 -16.663  0.00  0.00    +0.292 HD
ENDBRANCH   9  14
ENDBRANCH   1   5
BRANCH   1  16
ATOM     16  O   UNL     1      33.798 -23.234 -19.684  0.00  0.00    -0.382 OA
ATOM     17  H   UNL     1      33.940 -22.963 -20.605  0.00  0.00    +0.211 HD
ENDBRANCH   1  16
BRANCH   1  18
ATOM     18  C   UNL     1      33.874 -20.818 -19.428  0.00  0.00    -0.047 C 
BRANCH  18  19
ATOM     19  N   UNL     1      34.964 -20.311 -20.257  0.00  0.00    +0.388 N 
ATOM     20  H   UNL     1      35.694 -19.931 -19.653  0.00  0.00    -0.084 HD
ATOM     21  H   UNL     1      35.332 -21.078 -20.819  0.00  0.00    -0.084 HD
BRANCH  19  22
ATOM     22  C   UNL     1      34.491 -19.264 -21.149  0.00  0.00    -0.042 C 
ATOM     23  C   UNL     1      32.972 -19.158 -20.958  0.00  0.00    -0.021 C 
ATOM     24  C   UNL     1      34.805 -19.712 -22.582  0.00  0.00    -0.021 C 
BRANCH  22  25
ATOM     25  C   UNL     1      35.225 -17.950 -20.768  0.00  0.00    +0.007 C 
BRANCH  25  26
ATOM     26  C   UNL     1      34.738 -16.690 -21.445  0.00  0.00    -0.024 C 
ATOM     27  C   UNL     1      34.237 -15.657 -20.673  0.00  0.00    -0.001 C 
ATOM     28  C   UNL     1      34.804 -16.595 -22.826  0.00  0.00    -0.001 C 
ATOM     29  C   UNL     1      33.788 -14.493 -21.298  0.00  0.00    +0.037 C 
ATOM     30  C   UNL     1      34.354 -15.432 -23.450  0.00  0.00    +0.037 C 
ATOM     31  C   UNL     1      33.847 -14.380 -22.686  0.00  0.00    +0.139 C 
BRANCH  31  32
ATOM     32  O   UNL     1      33.409 -13.245 -23.296  0.00  0.00    -0.471 OA
ATOM     33  C   UNL     1      32.481 -12.436 -22.573  0.00  0.00    +0.252 C 
ENDBRANCH  31  32
ENDBRANCH  25  26
ENDBRANCH  22  25
ENDBRANCH  19  22
ENDBRANCH  18  19
ENDBRANCH   1  18
TORSDOF 9
ENDMDL
MODEL 4
REMARK VINA RESULT:     -11.3      3.958     10.245
REMARK  Name = 11504295
REMARK  9 active torsions:
REMARK  status: ('A' for Active; 'I' for Inactive)
REMARK    1  A    between atoms: C_1  and  C_5
REMARK    2  A    between atoms: C_1  and  O_16
REMARK    3  A    between atoms: C_1  and  C_18
REMARK    4  A    between atoms: C_9  and  O_14
REMARK    5  A    between atoms: C_18  and  N_19
REMARK    6  A    between atoms: N_19  and  C_22
REMARK    7  A    between atoms: C_22  and  C_25
REMARK    8  A    between atoms: C_25  and  C_26
REMARK    9  A    between atoms: C_31  and  O_32
REMARK                            x       y       z     vdW  Elec       q    Type
REMARK                         _______ _______ _______ _____ _____    ______ ____
ROOT
ATOM      1  C   UNL     1      36.346 -20.944 -16.508  0.00  0.00    +0.115 C 
ENDROOT
BRANCH   1   5
ATOM      2  O   UNL     1      34.131 -22.284 -15.455  0.00  0.00    -0.465 OA
ATOM      3  O   UNL     1      32.081 -24.679 -13.689  0.00  0.00    -0.271 OA
ATOM      4  N   UNL     1      34.371 -24.634 -13.901  0.00  0.00    -0.278 N 
ATOM      5  C   UNL     1      36.477 -22.179 -15.678  0.00  0.00    +0.040 C 
ATOM      6  C   UNL     1      35.354 -22.811 -15.146  0.00  0.00    +0.151 C 
ATOM      7  C   UNL     1      37.749 -22.699 -15.435  0.00  0.00    +0.038 C 
ATOM      8  C   UNL     1      35.502 -23.972 -14.389  0.00  0.00    +0.088 C 
ATOM      9  C   UNL     1      37.895 -23.859 -14.673  0.00  0.00    +0.135 C 
ATOM     10  C   UNL     1      36.772 -24.503 -14.154  0.00  0.00    +0.054 C 
ATOM     11  C   UNL     1      33.090 -22.686 -14.587  0.00  0.00    +0.290 C 
ATOM     12  C   UNL     1      33.109 -24.104 -14.041  0.00  0.00    +0.271 C 
ATOM     13  H   UNL     1      34.480 -25.500 -13.445  0.00  0.00    +0.155 HD
BRANCH   9  14
ATOM     14  O   UNL     1      39.137 -24.368 -14.443  0.00  0.00    -0.505 OA
ATOM     15  H   UNL     1      39.897 -23.874 -14.681  0.00  0.00    +0.292 HD
ENDBRANCH   9  14
ENDBRANCH   1   5
BRANCH   1  16
ATOM     16  O   UNL     1      37.578 -20.213 -16.452  0.00  0.00    -0.382 OA
ATOM     17  H   UNL     1      38.093 -20.506 -15.683  0.00  0.00    +0.211 HD
ENDBRANCH   1  16
BRANCH   1  18
ATOM     18  C   UNL     1      36.004 -21.265 -17.976  0.00  0.00    -0.047 C 
BRANCH  18  19
ATOM     19  N   UNL     1      34.593 -21.017 -18.263  0.00  0.00    +0.388 N 
ATOM     20  H   UNL     1      34.037 -21.793 -17.903  0.00  0.00    -0.084 HD
ATOM     21  H   UNL     1      34.317 -20.144 -17.816  0.00  0.00    -0.084 HD
BRANCH  19  22
ATOM     22  C   UNL     1      34.371 -20.898 -19.696  0.00  0.00    -0.042 C 
ATOM     23  C   UNL     1      32.974 -20.291 -19.889  0.00  0.00    -0.021 C 
ATOM     24  C   UNL     1      34.407 -22.316 -20.280  0.00  0.00    -0.021 C 
BRANCH  22  25
ATOM     25  C   UNL     1      35.491 -19.993 -20.276  0.00  0.00    +0.007 C 
BRANCH  25  26
ATOM     26  C   UNL     1      35.059 -18.955 -21.284  0.00  0.00    -0.024 C 
ATOM     27  C   UNL     1      35.232 -17.613 -20.991  0.00  0.00    -0.001 C 
ATOM     28  C   UNL     1      34.496 -19.366 -22.481  0.00  0.00    -0.001 C 
ATOM     29  C   UNL     1      34.834 -16.653 -21.922  0.00  0.00    +0.037 C 
ATOM     30  C   UNL     1      34.097 -18.406 -23.412  0.00  0.00    +0.037 C 
ATOM     31  C   UNL     1      34.266 -17.050 -23.132  0.00  0.00    +0.139 C 
BRANCH  31  32
ATOM     32  O   UNL     1      33.877 -16.114 -24.040  0.00  0.00    -0.471 OA
ATOM     33  C   UNL     1      33.709 -14.779 -23.565  0.00  0.00    +0.252 C 
ENDBRANCH  31  32
ENDBRANCH  25  26
ENDBRANCH  22  25
ENDBRANCH  19  22
ENDBRANCH  18  19
ENDBRANCH   1  18
TORSDOF 9
ENDMDL
MODEL 5
REMARK VINA RESULT:     -11.2      5.680     11.918
REMARK  Name = 11504295
REMARK  9 active torsions:
REMARK  status: ('A' for Active; 'I' for Inactive)
REMARK    1  A    between atoms: C_1  and  C_5
REMARK    2  A    between atoms: C_1  and  O_16
REMARK    3  A    between atoms: C_1  and  C_18
REMARK    4  A    between atoms: C_9  and  O_14
REMARK    5  A    between atoms: C_18  and  N_19
REMARK    6  A    between atoms: N_19  and  C_22
REMARK    7  A    between atoms: C_22  and  C_25
REMARK    8  A    between atoms: C_25  and  C_26
REMARK    9  A    between atoms: C_31  and  O_32
REMARK                            x       y       z     vdW  Elec       q    Type
REMARK                         _______ _______ _______ _____ _____    ______ ____
ROOT
ATOM      1  C   UNL     1      36.666 -22.088 -14.841  0.00  0.00    +0.115 C 
ENDROOT
BRANCH   1   5
ATOM      2  O   UNL     1      38.858 -23.818 -14.715  0.00  0.00    -0.465 OA
ATOM      3  O   UNL     1      41.058 -26.515 -13.745  0.00  0.00    -0.271 OA
ATOM      4  N   UNL     1      39.003 -25.959 -12.874  0.00  0.00    -0.278 N 
ATOM      5  C   UNL     1      36.735 -23.225 -13.875  0.00  0.00    +0.040 C 
ATOM      6  C   UNL     1      37.832 -24.086 -13.853  0.00  0.00    +0.151 C 
ATOM      7  C   UNL     1      35.679 -23.421 -12.984  0.00  0.00    +0.038 C 
ATOM      8  C   UNL     1      37.880 -25.129 -12.930  0.00  0.00    +0.088 C 
ATOM      9  C   UNL     1      35.726 -24.468 -12.064  0.00  0.00    +0.135 C 
ATOM     10  C   UNL     1      36.829 -25.322 -12.029  0.00  0.00    +0.054 C 
ATOM     11  C   UNL     1      39.722 -24.913 -14.947  0.00  0.00    +0.290 C 
ATOM     12  C   UNL     1      40.022 -25.855 -13.793  0.00  0.00    +0.271 C 
ATOM     13  H   UNL     1      39.067 -26.636 -12.161  0.00  0.00    +0.155 HD
BRANCH   9  14
ATOM     14  O   UNL     1      34.696 -24.653 -11.192  0.00  0.00    -0.505 OA
ATOM     15  H   UNL     1      34.124 -25.388 -11.292  0.00  0.00    +0.292 HD
ENDBRANCH   9  14
ENDBRANCH   1   5
BRANCH   1  16
ATOM     16  O   UNL     1      37.285 -22.484 -16.071  0.00  0.00    -0.382 OA
ATOM     17  H   UNL     1      38.115 -22.949 -15.881  0.00  0.00    +0.211 HD
ENDBRANCH   1  16
BRANCH   1  18
ATOM     18  C   UNL     1      35.216 -21.643 -15.112  0.00  0.00    -0.047 C 
BRANCH  18  19
ATOM     19  N   UNL     1      34.784 -22.016 -16.457  0.00  0.00    +0.388 N 
ATOM     20  H   UNL     1      34.583 -21.170 -16.991  0.00  0.00    -0.084 HD
ATOM     21  H   UNL     1      35.529 -22.550 -16.903  0.00  0.00    -0.084 HD
BRANCH  19  22
ATOM     22  C   UNL     1      33.586 -22.841 -16.404  0.00  0.00    -0.042 C 
ATOM     23  C   UNL     1      32.693 -22.271 -15.293  0.00  0.00    -0.021 C 
ATOM     24  C   UNL     1      34.029 -24.263 -16.037  0.00  0.00    -0.021 C 
BRANCH  22  25
ATOM     25  C   UNL     1      32.905 -22.776 -17.797  0.00  0.00    +0.007 C 
BRANCH  25  26
ATOM     26  C   UNL     1      33.434 -21.733 -18.754  0.00  0.00    -0.024 C 
ATOM     27  C   UNL     1      32.545 -20.880 -19.385  0.00  0.00    -0.001 C 
ATOM     28  C   UNL     1      34.799 -21.651 -18.980  0.00  0.00    -0.001 C 
ATOM     29  C   UNL     1      33.034 -19.916 -20.267  0.00  0.00    +0.037 C 
ATOM     30  C   UNL     1      35.287 -20.688 -19.863  0.00  0.00    +0.037 C 
ATOM     31  C   UNL     1      34.405 -19.820 -20.507  0.00  0.00    +0.139 C 
BRANCH  31  32
ATOM     32  O   UNL     1      34.881 -18.880 -21.368  0.00  0.00    -0.471 OA
ATOM     33  C   UNL     1      36.223 -18.440 -21.171  0.00  0.00    +0.252 C 
ENDBRANCH  31  32
ENDBRANCH  25  26
ENDBRANCH  22  25
ENDBRANCH  19  22
ENDBRANCH  18  19
ENDBRANCH   1  18
TORSDOF 9
ENDMDL
MODEL 6
REMARK VINA RESULT:     -11.1      4.176     10.554
REMARK  Name = 11504295
REMARK  9 active torsions:
REMARK  status: ('A' for Active; 'I' for Inactive)
REMARK    1  A    between atoms: C_1  and  C_5
REMARK    2  A    between atoms: C_1  and  O_16
REMARK    3  A    between atoms: C_1  and  C_18
REMARK    4  A    between atoms: C_9  and  O_14
REMARK    5  A    between atoms: C_18  and  N_19
REMARK    6  A    between atoms: N_19  and  C_22
REMARK    7  A    between atoms: C_22  and  C_25
REMARK    8  A    between atoms: C_25  and  C_26
REMARK    9  A    between atoms: C_31  and  O_32
REMARK                            x       y       z     vdW  Elec       q    Type
REMARK                         _______ _______ _______ _____ _____    ______ ____
ROOT
ATOM      1  C   UNL     1      35.821 -21.834 -16.292  0.00  0.00    +0.115 C 
ENDROOT
BRANCH   1   5
ATOM      2  O   UNL     1      36.609 -22.593 -13.721  0.00  0.00    -0.465 OA
ATOM      3  O   UNL     1      36.559 -23.921 -10.360  0.00  0.00    -0.271 OA
ATOM      4  N   UNL     1      34.841 -23.820 -11.886  0.00  0.00    -0.278 N 
ATOM      5  C   UNL     1      34.887 -22.492 -15.329  0.00  0.00    +0.040 C 
ATOM      6  C   UNL     1      35.318 -22.882 -14.061  0.00  0.00    +0.151 C 
ATOM      7  C   UNL     1      33.566 -22.717 -15.715  0.00  0.00    +0.038 C 
ATOM      8  C   UNL     1      34.422 -23.478 -13.175  0.00  0.00    +0.088 C 
ATOM      9  C   UNL     1      32.672 -23.319 -14.829  0.00  0.00    +0.135 C 
ATOM     10  C   UNL     1      33.095 -23.694 -13.554  0.00  0.00    +0.054 C 
ATOM     11  C   UNL     1      37.106 -23.351 -12.634  0.00  0.00    +0.290 C 
ATOM     12  C   UNL     1      36.156 -23.697 -11.500  0.00  0.00    +0.271 C 
ATOM     13  H   UNL     1      34.180 -24.157 -11.238  0.00  0.00    +0.155 HD
BRANCH   9  14
ATOM     14  O   UNL     1      31.380 -23.531 -15.206  0.00  0.00    -0.505 OA
ATOM     15  H   UNL     1      31.111 -23.340 -16.082  0.00  0.00    +0.292 HD
ENDBRANCH   9  14
ENDBRANCH   1   5
BRANCH   1  16
ATOM     16  O   UNL     1      37.017 -22.617 -16.390  0.00  0.00    -0.382 OA
ATOM     17  H   UNL     1      37.778 -22.030 -16.526  0.00  0.00    +0.211 HD
ENDBRANCH   1  16
BRANCH   1  18
ATOM     18  C   UNL     1      35.194 -21.673 -17.691  0.00  0.00    -0.047 C 
BRANCH  18  19
ATOM     19  N   UNL     1      35.742 -20.516 -18.394  0.00  0.00    +0.388 N 
ATOM     20  H   UNL     1      35.447 -19.664 -17.916  0.00  0.00    -0.084 HD
ATOM     21  H   UNL     1      36.759 -20.587 -18.397  0.00  0.00    -0.084 HD
BRANCH  19  22
ATOM     22  C   UNL     1      35.273 -20.478 -19.770  0.00  0.00    -0.042 C 
ATOM     23  C   UNL     1      33.764 -20.195 -19.726  0.00  0.00    -0.021 C 
ATOM     24  C   UNL     1      35.524 -21.865 -20.375  0.00  0.00    -0.021 C 
BRANCH  22  25
ATOM     25  C   UNL     1      36.059 -19.362 -20.508  0.00  0.00    +0.007 C 
BRANCH  25  26
ATOM     26  C   UNL     1      35.319 -18.633 -21.605  0.00  0.00    -0.024 C 
ATOM     27  C   UNL     1      35.183 -17.257 -21.533  0.00  0.00    -0.001 C 
ATOM     28  C   UNL     1      34.790 -19.357 -22.661  0.00  0.00    -0.001 C 
ATOM     29  C   UNL     1      34.500 -16.585 -22.547  0.00  0.00    +0.037 C 
ATOM     30  C   UNL     1      34.107 -18.685 -23.674  0.00  0.00    +0.037 C 
ATOM     31  C   UNL     1      33.961 -17.298 -23.617  0.00  0.00    +0.139 C 
BRANCH  31  32
ATOM     32  O   UNL     1      33.295 -16.642 -24.606  0.00  0.00    -0.471 OA
ATOM     33  C   UNL     1      33.571 -15.251 -24.762  0.00  0.00    +0.252 C 
ENDBRANCH  31  32
ENDBRANCH  25  26
ENDBRANCH  22  25
ENDBRANCH  19  22
ENDBRANCH  18  19
ENDBRANCH   1  18
TORSDOF 9
ENDMDL
MODEL 7
REMARK VINA RESULT:     -11.0      4.927     11.175
REMARK  Name = 11504295
REMARK  9 active torsions:
REMARK  status: ('A' for Active; 'I' for Inactive)
REMARK    1  A    between atoms: C_1  and  C_5
REMARK    2  A    between atoms: C_1  and  O_16
REMARK    3  A    between atoms: C_1  and  C_18
REMARK    4  A    between atoms: C_9  and  O_14
REMARK    5  A    between atoms: C_18  and  N_19
REMARK    6  A    between atoms: N_19  and  C_22
REMARK    7  A    between atoms: C_22  and  C_25
REMARK    8  A    between atoms: C_25  and  C_26
REMARK    9  A    between atoms: C_31  and  O_32
REMARK                            x       y       z     vdW  Elec       q    Type
REMARK                         _______ _______ _______ _____ _____    ______ ____
ROOT
ATOM      1  C   UNL     1      36.097 -21.570 -15.771  0.00  0.00    +0.115 C 
ENDROOT
BRANCH   1   5
ATOM      2  O   UNL     1      38.270 -23.218 -15.162  0.00  0.00    -0.465 OA
ATOM      3  O   UNL     1      40.314 -25.813 -13.696  0.00  0.00    -0.271 OA
ATOM      4  N   UNL     1      38.110 -25.312 -13.268  0.00  0.00    -0.278 N 
ATOM      5  C   UNL     1      36.006 -22.683 -14.778  0.00  0.00    +0.040 C 
ATOM      6  C   UNL     1      37.102 -23.504 -14.514  0.00  0.00    +0.151 C 
ATOM      7  C   UNL     1      34.799 -22.897 -14.110  0.00  0.00    +0.038 C 
ATOM      8  C   UNL     1      36.996 -24.523 -13.570  0.00  0.00    +0.088 C 
ATOM      9  C   UNL     1      34.694 -23.921 -13.170  0.00  0.00    +0.135 C 
ATOM     10  C   UNL     1      35.793 -24.733 -12.891  0.00  0.00    +0.054 C 
ATOM     11  C   UNL     1      39.197 -24.286 -15.185  0.00  0.00    +0.290 C 
ATOM     12  C   UNL     1      39.289 -25.191 -13.968  0.00  0.00    +0.271 C 
ATOM     13  H   UNL     1      38.051 -25.969 -12.537  0.00  0.00    +0.155 HD
BRANCH   9  14
ATOM     14  O   UNL     1      33.516 -24.124 -12.515  0.00  0.00    -0.505 OA
ATOM     15  H   UNL     1      32.784 -24.489 -12.970  0.00  0.00    +0.292 HD
ENDBRANCH   9  14
ENDBRANCH   1   5
BRANCH   1  16
ATOM     16  O   UNL     1      37.426 -21.036 -15.751  0.00  0.00    -0.382 OA
ATOM     17  H   UNL     1      37.869 -21.240 -16.590  0.00  0.00    +0.211 HD
ENDBRANCH   1  16
BRANCH   1  18
ATOM     18  C   UNL     1      35.749 -22.036 -17.198  0.00  0.00    -0.047 C 
BRANCH  18  19
ATOM     19  N   UNL     1      34.331 -21.845 -17.493  0.00  0.00    +0.388 N 
ATOM     20  H   UNL     1      33.812 -22.669 -17.187  0.00  0.00    -0.084 HD
ATOM     21  H   UNL     1      34.003 -21.015 -17.000  0.00  0.00    -0.084 HD
BRANCH  19  22
ATOM     22  C   UNL     1      34.121 -21.654 -18.920  0.00  0.00    -0.042 C 
ATOM     23  C   UNL     1      32.899 -20.739 -19.080  0.00  0.00    -0.021 C 
ATOM     24  C   UNL     1      33.821 -23.032 -19.523  0.00  0.00    -0.021 C 
BRANCH  22  25
ATOM     25  C   UNL     1      35.411 -21.022 -19.508  0.00  0.00    +0.007 C 
BRANCH  25  26
ATOM     26  C   UNL     1      35.214 -19.905 -20.506  0.00  0.00    -0.024 C 
ATOM     27  C   UNL     1      36.146 -18.882 -20.571  0.00  0.00    -0.001 C 
ATOM     28  C   UNL     1      34.106 -19.927 -21.337  0.00  0.00    -0.001 C 
ATOM     29  C   UNL     1      35.965 -17.852 -21.493  0.00  0.00    +0.037 C 
ATOM     30  C   UNL     1      33.925 -18.896 -22.259  0.00  0.00    +0.037 C 
ATOM     31  C   UNL     1      34.855 -17.858 -22.337  0.00  0.00    +0.139 C 
BRANCH  31  32
ATOM     32  O   UNL     1      34.678 -16.852 -23.237  0.00  0.00    -0.471 OA
ATOM     33  C   UNL     1      34.484 -15.539 -22.713  0.00  0.00    +0.252 C 
ENDBRANCH  31  32
ENDBRANCH  25  26
ENDBRANCH  22  25
ENDBRANCH  19  22
ENDBRANCH  18  19
ENDBRANCH   1  18
TORSDOF 9
ENDMDL
MODEL 8
REMARK VINA RESULT:     -10.9      4.676      7.809
REMARK  Name = 11504295
REMARK  9 active torsions:
REMARK  status: ('A' for Active; 'I' for Inactive)
REMARK    1  A    between atoms: C_1  and  C_5
REMARK    2  A    between atoms: C_1  and  O_16
REMARK    3  A    between atoms: C_1  and  C_18
REMARK    4  A    between atoms: C_9  and  O_14
REMARK    5  A    between atoms: C_18  and  N_19
REMARK    6  A    between atoms: N_19  and  C_22
REMARK    7  A    between atoms: C_22  and  C_25
REMARK    8  A    between atoms: C_25  and  C_26
REMARK    9  A    between atoms: C_31  and  O_32
REMARK                            x       y       z     vdW  Elec       q    Type
REMARK                         _______ _______ _______ _____ _____    ______ ____
ROOT
ATOM      1  C   UNL     1      36.346 -21.276 -17.454  0.00  0.00    +0.115 C 
ENDROOT
BRANCH   1   5
ATOM      2  O   UNL     1      36.345 -19.778 -19.813  0.00  0.00    -0.465 OA
ATOM      3  O   UNL     1      35.263 -18.151 -22.853  0.00  0.00    -0.271 OA
ATOM      4  N   UNL     1      34.034 -19.456 -21.411  0.00  0.00    -0.278 N 
ATOM      5  C   UNL     1      35.121 -21.099 -18.290  0.00  0.00    +0.040 C 
ATOM      6  C   UNL     1      35.147 -20.324 -19.450  0.00  0.00    +0.151 C 
ATOM      7  C   UNL     1      33.936 -21.720 -17.895  0.00  0.00    +0.038 C 
ATOM      8  C   UNL     1      33.994 -20.189 -20.222  0.00  0.00    +0.088 C 
ATOM      9  C   UNL     1      32.782 -21.580 -18.666  0.00  0.00    +0.135 C 
ATOM     10  C   UNL     1      32.809 -20.819 -19.835  0.00  0.00    +0.054 C 
ATOM     11  C   UNL     1      36.239 -18.699 -20.722  0.00  0.00    +0.290 C 
ATOM     12  C   UNL     1      35.157 -18.754 -21.787  0.00  0.00    +0.271 C 
ATOM     13  H   UNL     1      33.241 -19.440 -21.994  0.00  0.00    +0.155 HD
BRANCH   9  14
ATOM     14  O   UNL     1      31.629 -22.193 -18.281  0.00  0.00    -0.505 OA
ATOM     15  H   UNL     1      31.382 -23.010 -18.667  0.00  0.00    +0.292 HD
ENDBRANCH   9  14
ENDBRANCH   1   5
BRANCH   1  16
ATOM     16  O   UNL     1      37.052 -20.031 -17.392  0.00  0.00    -0.382 OA
ATOM     17  H   UNL     1      36.846 -19.584 -16.556  0.00  0.00    +0.211 HD
ENDBRANCH   1  16
BRANCH   1  18
ATOM     18  C   UNL     1      36.012 -21.752 -16.027  0.00  0.00    -0.047 C 
BRANCH  18  19
ATOM     19  N   UNL     1      36.526 -23.096 -15.776  0.00  0.00    +0.388 N 
ATOM     20  H   UNL     1      36.339 -23.683 -16.590  0.00  0.00    -0.084 HD
ATOM     21  H   UNL     1      37.528 -23.036 -15.603  0.00  0.00    -0.084 HD
BRANCH  19  22
ATOM     22  C   UNL     1      35.885 -23.684 -14.609  0.00  0.00    -0.042 C 
ATOM     23  C   UNL     1      36.976 -23.885 -13.547  0.00  0.00    -0.021 C 
ATOM     24  C   UNL     1      35.322 -25.045 -15.039  0.00  0.00    -0.021 C 
BRANCH  22  25
ATOM     25  C   UNL     1      34.775 -22.709 -14.136  0.00  0.00    +0.007 C 
BRANCH  25  26
ATOM     26  C   UNL     1      33.368 -23.257 -14.111  0.00  0.00    -0.024 C 
ATOM     27  C   UNL     1      32.470 -22.863 -15.089  0.00  0.00    -0.001 C 
ATOM     28  C   UNL     1      33.003 -24.141 -13.110  0.00  0.00    -0.001 C 
ATOM     29  C   UNL     1      31.171 -23.370 -15.067  0.00  0.00    +0.037 C 
ATOM     30  C   UNL     1      31.703 -24.647 -13.087  0.00  0.00    +0.037 C 
ATOM     31  C   UNL     1      30.787 -24.261 -14.066  0.00  0.00    +0.139 C 
BRANCH  31  32
ATOM     32  O   UNL     1      29.519 -24.755 -14.044  0.00  0.00    -0.471 OA
ATOM     33  C   UNL     1      28.632 -24.312 -15.071  0.00  0.00    +0.252 C 
ENDBRANCH  31  32
ENDBRANCH  25  26
ENDBRANCH  22  25
ENDBRANCH  19  22
ENDBRANCH  18  19
ENDBRANCH   1  18
TORSDOF 9
ENDMDL
MODEL 9
REMARK VINA RESULT:     -10.8      5.493     11.476
REMARK  Name = 11504295
REMARK  9 active torsions:
REMARK  status: ('A' for Active; 'I' for Inactive)
REMARK    1  A    between atoms: C_1  and  C_5
REMARK    2  A    between atoms: C_1  and  O_16
REMARK    3  A    between atoms: C_1  and  C_18
REMARK    4  A    between atoms: C_9  and  O_14
REMARK    5  A    between atoms: C_18  and  N_19
REMARK    6  A    between atoms: N_19  and  C_22
REMARK    7  A    between atoms: C_22  and  C_25
REMARK    8  A    between atoms: C_25  and  C_26
REMARK    9  A    between atoms: C_31  and  O_32
REMARK                            x       y       z     vdW  Elec       q    Type
REMARK                         _______ _______ _______ _____ _____    ______ ____
ROOT
ATOM      1  C   UNL     1      36.931 -22.009 -15.236  0.00  0.00    +0.115 C 
ENDROOT
BRANCH   1   5
ATOM      2  O   UNL     1      35.757 -22.907 -12.864  0.00  0.00    -0.465 OA
ATOM      3  O   UNL     1      35.057 -24.832  -9.887  0.00  0.00    -0.271 OA
ATOM      4  N   UNL     1      36.696 -25.177 -11.464  0.00  0.00    -0.278 N 
ATOM      5  C   UNL     1      37.437 -23.202 -14.493  0.00  0.00    +0.040 C 
ATOM      6  C   UNL     1      36.844 -23.611 -13.298  0.00  0.00    +0.151 C 
ATOM      7  C   UNL     1      38.521 -23.912 -15.010  0.00  0.00    +0.038 C 
ATOM      8  C   UNL     1      37.324 -24.738 -12.634  0.00  0.00    +0.088 C 
ATOM      9  C   UNL     1      39.003 -25.037 -14.340  0.00  0.00    +0.135 C 
ATOM     10  C   UNL     1      38.402 -25.457 -13.154  0.00  0.00    +0.054 C 
ATOM     11  C   UNL     1      35.460 -23.084 -11.493  0.00  0.00    +0.290 C 
ATOM     12  C   UNL     1      35.684 -24.454 -10.875  0.00  0.00    +0.271 C 
ATOM     13  H   UNL     1      36.985 -26.023 -11.051  0.00  0.00    +0.155 HD
BRANCH   9  14
ATOM     14  O   UNL     1      40.058 -25.731 -14.851  0.00  0.00    -0.505 OA
ATOM     15  H   UNL     1      40.895 -25.318 -14.931  0.00  0.00    +0.292 HD
ENDBRANCH   9  14
ENDBRANCH   1   5
BRANCH   1  16
ATOM     16  O   UNL     1      37.274 -22.144 -16.621  0.00  0.00    -0.382 OA
ATOM     17  H   UNL     1      36.768 -21.502 -17.144  0.00  0.00    +0.211 HD
ENDBRANCH   1  16
BRANCH   1  18
ATOM     18  C   UNL     1      35.405 -21.842 -15.097  0.00  0.00    -0.047 C 
BRANCH  18  19
ATOM     19  N   UNL     1      34.742 -21.871 -16.398  0.00  0.00    +0.388 N 
ATOM     20  H   UNL     1      34.372 -20.943 -16.605  0.00  0.00    -0.084 HD
ATOM     21  H   UNL     1      35.421 -22.148 -17.105  0.00  0.00    -0.084 HD
BRANCH  19  22
ATOM     22  C   UNL     1      33.648 -22.831 -16.399  0.00  0.00    -0.042 C 
ATOM     23  C   UNL     1      32.565 -22.284 -15.459  0.00  0.00    -0.021 C 
ATOM     24  C   UNL     1      34.201 -24.149 -15.844  0.00  0.00    -0.021 C 
BRANCH  22  25
ATOM     25  C   UNL     1      33.143 -22.971 -17.860  0.00  0.00    +0.007 C 
BRANCH  25  26
ATOM     26  C   UNL     1      33.479 -21.835 -18.797  0.00  0.00    -0.024 C 
ATOM     27  C   UNL     1      32.459 -21.038 -19.288  0.00  0.00    -0.001 C 
ATOM     28  C   UNL     1      34.801 -21.614 -19.147  0.00  0.00    -0.001 C 
ATOM     29  C   UNL     1      32.769 -19.988 -20.152  0.00  0.00    +0.037 C 
ATOM     30  C   UNL     1      35.110 -20.564 -20.012  0.00  0.00    +0.037 C 
ATOM     31  C   UNL     1      34.094 -19.751 -20.515  0.00  0.00    +0.139 C 
BRANCH  31  32
ATOM     32  O   UNL     1      34.396 -18.727 -21.359  0.00  0.00    -0.471 OA
ATOM     33  C   UNL     1      35.715 -18.189 -21.281  0.00  0.00    +0.252 C 
ENDBRANCH  31  32
ENDBRANCH  25  26
ENDBRANCH  22  25
ENDBRANCH  19  22
ENDBRANCH  18  19
ENDBRANCH   1  18
TORSDOF 9
ENDMDL
