MODEL 1
REMARK VINA RESULT:     -11.6      0.000      0.000
REMARK  Name = 219095
REMARK  7 active torsions:
REMARK  status: ('A' for Active; 'I' for Inactive)
REMARK    1  A    between atoms: C_7  and  C_29
REMARK    2  A    between atoms: C_8  and  O_21
REMARK    3  A    between atoms: C_9  and  C_16
REMARK    4  A    between atoms: C_16  and  O_17
REMARK    5  A    between atoms: O_17  and  C_18
REMARK    6  A    between atoms: O_21  and  C_23
REMARK    7  A    between atoms: C_29  and  O_30
REMARK                            x       y       z     vdW  Elec       q    Type
REMARK                         _______ _______ _______ _____ _____    ______ ____
ROOT
ATOM      1  N   UNL     1      32.082 -23.491 -13.180  0.00  0.00    -0.355 N 
ATOM      2  N   UNL     1      35.503 -23.691 -11.818  0.00  0.00    -0.261 NA
ATOM      3  C   UNL     1      34.065 -23.197 -14.159  0.00  0.00    +0.003 A 
ATOM      4  C   UNL     1      33.038 -23.006 -15.136  0.00  0.00    +0.048 A 
ATOM      5  C   UNL     1      33.436 -23.498 -12.950  0.00  0.00    +0.055 A 
ATOM      6  C   UNL     1      31.812 -23.195 -14.496  0.00  0.00    +0.059 A 
ATOM      7  C   UNL     1      35.466 -23.145 -14.187  0.00  0.00    +0.099 C 
ATOM      8  C   UNL     1      33.038 -22.688 -16.511  0.00  0.00    +0.146 C 
ATOM      9  C   UNL     1      36.117 -23.401 -12.987  0.00  0.00    +0.136 C 
ATOM     10  C   UNL     1      34.152 -23.744 -11.786  0.00  0.00    +0.168 C 
ATOM     11  C   UNL     1      30.585 -23.082 -15.161  0.00  0.00    +0.017 C 
ATOM     12  C   UNL     1      31.820 -22.572 -17.188  0.00  0.00    +0.038 C 
ATOM     13  C   UNL     1      30.612 -22.767 -16.522  0.00  0.00    +0.005 C 
ATOM     14  H   UNL     1      31.397 -23.672 -12.495  0.00  0.00    +0.166 HD
ENDROOT
BRANCH   9  16
ATOM     15  O   UNL     1      38.206 -22.815 -11.999  0.00  0.00    -0.244 OA
ATOM     16  C   UNL     1      37.571 -23.374 -12.901  0.00  0.00    +0.355 C 
BRANCH  16  17
ATOM     17  O   UNL     1      38.147 -24.047 -13.942  0.00  0.00    -0.448 OA
BRANCH  17  18
ATOM     18  C   UNL     1      38.565 -25.393 -13.686  0.00  0.00    +0.169 C 
ATOM     19  C   UNL     1      39.959 -25.602 -14.257  0.00  0.00    +0.047 C 
ATOM     20  C   UNL     1      37.554 -26.354 -14.289  0.00  0.00    +0.047 C 
ENDBRANCH  17  18
ENDBRANCH  16  17
ENDBRANCH   9  16
BRANCH   8  21
ATOM     21  O   UNL     1      34.189 -22.486 -17.227  0.00  0.00    -0.453 OA
BRANCH  21  23
ATOM     22 CL   UNL     1      33.875 -18.952 -21.905  0.00  0.00    -0.082 Cl
ATOM     23  C   UNL     1      34.115 -21.653 -18.326  0.00  0.00    +0.145 C 
ATOM     24  C   UNL     1      32.872 -21.279 -18.809  0.00  0.00    +0.038 C 
ATOM     25  C   UNL     1      35.285 -21.213 -18.922  0.00  0.00    +0.038 C 
ATOM     26  C   UNL     1      32.797 -20.439 -19.921  0.00  0.00    +0.015 C 
ATOM     27  C   UNL     1      35.210 -20.373 -20.034  0.00  0.00    +0.015 C 
ATOM     28  C   UNL     1      33.967 -19.986 -20.533  0.00  0.00    +0.058 C 
ENDBRANCH  21  23
ENDBRANCH   8  21
BRANCH   7  29
ATOM     29  C   UNL     1      36.277 -22.836 -15.404  0.00  0.00    +0.153 C 
BRANCH  29  30
ATOM     30  O   UNL     1      36.298 -21.422 -15.546  0.00  0.00    -0.350 OA
ATOM     31  C   UNL     1      37.466 -20.985 -16.226  0.00  0.00    +0.174 C 
ENDBRANCH  29  30
ENDBRANCH   7  29
TORSDOF 7
ENDMDL
MODEL 2
REMARK VINA RESULT:     -10.4      3.511      6.372
REMARK  Name = 219095
REMARK  7 active torsions:
REMARK  status: ('A' for Active; 'I' for Inactive)
REMARK    1  A    between atoms: C_7  and  C_29
REMARK    2  A    between atoms: C_8  and  O_21
REMARK    3  A    between atoms: C_9  and  C_16
REMARK    4  A    between atoms: C_16  and  O_17
REMARK    5  A    between atoms: O_17  and  C_18
REMARK    6  A    between atoms: O_21  and  C_23
REMARK    7  A    between atoms: C_29  and  O_30
REMARK                            x       y       z     vdW  Elec       q    Type
REMARK                         _______ _______ _______ _____ _____    ______ ____
ROOT
ATOM      1  N   UNL     1      35.802 -22.448 -14.145  0.00  0.00    -0.355 N 
ATOM      2  N   UNL     1      36.552 -21.138 -17.511  0.00  0.00    -0.261 NA
ATOM      3  C   UNL     1      34.589 -22.445 -16.018  0.00  0.00    +0.003 A 
ATOM      4  C   UNL     1      33.834 -23.082 -14.982  0.00  0.00    +0.048 A 
ATOM      5  C   UNL     1      35.810 -22.062 -15.463  0.00  0.00    +0.055 A 
ATOM      6  C   UNL     1      34.617 -23.067 -13.826  0.00  0.00    +0.059 A 
ATOM      7  C   UNL     1      34.351 -22.161 -17.370  0.00  0.00    +0.099 C 
ATOM      8  C   UNL     1      32.553 -23.670 -14.921  0.00  0.00    +0.146 C 
ATOM      9  C   UNL     1      35.370 -21.509 -18.052  0.00  0.00    +0.136 C 
ATOM     10  C   UNL     1      36.786 -21.411 -16.207  0.00  0.00    +0.168 C 
ATOM     11  C   UNL     1      34.183 -23.612 -12.612  0.00  0.00    +0.017 C 
ATOM     12  C   UNL     1      32.107 -24.219 -13.714  0.00  0.00    +0.038 C 
ATOM     13  C   UNL     1      32.911 -24.190 -12.578  0.00  0.00    +0.005 C 
ATOM     14  H   UNL     1      36.544 -22.299 -13.515  0.00  0.00    +0.166 HD
ENDROOT
BRANCH   9  16
ATOM     15  O   UNL     1      35.095 -21.991 -20.371  0.00  0.00    -0.244 OA
ATOM     16  C   UNL     1      35.230 -21.165 -19.461  0.00  0.00    +0.355 C 
BRANCH  16  17
ATOM     17  O   UNL     1      35.263 -19.811 -19.651  0.00  0.00    -0.448 OA
BRANCH  17  18
ATOM     18  C   UNL     1      35.424 -19.354 -20.999  0.00  0.00    +0.169 C 
ATOM     19  C   UNL     1      36.490 -18.271 -21.037  0.00  0.00    +0.047 C 
ATOM     20  C   UNL     1      34.086 -18.853 -21.519  0.00  0.00    +0.047 C 
ENDBRANCH  17  18
ENDBRANCH  16  17
ENDBRANCH   9  16
BRANCH   8  21
ATOM     21  O   UNL     1      31.712 -23.734 -16.002  0.00  0.00    -0.453 OA
BRANCH  21  23
ATOM     22 CL   UNL     1      26.190 -21.890 -15.240  0.00  0.00    -0.082 Cl
ATOM     23  C   UNL     1      30.414 -23.302 -15.821  0.00  0.00    +0.145 C 
ATOM     24  C   UNL     1      29.367 -24.101 -16.250  0.00  0.00    +0.038 C 
ATOM     25  C   UNL     1      30.186 -22.076 -15.217  0.00  0.00    +0.038 C 
ATOM     26  C   UNL     1      28.055 -23.663 -16.069  0.00  0.00    +0.015 C 
ATOM     27  C   UNL     1      28.874 -21.638 -15.036  0.00  0.00    +0.015 C 
ATOM     28  C   UNL     1      27.809 -22.431 -15.462  0.00  0.00    +0.058 C 
ENDBRANCH  21  23
ENDBRANCH   8  21
BRANCH   7  29
ATOM     29  C   UNL     1      33.093 -22.510 -18.099  0.00  0.00    +0.153 C 
BRANCH  29  30
ATOM     30  O   UNL     1      32.229 -21.385 -18.008  0.00  0.00    -0.350 OA
ATOM     31  C   UNL     1      31.982 -20.814 -19.285  0.00  0.00    +0.174 C 
ENDBRANCH  29  30
ENDBRANCH   7  29
TORSDOF 7
ENDMDL
MODEL 3
REMARK VINA RESULT:     -10.1     13.107     16.312
REMARK  Name = 219095
REMARK  7 active torsions:
REMARK  status: ('A' for Active; 'I' for Inactive)
REMARK    1  A    between atoms: C_7  and  C_29
REMARK    2  A    between atoms: C_8  and  O_21
REMARK    3  A    between atoms: C_9  and  C_16
REMARK    4  A    between atoms: C_16  and  O_17
REMARK    5  A    between atoms: O_17  and  C_18
REMARK    6  A    between atoms: O_21  and  C_23
REMARK    7  A    between atoms: C_29  and  O_30
REMARK                            x       y       z     vdW  Elec       q    Type
REMARK                         _______ _______ _______ _____ _____    ______ ____
ROOT
ATOM      1  N   UNL     1      31.364  -7.024 -19.194  0.00  0.00    -0.355 N 
ATOM      2  N   UNL     1      31.602 -10.693 -19.489  0.00  0.00    -0.261 NA
ATOM      3  C   UNL     1      31.564  -8.337 -20.986  0.00  0.00    +0.003 A 
ATOM      4  C   UNL     1      31.512  -6.974 -21.419  0.00  0.00    +0.048 A 
ATOM      5  C   UNL     1      31.469  -8.334 -19.594  0.00  0.00    +0.055 A 
ATOM      6  C   UNL     1      31.388  -6.179 -20.278  0.00  0.00    +0.059 A 
ATOM      7  C   UNL     1      31.681  -9.570 -21.644  0.00  0.00    +0.099 C 
ATOM      8  C   UNL     1      31.560  -6.342 -22.680  0.00  0.00    +0.146 C 
ATOM      9  C   UNL     1      31.693 -10.701 -20.838  0.00  0.00    +0.136 C 
ATOM     10  C   UNL     1      31.488  -9.506 -18.850  0.00  0.00    +0.168 C 
ATOM     11  C   UNL     1      31.309  -4.783 -20.334  0.00  0.00    +0.017 C 
ATOM     12  C   UNL     1      31.482  -4.947 -22.750  0.00  0.00    +0.038 C 
ATOM     13  C   UNL     1      31.358  -4.180 -21.595  0.00  0.00    +0.005 C 
ATOM     14  H   UNL     1      31.284  -6.731 -18.257  0.00  0.00    +0.166 HD
ENDROOT
BRANCH   9  16
ATOM     15  O   UNL     1      30.953 -12.559 -22.134  0.00  0.00    -0.244 OA
ATOM     16  C   UNL     1      31.810 -12.033 -21.415  0.00  0.00    +0.355 C 
BRANCH  16  17
ATOM     17  O   UNL     1      32.990 -12.629 -21.065  0.00  0.00    -0.448 OA
BRANCH  17  18
ATOM     18  C   UNL     1      33.159 -13.998 -21.451  0.00  0.00    +0.169 C 
ATOM     19  C   UNL     1      33.820 -14.761 -20.314  0.00  0.00    +0.047 C 
ATOM     20  C   UNL     1      33.982 -14.058 -22.729  0.00  0.00    +0.047 C 
ENDBRANCH  17  18
ENDBRANCH  16  17
ENDBRANCH   9  16
BRANCH   8  21
ATOM     21  O   UNL     1      31.679  -7.036 -23.855  0.00  0.00    -0.453 OA
BRANCH  21  23
ATOM     22 CL   UNL     1      35.096  -4.706 -28.022  0.00  0.00    -0.082 Cl
ATOM     23  C   UNL     1      32.483  -6.490 -24.835  0.00  0.00    +0.145 C 
ATOM     24  C   UNL     1      33.840  -6.346 -24.597  0.00  0.00    +0.038 C 
ATOM     25  C   UNL     1      31.915  -6.095 -26.035  0.00  0.00    +0.038 C 
ATOM     26  C   UNL     1      34.652  -5.792 -25.587  0.00  0.00    +0.015 C 
ATOM     27  C   UNL     1      32.727  -5.541 -27.026  0.00  0.00    +0.015 C 
ATOM     28  C   UNL     1      34.095  -5.390 -26.802  0.00  0.00    +0.058 C 
ENDBRANCH  21  23
ENDBRANCH   8  21
BRANCH   7  29
ATOM     29  C   UNL     1      31.791  -9.731 -23.126  0.00  0.00    +0.153 C 
BRANCH  29  30
ATOM     30  O   UNL     1      33.176  -9.737 -23.446  0.00  0.00    -0.350 OA
ATOM     31  C   UNL     1      33.553 -10.938 -24.104  0.00  0.00    +0.174 C 
ENDBRANCH  29  30
ENDBRANCH   7  29
TORSDOF 7
ENDMDL
MODEL 4
REMARK VINA RESULT:      -9.2     12.903     16.182
REMARK  Name = 219095
REMARK  7 active torsions:
REMARK  status: ('A' for Active; 'I' for Inactive)
REMARK    1  A    between atoms: C_7  and  C_29
REMARK    2  A    between atoms: C_8  and  O_21
REMARK    3  A    between atoms: C_9  and  C_16
REMARK    4  A    between atoms: C_16  and  O_17
REMARK    5  A    between atoms: O_17  and  C_18
REMARK    6  A    between atoms: O_21  and  C_23
REMARK    7  A    between atoms: C_29  and  O_30
REMARK                            x       y       z     vdW  Elec       q    Type
REMARK                         _______ _______ _______ _____ _____    ______ ____
ROOT
ATOM      1  N   UNL     1      30.920  -9.161 -19.776  0.00  0.00    -0.355 N 
ATOM      2  N   UNL     1      31.691 -12.241 -21.652  0.00  0.00    -0.261 NA
ATOM      3  C   UNL     1      32.014  -9.469 -21.695  0.00  0.00    +0.003 A 
ATOM      4  C   UNL     1      31.991  -8.069 -21.399  0.00  0.00    +0.048 A 
ATOM      5  C   UNL     1      31.338 -10.121 -20.664  0.00  0.00    +0.055 A 
ATOM      6  C   UNL     1      31.302  -7.909 -20.196  0.00  0.00    +0.059 A 
ATOM      7  C   UNL     1      32.543 -10.241 -22.740  0.00  0.00    +0.099 C 
ATOM      8  C   UNL     1      32.494  -6.920 -22.046  0.00  0.00    +0.146 C 
ATOM      9  C   UNL     1      32.346 -11.612 -22.655  0.00  0.00    +0.136 C 
ATOM     10  C   UNL     1      31.178 -11.501 -20.643  0.00  0.00    +0.168 C 
ATOM     11  C   UNL     1      31.090  -6.657 -19.606  0.00  0.00    +0.017 C 
ATOM     12  C   UNL     1      32.289  -5.663 -21.468  0.00  0.00    +0.038 C 
ATOM     13  C   UNL     1      31.597  -5.535 -20.267  0.00  0.00    +0.005 C 
ATOM     14  H   UNL     1      30.416  -9.345 -18.949  0.00  0.00    +0.166 HD
ENDROOT
BRANCH   9  16
ATOM     15  O   UNL     1      32.410 -12.568 -24.838  0.00  0.00    -0.244 OA
ATOM     16  C   UNL     1      32.852 -12.509 -23.684  0.00  0.00    +0.355 C 
BRANCH  16  17
ATOM     17  O   UNL     1      33.882 -13.278 -23.217  0.00  0.00    -0.448 OA
BRANCH  17  18
ATOM     18  C   UNL     1      33.612 -14.672 -23.031  0.00  0.00    +0.169 C 
ATOM     19  C   UNL     1      34.162 -15.115 -21.684  0.00  0.00    +0.047 C 
ATOM     20  C   UNL     1      34.226 -15.457 -24.180  0.00  0.00    +0.047 C 
ENDBRANCH  17  18
ENDBRANCH  16  17
ENDBRANCH   9  16
BRANCH   8  21
ATOM     21  O   UNL     1      33.181  -6.976 -23.231  0.00  0.00    -0.453 OA
BRANCH  21  23
ATOM     22 CL   UNL     1      32.227  -2.659 -27.095  0.00  0.00    -0.082 Cl
ATOM     23  C   UNL     1      32.958  -5.962 -24.141  0.00  0.00    +0.145 C 
ATOM     24  C   UNL     1      33.897  -4.952 -24.275  0.00  0.00    +0.038 C 
ATOM     25  C   UNL     1      31.798  -5.974 -24.899  0.00  0.00    +0.038 C 
ATOM     26  C   UNL     1      33.670  -3.926 -25.193  0.00  0.00    +0.015 C 
ATOM     27  C   UNL     1      31.571  -4.948 -25.817  0.00  0.00    +0.015 C 
ATOM     28  C   UNL     1      32.508  -3.925 -25.964  0.00  0.00    +0.058 C 
ENDBRANCH  21  23
ENDBRANCH   8  21
BRANCH   7  29
ATOM     29  C   UNL     1      33.289  -9.683 -23.909  0.00  0.00    +0.153 C 
BRANCH  29  30
ATOM     30  O   UNL     1      34.643  -9.527 -23.507  0.00  0.00    -0.350 OA
ATOM     31  C   UNL     1      35.393  -8.803 -24.473  0.00  0.00    +0.174 C 
ENDBRANCH  29  30
ENDBRANCH   7  29
TORSDOF 7
ENDMDL
MODEL 5
REMARK VINA RESULT:      -8.7     13.636     17.412
REMARK  Name = 219095
REMARK  7 active torsions:
REMARK  status: ('A' for Active; 'I' for Inactive)
REMARK    1  A    between atoms: C_7  and  C_29
REMARK    2  A    between atoms: C_8  and  O_21
REMARK    3  A    between atoms: C_9  and  C_16
REMARK    4  A    between atoms: C_16  and  O_17
REMARK    5  A    between atoms: O_17  and  C_18
REMARK    6  A    between atoms: O_21  and  C_23
REMARK    7  A    between atoms: C_29  and  O_30
REMARK                            x       y       z     vdW  Elec       q    Type
REMARK                         _______ _______ _______ _____ _____    ______ ____
ROOT
ATOM      1  N   UNL     1      31.370  -7.195 -19.432  0.00  0.00    -0.355 N 
ATOM      2  N   UNL     1      32.220  -4.539 -21.845  0.00  0.00    -0.261 NA
ATOM      3  C   UNL     1      32.034  -7.309 -21.559  0.00  0.00    +0.003 A 
ATOM      4  C   UNL     1      31.834  -8.638 -21.069  0.00  0.00    +0.048 A 
ATOM      5  C   UNL     1      31.736  -6.433 -20.515  0.00  0.00    +0.055 A 
ATOM      6  C   UNL     1      31.420  -8.535 -19.740  0.00  0.00    +0.059 A 
ATOM      7  C   UNL     1      32.440  -6.769 -22.788  0.00  0.00    +0.099 C 
ATOM      8  C   UNL     1      31.968  -9.924 -21.635  0.00  0.00    +0.146 C 
ATOM      9  C   UNL     1      32.511  -5.384 -22.860  0.00  0.00    +0.136 C 
ATOM     10  C   UNL     1      31.829  -5.055 -20.658  0.00  0.00    +0.168 C 
ATOM     11  C   UNL     1      31.132  -9.652 -18.948  0.00  0.00    +0.017 C 
ATOM     12  C   UNL     1      31.684 -11.050 -20.855  0.00  0.00    +0.038 C 
ATOM     13  C   UNL     1      31.273 -10.914 -19.531  0.00  0.00    +0.005 C 
ATOM     14  H   UNL     1      31.106  -6.832 -18.556  0.00  0.00    +0.166 HD
ENDROOT
BRANCH   9  16
ATOM     15  O   UNL     1      34.095  -4.473 -24.390  0.00  0.00    -0.244 OA
ATOM     16  C   UNL     1      32.921  -4.715 -24.087  0.00  0.00    +0.355 C 
BRANCH  16  17
ATOM     17  O   UNL     1      31.844  -4.391 -24.865  0.00  0.00    -0.448 OA
BRANCH  17  18
ATOM     18  C   UNL     1      31.649  -3.001 -25.148  0.00  0.00    +0.169 C 
ATOM     19  C   UNL     1      30.406  -2.511 -24.423  0.00  0.00    +0.047 C 
ATOM     20  C   UNL     1      31.542  -2.808 -26.653  0.00  0.00    +0.047 C 
ENDBRANCH  17  18
ENDBRANCH  16  17
ENDBRANCH   9  16
BRANCH   8  21
ATOM     21  O   UNL     1      32.370 -10.128 -22.929  0.00  0.00    -0.453 OA
BRANCH  21  23
ATOM     22 CL   UNL     1      33.943 -15.578 -24.445  0.00  0.00    -0.082 Cl
ATOM     23  C   UNL     1      32.738 -11.410 -23.284  0.00  0.00    +0.145 C 
ATOM     24  C   UNL     1      33.466 -12.178 -22.391  0.00  0.00    +0.038 C 
ATOM     25  C   UNL     1      32.374 -11.899 -24.528  0.00  0.00    +0.038 C 
ATOM     26  C   UNL     1      33.840 -13.473 -22.751  0.00  0.00    +0.015 C 
ATOM     27  C   UNL     1      32.748 -13.194 -24.888  0.00  0.00    +0.015 C 
ATOM     28  C   UNL     1      33.480 -13.981 -24.000  0.00  0.00    +0.058 C 
ENDBRANCH  21  23
ENDBRANCH   8  21
BRANCH   7  29
ATOM     29  C   UNL     1      32.791  -7.579 -23.993  0.00  0.00    +0.153 C 
BRANCH  29  30
ATOM     30  O   UNL     1      34.178  -7.388 -24.239  0.00  0.00    -0.350 OA
ATOM     31  C   UNL     1      34.928  -8.553 -23.923  0.00  0.00    +0.174 C 
ENDBRANCH  29  30
ENDBRANCH   7  29
TORSDOF 7
ENDMDL
MODEL 6
REMARK VINA RESULT:      -8.7     13.632     17.352
REMARK  Name = 219095
REMARK  7 active torsions:
REMARK  status: ('A' for Active; 'I' for Inactive)
REMARK    1  A    between atoms: C_7  and  C_29
REMARK    2  A    between atoms: C_8  and  O_21
REMARK    3  A    between atoms: C_9  and  C_16
REMARK    4  A    between atoms: C_16  and  O_17
REMARK    5  A    between atoms: O_17  and  C_18
REMARK    6  A    between atoms: O_21  and  C_23
REMARK    7  A    between atoms: C_29  and  O_30
REMARK                            x       y       z     vdW  Elec       q    Type
REMARK                         _______ _______ _______ _____ _____    ______ ____
ROOT
ATOM      1  N   UNL     1      31.348  -6.990 -19.354  0.00  0.00    -0.355 N 
ATOM      2  N   UNL     1      31.710  -4.454 -22.007  0.00  0.00    -0.261 NA
ATOM      3  C   UNL     1      31.703  -7.207 -21.546  0.00  0.00    +0.003 A 
ATOM      4  C   UNL     1      31.642  -8.511 -20.960  0.00  0.00    +0.048 A 
ATOM      5  C   UNL     1      31.516  -6.282 -20.519  0.00  0.00    +0.055 A 
ATOM      6  C   UNL     1      31.418  -8.343 -19.592  0.00  0.00    +0.059 A 
ATOM      7  C   UNL     1      31.901  -6.727 -22.849  0.00  0.00    +0.099 C 
ATOM      8  C   UNL     1      31.755  -9.822 -21.468  0.00  0.00    +0.146 C 
ATOM      9  C   UNL     1      31.893  -5.348 -23.006  0.00  0.00    +0.136 C 
ATOM     10  C   UNL     1      31.520  -4.912 -20.749  0.00  0.00    +0.168 C 
ATOM     11  C   UNL     1      31.302  -9.421 -18.706  0.00  0.00    +0.017 C 
ATOM     12  C   UNL     1      31.642 -10.909 -20.594  0.00  0.00    +0.038 C 
ATOM     13  C   UNL     1      31.419 -10.709 -19.234  0.00  0.00    +0.005 C 
ATOM     14  H   UNL     1      31.196  -6.584 -18.470  0.00  0.00    +0.166 HD
ENDROOT
BRANCH   9  16
ATOM     15  O   UNL     1      31.241  -4.732 -25.215  0.00  0.00    -0.244 OA
ATOM     16  C   UNL     1      32.089  -4.740 -24.315  0.00  0.00    +0.355 C 
BRANCH  16  17
ATOM     17  O   UNL     1      33.330  -4.174 -24.424  0.00  0.00    -0.448 OA
BRANCH  17  18
ATOM     18  C   UNL     1      33.826  -3.960 -25.750  0.00  0.00    +0.169 C 
ATOM     19  C   UNL     1      35.230  -4.533 -25.860  0.00  0.00    +0.047 C 
ATOM     20  C   UNL     1      33.794  -2.471 -26.061  0.00  0.00    +0.047 C 
ENDBRANCH  17  18
ENDBRANCH  16  17
ENDBRANCH   9  16
BRANCH   8  21
ATOM     21  O   UNL     1      31.976 -10.089 -22.794  0.00  0.00    -0.453 OA
BRANCH  21  23
ATOM     22 CL   UNL     1      34.196 -15.350 -24.160  0.00  0.00    -0.082 Cl
ATOM     23  C   UNL     1      32.496 -11.327 -23.114  0.00  0.00    +0.145 C 
ATOM     24  C   UNL     1      33.296 -11.984 -22.194  0.00  0.00    +0.038 C 
ATOM     25  C   UNL     1      32.210 -11.883 -24.350  0.00  0.00    +0.038 C 
ATOM     26  C   UNL     1      33.824 -13.234 -22.519  0.00  0.00    +0.015 C 
ATOM     27  C   UNL     1      32.737 -13.133 -24.675  0.00  0.00    +0.015 C 
ATOM     28  C   UNL     1      33.544 -13.809 -23.759  0.00  0.00    +0.058 C 
ENDBRANCH  21  23
ENDBRANCH   8  21
BRANCH   7  29
ATOM     29  C   UNL     1      32.114  -7.595 -24.047  0.00  0.00    +0.153 C 
BRANCH  29  30
ATOM     30  O   UNL     1      33.452  -7.390 -24.482  0.00  0.00    -0.350 OA
ATOM     31  C   UNL     1      34.386  -7.976 -23.586  0.00  0.00    +0.174 C 
ENDBRANCH  29  30
ENDBRANCH   7  29
TORSDOF 7
ENDMDL
