MODEL 1
REMARK VINA RESULT:     -11.5      0.000      0.000
REMARK  Name = 445018
REMARK  7 active torsions:
REMARK  status: ('A' for Active; 'I' for Inactive)
REMARK    1  A    between atoms: N_2  and  S_14
REMARK    2  A    between atoms: N_3  and  C_25
REMARK    3  A    between atoms: C_4  and  C_10
REMARK    4  A    between atoms: N_9  and  O_12
REMARK    5  A    between atoms: S_14  and  C_17
REMARK    6  A    between atoms: C_22  and  O_23
REMARK    7  A    between atoms: C_25  and  C_26
REMARK                            x       y       z     vdW  Elec       q    Type
REMARK                         _______ _______ _______ _____ _____    ______ ____
ROOT
ATOM      1  O   UNL     1      35.932 -22.347 -16.848  0.00  0.00    -0.275 OA
ATOM      2  N   UNL     1      32.821 -23.429 -14.422  0.00  0.00    -0.128 NA
ATOM      3  N   UNL     1      33.661 -22.822 -16.625  0.00  0.00    -0.260 N 
ATOM      4  C   UNL     1      34.112 -23.016 -13.815  0.00  0.00    +0.168 C 
ATOM      5  C   UNL     1      32.518 -22.789 -15.725  0.00  0.00    +0.192 C 
ATOM      6  C   UNL     1      34.927 -22.070 -14.690  0.00  0.00    +0.112 C 
ATOM      7  C   UNL     1      34.915 -22.438 -16.162  0.00  0.00    +0.229 C 
ENDROOT
BRANCH   4  10
ATOM      8  O   UNL     1      35.040 -25.104 -14.480  0.00  0.00    -0.272 OA
ATOM      9  N   UNL     1      35.271 -24.436 -12.279  0.00  0.00    -0.196 N 
ATOM     10  C   UNL     1      34.848 -24.294 -13.575  0.00  0.00    +0.261 C 
ATOM     11  H   UNL     1      35.089 -23.755 -11.592  0.00  0.00    +0.182 HD
BRANCH   9  12
ATOM     12  O   UNL     1      35.979 -25.611 -11.994  0.00  0.00    -0.295 OA
ATOM     13  H   UNL     1      36.223 -25.622 -11.056  0.00  0.00    +0.241 HD
ENDBRANCH   9  12
ENDBRANCH   4  10
BRANCH   2  14
ATOM     14  S   UNL     1      31.498 -23.647 -13.363  0.00  0.00    +0.065 S 
ATOM     15  O   UNL     1      31.440 -22.533 -12.439  0.00  0.00    -0.153 OA
ATOM     16  O   UNL     1      31.496 -25.013 -12.880  0.00  0.00    -0.153 OA
BRANCH  14  17
ATOM     17  C   UNL     1      30.157 -23.474 -14.499  0.00  0.00    +0.122 C 
ATOM     18  C   UNL     1      29.645 -22.213 -14.755  0.00  0.00    +0.023 C 
ATOM     19  C   UNL     1      29.640 -24.602 -15.114  0.00  0.00    +0.023 C 
ATOM     20  C   UNL     1      28.585 -22.075 -15.651  0.00  0.00    +0.038 C 
ATOM     21  C   UNL     1      28.580 -24.465 -16.011  0.00  0.00    +0.038 C 
ATOM     22  C   UNL     1      28.052 -23.202 -16.279  0.00  0.00    +0.139 C 
BRANCH  22  23
ATOM     23  O   UNL     1      27.019 -23.067 -17.155  0.00  0.00    -0.471 OA
ATOM     24  C   UNL     1      26.354 -21.806 -17.186  0.00  0.00    +0.252 C 
ENDBRANCH  22  23
ENDBRANCH  14  17
ENDBRANCH   2  14
BRANCH   3  25
ATOM     25  C   UNL     1      33.426 -23.128 -18.026  0.00  0.00    +0.121 C 
BRANCH  25  26
ATOM     26  C   UNL     1      33.496 -21.901 -18.889  0.00  0.00    -0.002 C 
ATOM     27  C   UNL     1      32.339 -21.174 -19.146  0.00  0.00    -0.003 C 
ATOM     28  C   UNL     1      34.716 -21.505 -19.424  0.00  0.00    -0.003 C 
ATOM     29  C   UNL     1      32.404 -20.034 -19.947  0.00  0.00    -0.000 C 
ATOM     30  C   UNL     1      34.781 -20.365 -20.225  0.00  0.00    -0.000 C 
ATOM     31  C   UNL     1      33.624 -19.630 -20.487  0.00  0.00    -0.000 C 
ENDBRANCH  25  26
ENDBRANCH   3  25
TORSDOF 7
ENDMDL
MODEL 2
REMARK VINA RESULT:      -9.8      2.161      3.154
REMARK  Name = 445018
REMARK  7 active torsions:
REMARK  status: ('A' for Active; 'I' for Inactive)
REMARK    1  A    between atoms: N_2  and  S_14
REMARK    2  A    between atoms: N_3  and  C_25
REMARK    3  A    between atoms: C_4  and  C_10
REMARK    4  A    between atoms: N_9  and  O_12
REMARK    5  A    between atoms: S_14  and  C_17
REMARK    6  A    between atoms: C_22  and  O_23
REMARK    7  A    between atoms: C_25  and  C_26
REMARK                            x       y       z     vdW  Elec       q    Type
REMARK                         _______ _______ _______ _____ _____    ______ ____
ROOT
ATOM      1  O   UNL     1      38.683 -23.179 -16.030  0.00  0.00    -0.275 OA
ATOM      2  N   UNL     1      35.397 -23.634 -13.637  0.00  0.00    -0.128 NA
ATOM      3  N   UNL     1      36.848 -22.207 -14.973  0.00  0.00    -0.260 N 
ATOM      4  C   UNL     1      36.391 -24.734 -13.730  0.00  0.00    +0.168 C 
ATOM      5  C   UNL     1      35.959 -22.275 -13.822  0.00  0.00    +0.192 C 
ATOM      6  C   UNL     1      37.796 -24.262 -14.084  0.00  0.00    +0.112 C 
ATOM      7  C   UNL     1      37.828 -23.179 -15.146  0.00  0.00    +0.229 C 
ENDROOT
BRANCH   4  10
ATOM      8  O   UNL     1      34.667 -25.622 -15.109  0.00  0.00    -0.272 OA
ATOM      9  N   UNL     1      36.805 -26.477 -15.313  0.00  0.00    -0.196 N 
ATOM     10  C   UNL     1      35.851 -25.649 -14.781  0.00  0.00    +0.261 C 
ATOM     11  H   UNL     1      37.741 -26.458 -15.013  0.00  0.00    +0.182 HD
BRANCH   9  12
ATOM     12  O   UNL     1      36.362 -27.352 -16.314  0.00  0.00    -0.295 OA
ATOM     13  H   UNL     1      37.095 -27.922 -16.594  0.00  0.00    +0.241 HD
ENDBRANCH   9  12
ENDBRANCH   4  10
BRANCH   2  14
ATOM     14  S   UNL     1      34.174 -23.791 -12.453  0.00  0.00    +0.065 S 
ATOM     15  O   UNL     1      34.151 -22.598 -11.633  0.00  0.00    -0.153 OA
ATOM     16  O   UNL     1      34.261 -25.105 -11.851  0.00  0.00    -0.153 OA
BRANCH  14  17
ATOM     17  C   UNL     1      32.739 -23.762 -13.483  0.00  0.00    +0.122 C 
ATOM     18  C   UNL     1      32.630 -22.795 -14.468  0.00  0.00    +0.023 C 
ATOM     19  C   UNL     1      31.746 -24.707 -13.286  0.00  0.00    +0.023 C 
ATOM     20  C   UNL     1      31.497 -22.771 -15.280  0.00  0.00    +0.038 C 
ATOM     21  C   UNL     1      30.611 -24.685 -14.099  0.00  0.00    +0.038 C 
ATOM     22  C   UNL     1      30.487 -23.716 -15.096  0.00  0.00    +0.139 C 
BRANCH  22  23
ATOM     23  O   UNL     1      29.382 -23.695 -15.889  0.00  0.00    -0.471 OA
ATOM     24  C   UNL     1      28.847 -22.415 -16.222  0.00  0.00    +0.252 C 
ENDBRANCH  22  23
ENDBRANCH  14  17
ENDBRANCH   2  14
BRANCH   3  25
ATOM     25  C   UNL     1      36.768 -21.040 -15.836  0.00  0.00    +0.121 C 
BRANCH  25  26
ATOM     26  C   UNL     1      35.922 -21.298 -17.050  0.00  0.00    -0.002 C 
ATOM     27  C   UNL     1      36.308 -20.780 -18.280  0.00  0.00    -0.003 C 
ATOM     28  C   UNL     1      34.759 -22.050 -16.931  0.00  0.00    -0.003 C 
ATOM     29  C   UNL     1      35.522 -21.018 -19.407  0.00  0.00    -0.000 C 
ATOM     30  C   UNL     1      33.973 -22.289 -18.058  0.00  0.00    -0.000 C 
ATOM     31  C   UNL     1      34.354 -21.772 -19.296  0.00  0.00    -0.000 C 
ENDBRANCH  25  26
ENDBRANCH   3  25
TORSDOF 7
ENDMDL
MODEL 3
REMARK VINA RESULT:      -9.6      2.065      3.075
REMARK  Name = 445018
REMARK  7 active torsions:
REMARK  status: ('A' for Active; 'I' for Inactive)
REMARK    1  A    between atoms: N_2  and  S_14
REMARK    2  A    between atoms: N_3  and  C_25
REMARK    3  A    between atoms: C_4  and  C_10
REMARK    4  A    between atoms: N_9  and  O_12
REMARK    5  A    between atoms: S_14  and  C_17
REMARK    6  A    between atoms: C_22  and  O_23
REMARK    7  A    between atoms: C_25  and  C_26
REMARK                            x       y       z     vdW  Elec       q    Type
REMARK                         _______ _______ _______ _____ _____    ______ ____
ROOT
ATOM      1  O   UNL     1      37.570 -19.971 -16.882  0.00  0.00    -0.275 OA
ATOM      2  N   UNL     1      35.696 -23.318 -15.463  0.00  0.00    -0.128 NA
ATOM      3  N   UNL     1      36.011 -21.668 -17.226  0.00  0.00    -0.260 N 
ATOM      4  C   UNL     1      36.502 -22.483 -14.536  0.00  0.00    +0.168 C 
ATOM      5  C   UNL     1      35.070 -22.573 -16.581  0.00  0.00    +0.192 C 
ATOM      6  C   UNL     1      36.603 -21.022 -14.958  0.00  0.00    +0.112 C 
ATOM      7  C   UNL     1      36.803 -20.829 -16.450  0.00  0.00    +0.229 C 
ENDROOT
BRANCH   4  10
ATOM      8  O   UNL     1      38.626 -23.030 -15.458  0.00  0.00    -0.272 OA
ATOM      9  N   UNL     1      38.097 -23.808 -13.347  0.00  0.00    -0.196 N 
ATOM     10  C   UNL     1      37.849 -23.130 -14.511  0.00  0.00    +0.261 C 
ATOM     11  H   UNL     1      37.437 -23.857 -12.618  0.00  0.00    +0.182 HD
BRANCH   9  12
ATOM     12  O   UNL     1      39.351 -24.427 -13.258  0.00  0.00    -0.295 OA
ATOM     13  H   UNL     1      40.016 -23.776 -12.985  0.00  0.00    +0.241 HD
ENDBRANCH   9  12
ENDBRANCH   4  10
BRANCH   2  14
ATOM     14  S   UNL     1      34.757 -24.566 -14.769  0.00  0.00    +0.065 S 
ATOM     15  O   UNL     1      35.191 -24.784 -13.404  0.00  0.00    -0.153 OA
ATOM     16  O   UNL     1      34.665 -25.668 -15.704  0.00  0.00    -0.153 OA
BRANCH  14  17
ATOM     17  C   UNL     1      33.180 -23.773 -14.710  0.00  0.00    +0.122 C 
ATOM     18  C   UNL     1      32.637 -23.433 -13.482  0.00  0.00    +0.023 C 
ATOM     19  C   UNL     1      32.512 -23.506 -15.894  0.00  0.00    +0.023 C 
ATOM     20  C   UNL     1      31.391 -22.808 -13.436  0.00  0.00    +0.038 C 
ATOM     21  C   UNL     1      31.265 -22.880 -15.848  0.00  0.00    +0.038 C 
ATOM     22  C   UNL     1      30.705 -22.532 -14.619  0.00  0.00    +0.139 C 
BRANCH  22  23
ATOM     23  O   UNL     1      29.490 -21.921 -14.574  0.00  0.00    -0.471 OA
ATOM     24  C   UNL     1      28.484 -22.409 -15.460  0.00  0.00    +0.252 C 
ENDBRANCH  22  23
ENDBRANCH  14  17
ENDBRANCH   2  14
BRANCH   3  25
ATOM     25  C   UNL     1      35.995 -21.577 -18.676  0.00  0.00    +0.121 C 
BRANCH  25  26
ATOM     26  C   UNL     1      34.686 -21.048 -19.190  0.00  0.00    -0.002 C 
ATOM     27  C   UNL     1      34.680 -20.086 -20.193  0.00  0.00    -0.003 C 
ATOM     28  C   UNL     1      33.494 -21.525 -18.658  0.00  0.00    -0.003 C 
ATOM     29  C   UNL     1      33.465 -19.595 -20.671  0.00  0.00    -0.000 C 
ATOM     30  C   UNL     1      32.279 -21.034 -19.135  0.00  0.00    -0.000 C 
ATOM     31  C   UNL     1      32.265 -20.069 -20.141  0.00  0.00    -0.000 C 
ENDBRANCH  25  26
ENDBRANCH   3  25
TORSDOF 7
ENDMDL
MODEL 4
REMARK VINA RESULT:      -9.3     14.195     17.557
REMARK  Name = 445018
REMARK  7 active torsions:
REMARK  status: ('A' for Active; 'I' for Inactive)
REMARK    1  A    between atoms: N_2  and  S_14
REMARK    2  A    between atoms: N_3  and  C_25
REMARK    3  A    between atoms: C_4  and  C_10
REMARK    4  A    between atoms: N_9  and  O_12
REMARK    5  A    between atoms: S_14  and  C_17
REMARK    6  A    between atoms: C_22  and  O_23
REMARK    7  A    between atoms: C_25  and  C_26
REMARK                            x       y       z     vdW  Elec       q    Type
REMARK                         _______ _______ _______ _____ _____    ______ ____
ROOT
ATOM      1  O   UNL     1      29.891 -10.205 -20.735  0.00  0.00    -0.275 OA
ATOM      2  N   UNL     1      32.749  -7.988 -22.644  0.00  0.00    -0.128 NA
ATOM      3  N   UNL     1      31.703 -10.141 -22.199  0.00  0.00    -0.260 N 
ATOM      4  C   UNL     1      31.975  -7.381 -21.531  0.00  0.00    +0.168 C 
ATOM      5  C   UNL     1      32.941  -9.454 -22.536  0.00  0.00    +0.192 C 
ATOM      6  C   UNL     1      31.449  -8.397 -20.524  0.00  0.00    +0.112 C 
ATOM      7  C   UNL     1      30.910  -9.665 -21.160  0.00  0.00    +0.229 C 
ENDROOT
BRANCH   4  10
ATOM      8  O   UNL     1      30.249  -7.142 -23.151  0.00  0.00    -0.272 OA
ATOM      9  N   UNL     1      30.590  -5.435 -21.630  0.00  0.00    -0.196 N 
ATOM     10  C   UNL     1      30.853  -6.654 -22.198  0.00  0.00    +0.261 C 
ATOM     11  H   UNL     1      31.107  -5.091 -20.866  0.00  0.00    +0.182 HD
BRANCH   9  12
ATOM     12  O   UNL     1      29.538  -4.709 -22.205  0.00  0.00    -0.295 OA
ATOM     13  H   UNL     1      29.880  -3.881 -22.574  0.00  0.00    +0.241 HD
ENDBRANCH   9  12
ENDBRANCH   4  10
BRANCH   2  14
ATOM     14  S   UNL     1      34.076  -7.096 -23.246  0.00  0.00    +0.065 S 
ATOM     15  O   UNL     1      34.853  -7.937 -24.132  0.00  0.00    -0.153 OA
ATOM     16  O   UNL     1      34.707  -6.387 -22.151  0.00  0.00    -0.153 OA
BRANCH  14  17
ATOM     17  C   UNL     1      33.228  -5.908 -24.241  0.00  0.00    +0.122 C 
ATOM     18  C   UNL     1      32.616  -6.319 -25.413  0.00  0.00    +0.023 C 
ATOM     19  C   UNL     1      33.190  -4.585 -23.832  0.00  0.00    +0.023 C 
ATOM     20  C   UNL     1      31.947  -5.381 -26.199  0.00  0.00    +0.038 C 
ATOM     21  C   UNL     1      32.520  -3.646 -24.618  0.00  0.00    +0.038 C 
ATOM     22  C   UNL     1      31.899  -4.045 -25.801  0.00  0.00    +0.139 C 
BRANCH  22  23
ATOM     23  O   UNL     1      31.245  -3.130 -26.568  0.00  0.00    -0.471 OA
ATOM     24  C   UNL     1      30.910  -1.887 -25.952  0.00  0.00    +0.252 C 
ENDBRANCH  22  23
ENDBRANCH  14  17
ENDBRANCH   2  14
BRANCH   3  25
ATOM     25  C   UNL     1      31.402 -11.390 -22.879  0.00  0.00    +0.121 C 
BRANCH  25  26
ATOM     26  C   UNL     1      32.289 -12.509 -22.413  0.00  0.00    -0.002 C 
ATOM     27  C   UNL     1      32.231 -12.928 -21.089  0.00  0.00    -0.003 C 
ATOM     28  C   UNL     1      33.160 -13.116 -23.311  0.00  0.00    -0.003 C 
ATOM     29  C   UNL     1      33.054 -13.967 -20.657  0.00  0.00    -0.000 C 
ATOM     30  C   UNL     1      33.983 -14.155 -22.879  0.00  0.00    -0.000 C 
ATOM     31  C   UNL     1      33.931 -14.581 -21.552  0.00  0.00    -0.000 C 
ENDBRANCH  25  26
ENDBRANCH   3  25
TORSDOF 7
ENDMDL
MODEL 5
REMARK VINA RESULT:      -9.1     15.382     18.837
REMARK  Name = 445018
REMARK  7 active torsions:
REMARK  status: ('A' for Active; 'I' for Inactive)
REMARK    1  A    between atoms: N_2  and  S_14
REMARK    2  A    between atoms: N_3  and  C_25
REMARK    3  A    between atoms: C_4  and  C_10
REMARK    4  A    between atoms: N_9  and  O_12
REMARK    5  A    between atoms: S_14  and  C_17
REMARK    6  A    between atoms: C_22  and  O_23
REMARK    7  A    between atoms: C_25  and  C_26
REMARK                            x       y       z     vdW  Elec       q    Type
REMARK                         _______ _______ _______ _____ _____    ______ ____
ROOT
ATOM      1  O   UNL     1      32.367  -7.741 -19.502  0.00  0.00    -0.275 OA
ATOM      2  N   UNL     1      31.122  -6.304 -23.123  0.00  0.00    -0.128 NA
ATOM      3  N   UNL     1      31.355  -8.156 -21.559  0.00  0.00    -0.260 N 
ATOM      4  C   UNL     1      32.018  -5.475 -22.277  0.00  0.00    +0.168 C 
ATOM      5  C   UNL     1      31.298  -7.767 -22.960  0.00  0.00    +0.192 C 
ATOM      6  C   UNL     1      32.896  -6.288 -21.333  0.00  0.00    +0.112 C 
ATOM      7  C   UNL     1      32.176  -7.455 -20.682  0.00  0.00    +0.229 C 
ENDROOT
BRANCH   4  10
ATOM      8  O   UNL     1      30.562  -4.942 -20.471  0.00  0.00    -0.272 OA
ATOM      9  N   UNL     1      30.948  -3.345 -22.097  0.00  0.00    -0.196 N 
ATOM     10  C   UNL     1      31.099  -4.576 -21.515  0.00  0.00    +0.261 C 
ATOM     11  H   UNL     1      31.402  -3.103 -22.936  0.00  0.00    +0.182 HD
BRANCH   9  12
ATOM     12  O   UNL     1      30.106  -2.450 -21.422  0.00  0.00    -0.295 OA
ATOM     13  H   UNL     1      29.186  -2.612 -21.683  0.00  0.00    +0.241 HD
ENDBRANCH   9  12
ENDBRANCH   4  10
BRANCH   2  14
ATOM     14  S   UNL     1      30.824  -5.752 -24.712  0.00  0.00    +0.065 S 
ATOM     15  O   UNL     1      29.984  -4.573 -24.657  0.00  0.00    -0.153 OA
ATOM     16  O   UNL     1      30.467  -6.880 -25.548  0.00  0.00    -0.153 OA
BRANCH  14  17
ATOM     17  C   UNL     1      32.449  -5.232 -25.172  0.00  0.00    +0.122 C 
ATOM     18  C   UNL     1      33.414  -6.187 -25.446  0.00  0.00    +0.023 C 
ATOM     19  C   UNL     1      32.729  -3.878 -25.250  0.00  0.00    +0.023 C 
ATOM     20  C   UNL     1      34.697  -5.777 -25.808  0.00  0.00    +0.038 C 
ATOM     21  C   UNL     1      34.013  -3.467 -25.613  0.00  0.00    +0.038 C 
ATOM     22  C   UNL     1      34.996  -4.417 -25.892  0.00  0.00    +0.139 C 
BRANCH  22  23
ATOM     23  O   UNL     1      36.248  -4.017 -26.247  0.00  0.00    -0.471 OA
ATOM     24  C   UNL     1      36.578  -4.071 -27.633  0.00  0.00    +0.252 C 
ENDBRANCH  22  23
ENDBRANCH  14  17
ENDBRANCH   2  14
BRANCH   3  25
ATOM     25  C   UNL     1      30.648  -9.357 -21.148  0.00  0.00    +0.121 C 
BRANCH  25  26
ATOM     26  C   UNL     1      31.426 -10.602 -21.463  0.00  0.00    -0.002 C 
ATOM     27  C   UNL     1      32.106 -10.701 -22.671  0.00  0.00    -0.003 C 
ATOM     28  C   UNL     1      31.457 -11.645 -20.544  0.00  0.00    -0.003 C 
ATOM     29  C   UNL     1      32.829 -11.857 -22.964  0.00  0.00    -0.000 C 
ATOM     30  C   UNL     1      32.180 -12.801 -20.837  0.00  0.00    -0.000 C 
ATOM     31  C   UNL     1      32.866 -12.907 -22.047  0.00  0.00    -0.000 C 
ENDBRANCH  25  26
ENDBRANCH   3  25
TORSDOF 7
ENDMDL
MODEL 6
REMARK VINA RESULT:      -8.7      3.106      6.527
REMARK  Name = 445018
REMARK  7 active torsions:
REMARK  status: ('A' for Active; 'I' for Inactive)
REMARK    1  A    between atoms: N_2  and  S_14
REMARK    2  A    between atoms: N_3  and  C_25
REMARK    3  A    between atoms: C_4  and  C_10
REMARK    4  A    between atoms: N_9  and  O_12
REMARK    5  A    between atoms: S_14  and  C_17
REMARK    6  A    between atoms: C_22  and  O_23
REMARK    7  A    between atoms: C_25  and  C_26
REMARK                            x       y       z     vdW  Elec       q    Type
REMARK                         _______ _______ _______ _____ _____    ______ ____
ROOT
ATOM      1  O   UNL     1      36.447 -22.213 -13.289  0.00  0.00    -0.275 OA
ATOM      2  N   UNL     1      34.064 -22.761 -16.567  0.00  0.00    -0.128 NA
ATOM      3  N   UNL     1      36.260 -22.331 -15.608  0.00  0.00    -0.260 N 
ATOM      4  C   UNL     1      33.439 -22.539 -15.238  0.00  0.00    +0.168 C 
ATOM      5  C   UNL     1      35.382 -22.108 -16.747  0.00  0.00    +0.192 C 
ATOM      6  C   UNL     1      34.313 -21.745 -14.274  0.00  0.00    +0.112 C 
ATOM      7  C   UNL     1      35.780 -22.134 -14.318  0.00  0.00    +0.229 C 
ENDROOT
BRANCH   4  10
ATOM      8  O   UNL     1      33.965 -24.830 -14.868  0.00  0.00    -0.272 OA
ATOM      9  N   UNL     1      31.967 -24.001 -14.050  0.00  0.00    -0.196 N 
ATOM     10  C   UNL     1      33.165 -23.910 -14.710  0.00  0.00    +0.261 C 
ATOM     11  H   UNL     1      31.363 -23.231 -13.954  0.00  0.00    +0.182 HD
BRANCH   9  12
ATOM     12  O   UNL     1      31.658 -25.262 -13.521  0.00  0.00    -0.295 OA
ATOM     13  H   UNL     1      31.819 -25.260 -12.565  0.00  0.00    +0.241 HD
ENDBRANCH   9  12
ENDBRANCH   4  10
BRANCH   2  14
ATOM     14  S   UNL     1      33.026 -22.755 -17.924  0.00  0.00    +0.065 S 
ATOM     15  O   UNL     1      31.735 -22.230 -17.533  0.00  0.00    -0.153 OA
ATOM     16  O   UNL     1      33.135 -24.025 -18.611  0.00  0.00    -0.153 OA
BRANCH  14  17
ATOM     17  C   UNL     1      33.823 -21.533 -18.921  0.00  0.00    +0.122 C 
ATOM     18  C   UNL     1      35.206 -21.502 -18.978  0.00  0.00    +0.023 C 
ATOM     19  C   UNL     1      33.050 -20.626 -19.626  0.00  0.00    +0.023 C 
ATOM     20  C   UNL     1      35.835 -20.537 -19.764  0.00  0.00    +0.038 C 
ATOM     21  C   UNL     1      33.679 -19.660 -20.414  0.00  0.00    +0.038 C 
ATOM     22  C   UNL     1      35.072 -19.616 -20.482  0.00  0.00    +0.139 C 
BRANCH  22  23
ATOM     23  O   UNL     1      35.686 -18.675 -21.250  0.00  0.00    -0.471 OA
ATOM     24  C   UNL     1      35.071 -17.389 -21.317  0.00  0.00    +0.252 C 
ENDBRANCH  22  23
ENDBRANCH  14  17
ENDBRANCH   2  14
BRANCH   3  25
ATOM     25  C   UNL     1      37.660 -22.624 -15.865  0.00  0.00    +0.121 C 
BRANCH  25  26
ATOM     26  C   UNL     1      38.114 -23.865 -15.150  0.00  0.00    -0.002 C 
ATOM     27  C   UNL     1      39.448 -23.998 -14.783  0.00  0.00    -0.003 C 
ATOM     28  C   UNL     1      37.196 -24.869 -14.864  0.00  0.00    -0.003 C 
ATOM     29  C   UNL     1      39.870 -25.149 -14.119  0.00  0.00    -0.000 C 
ATOM     30  C   UNL     1      37.618 -26.021 -14.200  0.00  0.00    -0.000 C 
ATOM     31  C   UNL     1      38.955 -26.161 -13.828  0.00  0.00    -0.000 C 
ENDBRANCH  25  26
ENDBRANCH   3  25
TORSDOF 7
ENDMDL
