MODEL 1
REMARK VINA RESULT:     -10.9      0.000      0.000
REMARK  Name = 22591684
REMARK  8 active torsions:
REMARK  status: ('A' for Active; 'I' for Inactive)
REMARK    1  A    between atoms: C_1  and  C_25
REMARK    2  A    between atoms: C_2  and  C_12
REMARK    3  A    between atoms: C_13  and  C_15
REMARK    4  A    between atoms: C_16  and  C_24
REMARK    5  A    between atoms: C_25  and  C_26
REMARK    6  A    between atoms: C_26  and  C_27
REMARK    7  A    between atoms: C_27  and  S_28
REMARK    8  A    between atoms: S_28  and  C_31
REMARK                            x       y       z     vdW  Elec       q    Type
REMARK                         _______ _______ _______ _____ _____    ______ ____
ROOT
ATOM      1  C   UNL     1      31.713  -6.070 -22.156  0.00  0.00    +0.000 C 
ATOM      2  C   UNL     1      31.678  -8.723 -22.112  0.00  0.00    +0.053 C 
ATOM      3  C   UNL     1      31.607  -6.593 -20.710  0.00  0.00    +0.000 C 
ATOM      4  C   UNL     1      30.507  -6.606 -22.947  0.00  0.00    +0.000 C 
ATOM      5  C   UNL     1      32.995  -6.646 -22.792  0.00  0.00    +0.000 C 
ATOM      6  C   UNL     1      31.577  -8.127 -20.681  0.00  0.00    +0.007 C 
ATOM      7  C   UNL     1      30.484  -8.141 -22.924  0.00  0.00    +0.007 C 
ATOM      8  C   UNL     1      32.974  -8.181 -22.775  0.00  0.00    +0.007 C 
ENDROOT
BRANCH   2  12
ATOM      9  N   UNL     1      32.502 -10.972 -22.827  0.00  0.00    -0.297 N 
ATOM     10  N   UNL     1      30.849 -10.972 -21.393  0.00  0.00    -0.133 NA
ATOM     11  N   UNL     1      31.178 -12.282 -21.677  0.00  0.00    -0.129 NA
ATOM     12  C   UNL     1      31.653 -10.202 -22.092  0.00  0.00    +0.142 A 
ATOM     13  C   UNL     1      32.171 -12.261 -22.538  0.00  0.00    +0.166 A 
ATOM     14  C   UNL     1      33.536 -10.509 -23.722  0.00  0.00    +0.133 C 
BRANCH  13  15
ATOM     15  C   UNL     1      32.828 -13.411 -23.111  0.00  0.00    +0.040 C 
ATOM     16  C   UNL     1      33.538 -14.307 -22.313  0.00  0.00    +0.074 C 
ATOM     17  C   UNL     1      32.742 -13.619 -24.488  0.00  0.00    +0.003 C 
ATOM     18  C   UNL     1      34.163 -15.412 -22.892  0.00  0.00    +0.004 C 
ATOM     19  C   UNL     1      33.368 -14.724 -25.067  0.00  0.00    +0.000 C 
ATOM     20  C   UNL     1      34.078 -15.620 -24.269  0.00  0.00    -0.000 C 
BRANCH  16  24
ATOM     21  F   UNL     1      34.308 -12.974 -20.481  0.00  0.00    -0.166 F 
ATOM     22  F   UNL     1      32.446 -14.050 -20.201  0.00  0.00    -0.166 F 
ATOM     23  F   UNL     1      34.330 -15.135 -20.229  0.00  0.00    -0.166 F 
ATOM     24  C   UNL     1      33.652 -14.118 -20.834  0.00  0.00    +0.419 C 
ENDBRANCH  16  24
ENDBRANCH  13  15
ENDBRANCH   2  12
BRANCH   1  25
ATOM     25  C   UNL     1      31.739  -4.542 -22.178  0.00  0.00    +0.002 C 
BRANCH  25  26
ATOM     26  C   UNL     1      31.060  -3.998 -23.430  0.00  0.00    +0.025 C 
BRANCH  26  27
ATOM     27  C   UNL     1      31.918  -2.933 -24.096  0.00  0.00    +0.151 C 
BRANCH  27  28
ATOM     28  S   UNL     1      32.897  -3.616 -25.396  0.00  0.00    -0.010 S 
ATOM     29  O   UNL     1      32.969  -2.642 -26.472  0.00  0.00    -0.173 OA
ATOM     30  O   UNL     1      34.111  -4.163 -24.812  0.00  0.00    -0.173 OA
BRANCH  28  31
ATOM     31  C   UNL     1      31.917  -4.984 -25.974  0.00  0.00    +0.151 C 
ATOM     32  C   UNL     1      32.714  -5.891 -26.884  0.00  0.00    +0.027 C 
ENDBRANCH  28  31
ENDBRANCH  27  28
ENDBRANCH  26  27
ENDBRANCH  25  26
ENDBRANCH   1  25
TORSDOF 8
ENDMDL
MODEL 2
REMARK VINA RESULT:     -10.9      0.766      1.422
REMARK  Name = 22591684
REMARK  8 active torsions:
REMARK  status: ('A' for Active; 'I' for Inactive)
REMARK    1  A    between atoms: C_1  and  C_25
REMARK    2  A    between atoms: C_2  and  C_12
REMARK    3  A    between atoms: C_13  and  C_15
REMARK    4  A    between atoms: C_16  and  C_24
REMARK    5  A    between atoms: C_25  and  C_26
REMARK    6  A    between atoms: C_26  and  C_27
REMARK    7  A    between atoms: C_27  and  S_28
REMARK    8  A    between atoms: S_28  and  C_31
REMARK                            x       y       z     vdW  Elec       q    Type
REMARK                         _______ _______ _______ _____ _____    ______ ____
ROOT
ATOM      1  C   UNL     1      31.698  -6.065 -22.095  0.00  0.00    +0.000 C 
ATOM      2  C   UNL     1      31.657  -8.717 -22.070  0.00  0.00    +0.053 C 
ATOM      3  C   UNL     1      32.989  -6.638 -22.712  0.00  0.00    +0.000 C 
ATOM      4  C   UNL     1      31.586  -6.589 -20.652  0.00  0.00    +0.000 C 
ATOM      5  C   UNL     1      30.492  -6.602 -22.892  0.00  0.00    +0.000 C 
ATOM      6  C   UNL     1      32.973  -8.172 -22.692  0.00  0.00    +0.007 C 
ATOM      7  C   UNL     1      31.562  -8.124 -20.635  0.00  0.00    +0.007 C 
ATOM      8  C   UNL     1      30.462  -8.137 -22.874  0.00  0.00    +0.007 C 
ENDROOT
BRANCH   2  12
ATOM      9  N   UNL     1      32.492 -10.965 -22.779  0.00  0.00    -0.297 N 
ATOM     10  N   UNL     1      30.826 -10.968 -21.359  0.00  0.00    -0.133 NA
ATOM     11  N   UNL     1      31.160 -12.278 -21.641  0.00  0.00    -0.129 NA
ATOM     12  C   UNL     1      31.635 -10.197 -22.050  0.00  0.00    +0.142 A 
ATOM     13  C   UNL     1      32.160 -12.255 -22.493  0.00  0.00    +0.166 A 
ATOM     14  C   UNL     1      33.533 -10.500 -23.664  0.00  0.00    +0.133 C 
BRANCH  13  15
ATOM     15  C   UNL     1      32.824 -13.403 -23.061  0.00  0.00    +0.040 C 
ATOM     16  C   UNL     1      33.532 -14.296 -22.258  0.00  0.00    +0.074 C 
ATOM     17  C   UNL     1      32.747 -13.613 -24.438  0.00  0.00    +0.003 C 
ATOM     18  C   UNL     1      34.165 -15.400 -22.832  0.00  0.00    +0.004 C 
ATOM     19  C   UNL     1      33.379 -14.717 -25.012  0.00  0.00    +0.000 C 
ATOM     20  C   UNL     1      34.088 -15.610 -24.208  0.00  0.00    -0.000 C 
BRANCH  16  24
ATOM     21  F   UNL     1      34.291 -12.961 -20.423  0.00  0.00    -0.166 F 
ATOM     22  F   UNL     1      32.427 -14.036 -20.153  0.00  0.00    -0.166 F 
ATOM     23  F   UNL     1      34.312 -15.121 -20.168  0.00  0.00    -0.166 F 
ATOM     24  C   UNL     1      33.637 -14.105 -20.778  0.00  0.00    +0.419 C 
ENDBRANCH  16  24
ENDBRANCH  13  15
ENDBRANCH   2  12
BRANCH   1  25
ATOM     25  C   UNL     1      31.721  -4.536 -22.115  0.00  0.00    +0.002 C 
BRANCH  25  26
ATOM     26  C   UNL     1      31.013  -3.992 -23.351  0.00  0.00    +0.025 C 
BRANCH  26  27
ATOM     27  C   UNL     1      31.947  -3.114 -24.170  0.00  0.00    +0.151 C 
BRANCH  27  28
ATOM     28  S   UNL     1      32.458  -3.926 -25.652  0.00  0.00    -0.010 S 
ATOM     29  O   UNL     1      31.743  -5.188 -25.750  0.00  0.00    -0.173 OA
ATOM     30  O   UNL     1      32.407  -2.962 -26.739  0.00  0.00    -0.173 OA
BRANCH  28  31
ATOM     31  C   UNL     1      34.170  -4.300 -25.347  0.00  0.00    +0.151 C 
ATOM     32  C   UNL     1      34.561  -5.633 -25.946  0.00  0.00    +0.027 C 
ENDBRANCH  28  31
ENDBRANCH  27  28
ENDBRANCH  26  27
ENDBRANCH  25  26
ENDBRANCH   1  25
TORSDOF 8
ENDMDL
MODEL 3
REMARK VINA RESULT:      -9.6      5.309      9.341
REMARK  Name = 22591684
REMARK  8 active torsions:
REMARK  status: ('A' for Active; 'I' for Inactive)
REMARK    1  A    between atoms: C_1  and  C_25
REMARK    2  A    between atoms: C_2  and  C_12
REMARK    3  A    between atoms: C_13  and  C_15
REMARK    4  A    between atoms: C_16  and  C_24
REMARK    5  A    between atoms: C_25  and  C_26
REMARK    6  A    between atoms: C_26  and  C_27
REMARK    7  A    between atoms: C_27  and  S_28
REMARK    8  A    between atoms: S_28  and  C_31
REMARK                            x       y       z     vdW  Elec       q    Type
REMARK                         _______ _______ _______ _____ _____    ______ ____
ROOT
ATOM      1  C   UNL     1      33.211 -13.747 -21.739  0.00  0.00    +0.000 C 
ATOM      2  C   UNL     1      32.090 -11.389 -22.206  0.00  0.00    +0.053 C 
ATOM      3  C   UNL     1      31.993 -13.528 -20.819  0.00  0.00    +0.000 C 
ATOM      4  C   UNL     1      34.216 -12.611 -21.478  0.00  0.00    +0.000 C 
ATOM      5  C   UNL     1      32.744 -13.644 -23.204  0.00  0.00    +0.000 C 
ATOM      6  C   UNL     1      31.347 -12.161 -21.081  0.00  0.00    +0.007 C 
ATOM      7  C   UNL     1      33.571 -11.245 -21.748  0.00  0.00    +0.007 C 
ATOM      8  C   UNL     1      32.102 -12.277 -23.480  0.00  0.00    +0.007 C 
ENDROOT
BRANCH   2  12
ATOM      9  N   UNL     1      32.142  -9.030 -23.031  0.00  0.00    -0.297 N 
ATOM     10  N   UNL     1      30.233  -9.711 -22.208  0.00  0.00    -0.133 NA
ATOM     11  N   UNL     1      30.088  -8.400 -22.614  0.00  0.00    -0.129 NA
ATOM     12  C   UNL     1      31.470 -10.071 -22.466  0.00  0.00    +0.142 A 
ATOM     13  C   UNL     1      31.243  -8.009 -23.105  0.00  0.00    +0.166 A 
ATOM     14  C   UNL     1      33.520  -9.020 -23.462  0.00  0.00    +0.133 C 
BRANCH  13  15
ATOM     15  C   UNL     1      31.544  -6.704 -23.641  0.00  0.00    +0.040 C 
ATOM     16  C   UNL     1      31.944  -5.658 -22.810  0.00  0.00    +0.074 C 
ATOM     17  C   UNL     1      31.431  -6.499 -25.016  0.00  0.00    +0.003 C 
ATOM     18  C   UNL     1      32.231  -4.406 -23.354  0.00  0.00    +0.004 C 
ATOM     19  C   UNL     1      31.718  -5.247 -25.561  0.00  0.00    +0.000 C 
ATOM     20  C   UNL     1      32.118  -4.201 -24.729  0.00  0.00    -0.000 C 
BRANCH  16  24
ATOM     21  F   UNL     1      32.296  -4.674 -20.658  0.00  0.00    -0.166 F 
ATOM     22  F   UNL     1      30.970  -6.388 -20.751  0.00  0.00    -0.166 F 
ATOM     23  F   UNL     1      33.113  -6.661 -20.998  0.00  0.00    -0.166 F 
ATOM     24  C   UNL     1      32.076  -5.840 -21.332  0.00  0.00    +0.419 C 
ENDBRANCH  16  24
ENDBRANCH  13  15
ENDBRANCH   2  12
BRANCH   1  25
ATOM     25  C   UNL     1      33.852 -15.109 -21.471  0.00  0.00    +0.002 C 
BRANCH  25  26
ATOM     26  C   UNL     1      34.615 -15.608 -22.693  0.00  0.00    +0.025 C 
BRANCH  26  27
ATOM     27  C   UNL     1      34.443 -17.109 -22.867  0.00  0.00    +0.151 C 
BRANCH  27  28
ATOM     28  S   UNL     1      35.384 -18.006 -21.673  0.00  0.00    -0.010 S 
ATOM     29  O   UNL     1      36.630 -18.423 -22.294  0.00  0.00    -0.173 OA
ATOM     30  O   UNL     1      35.395 -17.244 -20.435  0.00  0.00    -0.173 OA
BRANCH  28  31
ATOM     31  C   UNL     1      34.409 -19.467 -21.394  0.00  0.00    +0.151 C 
ATOM     32  C   UNL     1      34.898 -20.239 -20.189  0.00  0.00    +0.027 C 
ENDBRANCH  28  31
ENDBRANCH  27  28
ENDBRANCH  26  27
ENDBRANCH  25  26
ENDBRANCH   1  25
TORSDOF 8
ENDMDL
MODEL 4
REMARK VINA RESULT:      -9.6      5.306      9.343
REMARK  Name = 22591684
REMARK  8 active torsions:
REMARK  status: ('A' for Active; 'I' for Inactive)
REMARK    1  A    between atoms: C_1  and  C_25
REMARK    2  A    between atoms: C_2  and  C_12
REMARK    3  A    between atoms: C_13  and  C_15
REMARK    4  A    between atoms: C_16  and  C_24
REMARK    5  A    between atoms: C_25  and  C_26
REMARK    6  A    between atoms: C_26  and  C_27
REMARK    7  A    between atoms: C_27  and  S_28
REMARK    8  A    between atoms: S_28  and  C_31
REMARK                            x       y       z     vdW  Elec       q    Type
REMARK                         _______ _______ _______ _____ _____    ______ ____
ROOT
ATOM      1  C   UNL     1      33.213 -13.729 -21.764  0.00  0.00    +0.000 C 
ATOM      2  C   UNL     1      32.110 -11.363 -22.235  0.00  0.00    +0.053 C 
ATOM      3  C   UNL     1      32.744 -13.625 -23.229  0.00  0.00    +0.000 C 
ATOM      4  C   UNL     1      31.990 -13.514 -20.855  0.00  0.00    +0.000 C 
ATOM      5  C   UNL     1      34.218 -12.592 -21.490  0.00  0.00    +0.000 C 
ATOM      6  C   UNL     1      32.097 -12.261 -23.503  0.00  0.00    +0.007 C 
ATOM      7  C   UNL     1      31.350 -12.145 -21.124  0.00  0.00    +0.007 C 
ATOM      8  C   UNL     1      33.580 -11.221 -21.754  0.00  0.00    +0.007 C 
ENDROOT
BRANCH   2  12
ATOM      9  N   UNL     1      32.164  -9.002 -23.055  0.00  0.00    -0.297 N 
ATOM     10  N   UNL     1      30.253  -9.685 -22.237  0.00  0.00    -0.133 NA
ATOM     11  N   UNL     1      30.109  -8.373 -22.641  0.00  0.00    -0.129 NA
ATOM     12  C   UNL     1      31.491 -10.044 -22.493  0.00  0.00    +0.142 A 
ATOM     13  C   UNL     1      31.265  -7.981 -23.128  0.00  0.00    +0.166 A 
ATOM     14  C   UNL     1      33.543  -8.991 -23.482  0.00  0.00    +0.133 C 
BRANCH  13  15
ATOM     15  C   UNL     1      31.567  -6.675 -23.662  0.00  0.00    +0.040 C 
ATOM     16  C   UNL     1      31.954  -5.628 -22.826  0.00  0.00    +0.074 C 
ATOM     17  C   UNL     1      31.468  -6.471 -25.038  0.00  0.00    +0.003 C 
ATOM     18  C   UNL     1      32.243  -4.374 -23.367  0.00  0.00    +0.004 C 
ATOM     19  C   UNL     1      31.756  -5.217 -25.579  0.00  0.00    +0.000 C 
ATOM     20  C   UNL     1      32.143  -4.170 -24.744  0.00  0.00    -0.000 C 
BRANCH  16  24
ATOM     21  F   UNL     1      32.315  -4.647 -20.674  0.00  0.00    -0.166 F 
ATOM     22  F   UNL     1      30.949  -6.329 -20.773  0.00  0.00    -0.166 F 
ATOM     23  F   UNL     1      33.086  -6.655 -21.004  0.00  0.00    -0.166 F 
ATOM     24  C   UNL     1      32.072  -5.810 -21.347  0.00  0.00    +0.419 C 
ENDBRANCH  16  24
ENDBRANCH  13  15
ENDBRANCH   2  12
BRANCH   1  25
ATOM     25  C   UNL     1      33.853 -15.092 -21.497  0.00  0.00    +0.002 C 
BRANCH  25  26
ATOM     26  C   UNL     1      34.627 -15.584 -22.714  0.00  0.00    +0.025 C 
BRANCH  26  27
ATOM     27  C   UNL     1      34.464 -17.086 -22.891  0.00  0.00    +0.151 C 
BRANCH  27  28
ATOM     28  S   UNL     1      35.382 -17.980 -21.676  0.00  0.00    -0.010 S 
ATOM     29  O   UNL     1      36.628 -18.420 -22.280  0.00  0.00    -0.173 OA
ATOM     30  O   UNL     1      35.391 -17.200 -20.449  0.00  0.00    -0.173 OA
BRANCH  28  31
ATOM     31  C   UNL     1      34.385 -19.424 -21.387  0.00  0.00    +0.151 C 
ATOM     32  C   UNL     1      34.896 -20.224 -20.209  0.00  0.00    +0.027 C 
ENDBRANCH  28  31
ENDBRANCH  27  28
ENDBRANCH  26  27
ENDBRANCH  25  26
ENDBRANCH   1  25
TORSDOF 8
ENDMDL
MODEL 5
REMARK VINA RESULT:      -8.9      5.107      8.947
REMARK  Name = 22591684
REMARK  8 active torsions:
REMARK  status: ('A' for Active; 'I' for Inactive)
REMARK    1  A    between atoms: C_1  and  C_25
REMARK    2  A    between atoms: C_2  and  C_12
REMARK    3  A    between atoms: C_13  and  C_15
REMARK    4  A    between atoms: C_16  and  C_24
REMARK    5  A    between atoms: C_25  and  C_26
REMARK    6  A    between atoms: C_26  and  C_27
REMARK    7  A    between atoms: C_27  and  S_28
REMARK    8  A    between atoms: S_28  and  C_31
REMARK                            x       y       z     vdW  Elec       q    Type
REMARK                         _______ _______ _______ _____ _____    ______ ____
ROOT
ATOM      1  C   UNL     1      31.197 -10.348 -21.643  0.00  0.00    +0.000 C 
ATOM      2  C   UNL     1      31.599  -7.793 -22.235  0.00  0.00    +0.053 C 
ATOM      3  C   UNL     1      31.474  -9.527 -20.368  0.00  0.00    +0.000 C 
ATOM      4  C   UNL     1      32.409 -10.196 -22.580  0.00  0.00    +0.000 C 
ATOM      5  C   UNL     1      29.966  -9.750 -22.353  0.00  0.00    +0.000 C 
ATOM      6  C   UNL     1      31.716  -8.050 -20.707  0.00  0.00    +0.007 C 
ATOM      7  C   UNL     1      32.643  -8.719 -22.925  0.00  0.00    +0.007 C 
ATOM      8  C   UNL     1      30.199  -8.273 -22.705  0.00  0.00    +0.007 C 
ENDROOT
BRANCH   2  12
ATOM      9  N   UNL     1      31.740  -5.879 -23.837  0.00  0.00    -0.297 N 
ATOM     10  N   UNL     1      32.135  -5.400 -21.739  0.00  0.00    -0.133 NA
ATOM     11  N   UNL     1      32.253  -4.241 -22.479  0.00  0.00    -0.129 NA
ATOM     12  C   UNL     1      31.828  -6.370 -22.570  0.00  0.00    +0.142 A 
ATOM     13  C   UNL     1      32.012  -4.548 -23.734  0.00  0.00    +0.166 A 
ATOM     14  C   UNL     1      31.422  -6.621 -25.033  0.00  0.00    +0.133 C 
BRANCH  13  15
ATOM     15  C   UNL     1      32.031  -3.639 -24.854  0.00  0.00    +0.040 C 
ATOM     16  C   UNL     1      33.146  -3.543 -25.685  0.00  0.00    +0.074 C 
ATOM     17  C   UNL     1      30.907  -2.850 -25.100  0.00  0.00    +0.003 C 
ATOM     18  C   UNL     1      33.139  -2.656 -26.763  0.00  0.00    +0.004 C 
ATOM     19  C   UNL     1      30.900  -1.963 -26.177  0.00  0.00    +0.000 C 
ATOM     20  C   UNL     1      32.015  -1.867 -27.008  0.00  0.00    -0.000 C 
BRANCH  16  24
ATOM     21  F   UNL     1      34.667  -4.544 -24.132  0.00  0.00    -0.166 F 
ATOM     22  F   UNL     1      34.276  -5.631 -25.968  0.00  0.00    -0.166 F 
ATOM     23  F   UNL     1      35.484  -3.825 -26.016  0.00  0.00    -0.166 F 
ATOM     24  C   UNL     1      34.369  -4.372 -25.453  0.00  0.00    +0.419 C 
ENDBRANCH  16  24
ENDBRANCH  13  15
ENDBRANCH   2  12
BRANCH   1  25
ATOM     25  C   UNL     1      30.960 -11.818 -21.298  0.00  0.00    +0.002 C 
BRANCH  25  26
ATOM     26  C   UNL     1      31.883 -12.275 -20.174  0.00  0.00    +0.025 C 
BRANCH  26  27
ATOM     27  C   UNL     1      32.123 -13.776 -20.243  0.00  0.00    +0.151 C 
BRANCH  27  28
ATOM     28  S   UNL     1      33.735 -14.141 -20.862  0.00  0.00    -0.010 S 
ATOM     29  O   UNL     1      34.584 -12.983 -20.634  0.00  0.00    -0.173 OA
ATOM     30  O   UNL     1      34.125 -15.452 -20.369  0.00  0.00    -0.173 OA
BRANCH  28  31
ATOM     31  C   UNL     1      33.481 -14.282 -22.616  0.00  0.00    +0.151 C 
ATOM     32  C   UNL     1      34.481 -15.225 -23.248  0.00  0.00    +0.027 C 
ENDBRANCH  28  31
ENDBRANCH  27  28
ENDBRANCH  26  27
ENDBRANCH  25  26
ENDBRANCH   1  25
TORSDOF 8
ENDMDL
MODEL 6
REMARK VINA RESULT:      -8.5      7.048     10.650
REMARK  Name = 22591684
REMARK  8 active torsions:
REMARK  status: ('A' for Active; 'I' for Inactive)
REMARK    1  A    between atoms: C_1  and  C_25
REMARK    2  A    between atoms: C_2  and  C_12
REMARK    3  A    between atoms: C_13  and  C_15
REMARK    4  A    between atoms: C_16  and  C_24
REMARK    5  A    between atoms: C_25  and  C_26
REMARK    6  A    between atoms: C_26  and  C_27
REMARK    7  A    between atoms: C_27  and  S_28
REMARK    8  A    between atoms: S_28  and  C_31
REMARK                            x       y       z     vdW  Elec       q    Type
REMARK                         _______ _______ _______ _____ _____    ______ ____
ROOT
ATOM      1  C   UNL     1      34.495 -17.172 -23.163  0.00  0.00    +0.000 C 
ATOM      2  C   UNL     1      34.971 -18.941 -21.244  0.00  0.00    +0.053 C 
ATOM      3  C   UNL     1      35.951 -17.675 -23.231  0.00  0.00    +0.000 C 
ATOM      4  C   UNL     1      34.273 -16.538 -21.779  0.00  0.00    +0.000 C 
ATOM      5  C   UNL     1      33.551 -18.386 -23.289  0.00  0.00    +0.000 C 
ATOM      6  C   UNL     1      36.233 -18.692 -22.116  0.00  0.00    +0.007 C 
ATOM      7  C   UNL     1      34.547 -17.559 -20.666  0.00  0.00    +0.007 C 
ATOM      8  C   UNL     1      33.819 -19.407 -22.175  0.00  0.00    +0.007 C 
ENDROOT
BRANCH   2  12
ATOM      9  N   UNL     1      34.253 -20.460 -19.393  0.00  0.00    -0.297 N 
ATOM     10  N   UNL     1      36.401 -20.411 -19.810  0.00  0.00    -0.133 NA
ATOM     11  N   UNL     1      36.180 -21.293 -18.771  0.00  0.00    -0.129 NA
ATOM     12  C   UNL     1      35.235 -19.923 -20.169  0.00  0.00    +0.142 A 
ATOM     13  C   UNL     1      34.887 -21.309 -18.536  0.00  0.00    +0.166 A 
ATOM     14  C   UNL     1      32.838 -20.184 -19.472  0.00  0.00    +0.133 C 
BRANCH  13  15
ATOM     15  C   UNL     1      34.212 -22.090 -17.528  0.00  0.00    +0.040 C 
ATOM     16  C   UNL     1      34.805 -22.334 -16.290  0.00  0.00    +0.074 C 
ATOM     17  C   UNL     1      32.946 -22.603 -17.809  0.00  0.00    +0.003 C 
ATOM     18  C   UNL     1      34.131 -23.092 -15.331  0.00  0.00    +0.004 C 
ATOM     19  C   UNL     1      32.272 -23.362 -16.851  0.00  0.00    +0.000 C 
ATOM     20  C   UNL     1      32.865 -23.606 -15.612  0.00  0.00    -0.000 C 
BRANCH  16  24
ATOM     21  F   UNL     1      36.522 -22.017 -14.654  0.00  0.00    -0.166 F 
ATOM     22  F   UNL     1      37.160 -22.348 -16.700  0.00  0.00    -0.166 F 
ATOM     23  F   UNL     1      36.252 -20.453 -16.141  0.00  0.00    -0.166 F 
ATOM     24  C   UNL     1      36.160 -21.801 -15.952  0.00  0.00    +0.419 C 
ENDBRANCH  16  24
ENDBRANCH  13  15
ENDBRANCH   2  12
BRANCH   1  25
ATOM     25  C   UNL     1      34.221 -16.158 -24.274  0.00  0.00    +0.002 C 
BRANCH  25  26
ATOM     26  C   UNL     1      34.298 -14.730 -23.746  0.00  0.00    +0.025 C 
BRANCH  26  27
ATOM     27  C   UNL     1      33.021 -13.965 -24.057  0.00  0.00    +0.151 C 
BRANCH  27  28
ATOM     28  S   UNL     1      32.794 -12.613 -22.945  0.00  0.00    -0.010 S 
ATOM     29  O   UNL     1      33.617 -11.506 -23.400  0.00  0.00    -0.173 OA
ATOM     30  O   UNL     1      31.367 -12.435 -22.732  0.00  0.00    -0.173 OA
BRANCH  28  31
ATOM     31  C   UNL     1      33.492 -13.211 -21.422  0.00  0.00    +0.151 C 
ATOM     32  C   UNL     1      32.422 -13.465 -20.384  0.00  0.00    +0.027 C 
ENDBRANCH  28  31
ENDBRANCH  27  28
ENDBRANCH  26  27
ENDBRANCH  25  26
ENDBRANCH   1  25
TORSDOF 8
ENDMDL
MODEL 7
REMARK VINA RESULT:      -8.4     11.100     14.873
REMARK  Name = 22591684
REMARK  8 active torsions:
REMARK  status: ('A' for Active; 'I' for Inactive)
REMARK    1  A    between atoms: C_1  and  C_25
REMARK    2  A    between atoms: C_2  and  C_12
REMARK    3  A    between atoms: C_13  and  C_15
REMARK    4  A    between atoms: C_16  and  C_24
REMARK    5  A    between atoms: C_25  and  C_26
REMARK    6  A    between atoms: C_26  and  C_27
REMARK    7  A    between atoms: C_27  and  S_28
REMARK    8  A    between atoms: S_28  and  C_31
REMARK                            x       y       z     vdW  Elec       q    Type
REMARK                         _______ _______ _______ _____ _____    ______ ____
ROOT
ATOM      1  C   UNL     1      33.355 -21.421 -19.557  0.00  0.00    +0.000 C 
ATOM      2  C   UNL     1      33.532 -22.560 -17.168  0.00  0.00    +0.053 C 
ATOM      3  C   UNL     1      32.136 -21.057 -18.685  0.00  0.00    +0.000 C 
ATOM      4  C   UNL     1      33.404 -22.954 -19.692  0.00  0.00    +0.000 C 
ATOM      5  C   UNL     1      34.634 -20.966 -18.826  0.00  0.00    +0.000 C 
ATOM      6  C   UNL     1      32.230 -21.721 -17.305  0.00  0.00    +0.007 C 
ATOM      7  C   UNL     1      33.506 -23.615 -18.311  0.00  0.00    +0.007 C 
ATOM      8  C   UNL     1      34.743 -21.629 -17.446  0.00  0.00    +0.007 C 
ENDROOT
BRANCH   2  12
ATOM      9  N   UNL     1      34.755 -23.155 -15.070  0.00  0.00    -0.297 N 
ATOM     10  N   UNL     1      32.695 -23.880 -15.213  0.00  0.00    -0.133 NA
ATOM     11  N   UNL     1      33.218 -24.292 -14.004  0.00  0.00    -0.129 NA
ATOM     12  C   UNL     1      33.630 -23.201 -15.837  0.00  0.00    +0.142 A 
ATOM     13  C   UNL     1      34.453 -23.848 -13.937  0.00  0.00    +0.166 A 
ATOM     14  C   UNL     1      36.001 -22.503 -15.397  0.00  0.00    +0.133 C 
BRANCH  13  15
ATOM     15  C   UNL     1      35.375 -24.051 -12.845  0.00  0.00    +0.040 C 
ATOM     16  C   UNL     1      36.378 -25.016 -12.920  0.00  0.00    +0.074 C 
ATOM     17  C   UNL     1      35.250 -23.260 -11.703  0.00  0.00    +0.003 C 
ATOM     18  C   UNL     1      37.258 -25.192 -11.851  0.00  0.00    +0.004 C 
ATOM     19  C   UNL     1      36.130 -23.436 -10.634  0.00  0.00    +0.000 C 
ATOM     20  C   UNL     1      37.133 -24.402 -10.708  0.00  0.00    -0.000 C 
BRANCH  16  24
ATOM     21  F   UNL     1      35.362 -26.195 -14.737  0.00  0.00    -0.166 F 
ATOM     22  F   UNL     1      37.311 -25.316 -15.101  0.00  0.00    -0.166 F 
ATOM     23  F   UNL     1      37.135 -27.076 -13.836  0.00  0.00    -0.166 F 
ATOM     24  C   UNL     1      36.542 -25.883 -14.128  0.00  0.00    +0.419 C 
ENDBRANCH  16  24
ENDBRANCH  13  15
ENDBRANCH   2  12
BRANCH   1  25
ATOM     25  C   UNL     1      33.254 -20.759 -20.932  0.00  0.00    +0.002 C 
BRANCH  25  26
ATOM     26  C   UNL     1      33.549 -19.266 -20.846  0.00  0.00    +0.025 C 
BRANCH  26  27
ATOM     27  C   UNL     1      34.226 -18.773 -22.115  0.00  0.00    +0.151 C 
BRANCH  27  28
ATOM     28  S   UNL     1      35.346 -17.452 -21.774  0.00  0.00    -0.010 S 
ATOM     29  O   UNL     1      35.051 -16.935 -20.448  0.00  0.00    -0.173 OA
ATOM     30  O   UNL     1      36.689 -17.895 -22.112  0.00  0.00    -0.173 OA
BRANCH  28  31
ATOM     31  C   UNL     1      34.881 -16.203 -22.952  0.00  0.00    +0.151 C 
ATOM     32  C   UNL     1      34.190 -15.037 -22.281  0.00  0.00    +0.027 C 
ENDBRANCH  28  31
ENDBRANCH  27  28
ENDBRANCH  26  27
ENDBRANCH  25  26
ENDBRANCH   1  25
TORSDOF 8
ENDMDL
MODEL 8
REMARK VINA RESULT:      -8.4      1.828      2.268
REMARK  Name = 22591684
REMARK  8 active torsions:
REMARK  status: ('A' for Active; 'I' for Inactive)
REMARK    1  A    between atoms: C_1  and  C_25
REMARK    2  A    between atoms: C_2  and  C_12
REMARK    3  A    between atoms: C_13  and  C_15
REMARK    4  A    between atoms: C_16  and  C_24
REMARK    5  A    between atoms: C_25  and  C_26
REMARK    6  A    between atoms: C_26  and  C_27
REMARK    7  A    between atoms: C_27  and  S_28
REMARK    8  A    between atoms: S_28  and  C_31
REMARK                            x       y       z     vdW  Elec       q    Type
REMARK                         _______ _______ _______ _____ _____    ______ ____
ROOT
ATOM      1  C   UNL     1      31.799  -5.887 -22.633  0.00  0.00    +0.000 C 
ATOM      2  C   UNL     1      31.657  -8.526 -22.403  0.00  0.00    +0.053 C 
ATOM      3  C   UNL     1      31.609  -6.299 -21.160  0.00  0.00    +0.000 C 
ATOM      4  C   UNL     1      30.609  -6.435 -23.440  0.00  0.00    +0.000 C 
ATOM      5  C   UNL     1      33.084  -6.554 -23.166  0.00  0.00    +0.000 C 
ATOM      6  C   UNL     1      31.517  -7.824 -21.023  0.00  0.00    +0.007 C 
ATOM      7  C   UNL     1      30.524  -7.963 -23.308  0.00  0.00    +0.007 C 
ATOM      8  C   UNL     1      33.001  -8.082 -23.041  0.00  0.00    +0.007 C 
ENDROOT
BRANCH   2  12
ATOM      9  N   UNL     1      32.624 -10.828 -22.521  0.00  0.00    -0.297 N 
ATOM     10  N   UNL     1      30.522 -10.705 -21.926  0.00  0.00    -0.133 NA
ATOM     11  N   UNL     1      30.893 -12.035 -21.940  0.00  0.00    -0.129 NA
ATOM     12  C   UNL     1      31.572  -9.998 -22.277  0.00  0.00    +0.142 A 
ATOM     13  C   UNL     1      32.156 -12.088 -22.298  0.00  0.00    +0.166 A 
ATOM     14  C   UNL     1      33.955 -10.444 -22.928  0.00  0.00    +0.133 C 
BRANCH  13  15
ATOM     15  C   UNL     1      32.951 -13.283 -22.448  0.00  0.00    +0.040 C 
ATOM     16  C   UNL     1      33.220 -13.816 -23.708  0.00  0.00    +0.074 C 
ATOM     17  C   UNL     1      33.455 -13.904 -21.305  0.00  0.00    +0.003 C 
ATOM     18  C   UNL     1      33.993 -14.973 -23.825  0.00  0.00    +0.004 C 
ATOM     19  C   UNL     1      34.227 -15.060 -21.422  0.00  0.00    +0.000 C 
ATOM     20  C   UNL     1      34.496 -15.594 -22.682  0.00  0.00    -0.000 C 
BRANCH  16  24
ATOM     21  F   UNL     1      33.239 -11.951 -25.206  0.00  0.00    -0.166 F 
ATOM     22  F   UNL     1      32.935 -13.913 -26.080  0.00  0.00    -0.166 F 
ATOM     23  F   UNL     1      31.348 -12.986 -24.917  0.00  0.00    -0.166 F 
ATOM     24  C   UNL     1      32.698 -13.179 -24.955  0.00  0.00    +0.419 C 
ENDBRANCH  16  24
ENDBRANCH  13  15
ENDBRANCH   2  12
BRANCH   1  25
ATOM     25  C   UNL     1      31.887  -4.367 -22.763  0.00  0.00    +0.002 C 
BRANCH  25  26
ATOM     26  C   UNL     1      31.300  -3.893 -24.087  0.00  0.00    +0.025 C 
BRANCH  26  27
ATOM     27  C   UNL     1      32.008  -2.640 -24.580  0.00  0.00    +0.151 C 
BRANCH  27  28
ATOM     28  S   UNL     1      32.686  -2.877 -26.192  0.00  0.00    -0.010 S 
ATOM     29  O   UNL     1      31.589  -3.070 -27.124  0.00  0.00    -0.173 OA
ATOM     30  O   UNL     1      33.679  -1.840 -26.424  0.00  0.00    -0.173 OA
BRANCH  28  31
ATOM     31  C   UNL     1      33.551  -4.425 -26.052  0.00  0.00    +0.151 C 
ATOM     32  C   UNL     1      32.851  -5.522 -26.823  0.00  0.00    +0.027 C 
ENDBRANCH  28  31
ENDBRANCH  27  28
ENDBRANCH  26  27
ENDBRANCH  25  26
ENDBRANCH   1  25
TORSDOF 8
ENDMDL
MODEL 9
REMARK VINA RESULT:      -8.3      5.478      9.103
REMARK  Name = 22591684
REMARK  8 active torsions:
REMARK  status: ('A' for Active; 'I' for Inactive)
REMARK    1  A    between atoms: C_1  and  C_25
REMARK    2  A    between atoms: C_2  and  C_12
REMARK    3  A    between atoms: C_13  and  C_15
REMARK    4  A    between atoms: C_16  and  C_24
REMARK    5  A    between atoms: C_25  and  C_26
REMARK    6  A    between atoms: C_26  and  C_27
REMARK    7  A    between atoms: C_27  and  S_28
REMARK    8  A    between atoms: S_28  and  C_31
REMARK                            x       y       z     vdW  Elec       q    Type
REMARK                         _______ _______ _______ _____ _____    ______ ____
ROOT
ATOM      1  C   UNL     1      31.231  -9.906 -21.690  0.00  0.00    +0.000 C 
ATOM      2  C   UNL     1      32.033  -7.640 -22.813  0.00  0.00    +0.053 C 
ATOM      3  C   UNL     1      31.764  -8.926 -20.626  0.00  0.00    +0.000 C 
ATOM      4  C   UNL     1      32.361 -10.175 -22.700  0.00  0.00    +0.000 C 
ATOM      5  C   UNL     1      30.069  -9.226 -22.443  0.00  0.00    +0.000 C 
ATOM      6  C   UNL     1      32.238  -7.618 -21.272  0.00  0.00    +0.007 C 
ATOM      7  C   UNL     1      32.827  -8.866 -23.351  0.00  0.00    +0.007 C 
ATOM      8  C   UNL     1      30.533  -7.918 -23.101  0.00  0.00    +0.007 C 
ENDROOT
BRANCH   2  12
ATOM      9  N   UNL     1      32.046  -5.956 -24.660  0.00  0.00    -0.297 N 
ATOM     10  N   UNL     1      33.337  -5.509 -22.951  0.00  0.00    -0.133 NA
ATOM     11  N   UNL     1      33.463  -4.486 -23.870  0.00  0.00    -0.129 NA
ATOM     12  C   UNL     1      32.485  -6.380 -23.442  0.00  0.00    +0.142 A 
ATOM     13  C   UNL     1      32.681  -4.772 -24.887  0.00  0.00    +0.166 A 
ATOM     14  C   UNL     1      31.103  -6.628 -25.523  0.00  0.00    +0.133 C 
BRANCH  13  15
ATOM     15  C   UNL     1      32.505  -3.977 -26.078  0.00  0.00    +0.040 C 
ATOM     16  C   UNL     1      31.572  -2.942 -26.121  0.00  0.00    +0.074 C 
ATOM     17  C   UNL     1      33.288  -4.259 -27.198  0.00  0.00    +0.003 C 
ATOM     18  C   UNL     1      31.421  -2.187 -27.285  0.00  0.00    +0.004 C 
ATOM     19  C   UNL     1      33.137  -3.504 -28.362  0.00  0.00    +0.000 C 
ATOM     20  C   UNL     1      32.204  -2.468 -28.405  0.00  0.00    -0.000 C 
BRANCH  16  24
ATOM     21  F   UNL     1      31.391  -1.979 -23.938  0.00  0.00    -0.166 F 
ATOM     22  F   UNL     1      29.670  -1.789 -25.243  0.00  0.00    -0.166 F 
ATOM     23  F   UNL     1      30.161  -3.720 -24.372  0.00  0.00    -0.166 F 
ATOM     24  C   UNL     1      30.715  -2.611 -24.941  0.00  0.00    +0.419 C 
ENDBRANCH  16  24
ENDBRANCH  13  15
ENDBRANCH   2  12
BRANCH   1  25
ATOM     25  C   UNL     1      30.763 -11.209 -21.040  0.00  0.00    +0.002 C 
BRANCH  25  26
ATOM     26  C   UNL     1      31.902 -11.887 -20.288  0.00  0.00    +0.025 C 
BRANCH  26  27
ATOM     27  C   UNL     1      31.995 -13.360 -20.654  0.00  0.00    +0.151 C 
BRANCH  27  28
ATOM     28  S   UNL     1      33.655 -13.826 -21.030  0.00  0.00    -0.010 S 
ATOM     29  O   UNL     1      34.552 -12.944 -20.301  0.00  0.00    -0.173 OA
ATOM     30  O   UNL     1      33.765 -15.269 -20.892  0.00  0.00    -0.173 OA
BRANCH  28  31
ATOM     31  C   UNL     1      33.810 -13.440 -22.759  0.00  0.00    +0.151 C 
ATOM     32  C   UNL     1      33.523 -14.647 -23.624  0.00  0.00    +0.027 C 
ENDBRANCH  28  31
ENDBRANCH  27  28
ENDBRANCH  26  27
ENDBRANCH  25  26
ENDBRANCH   1  25
TORSDOF 8
ENDMDL
