MODEL 1
REMARK VINA RESULT:     -11.5      0.000      0.000
REMARK  Name = 46937102
REMARK  8 active torsions:
REMARK  status: ('A' for Active; 'I' for Inactive)
REMARK    1  A    between atoms: C_1  and  C_6
REMARK    2  A    between atoms: C_1  and  N_17
REMARK    3  A    between atoms: C_1  and  C_26
REMARK    4  A    between atoms: N_3  and  C_8
REMARK    5  A    between atoms: C_8  and  C_10
REMARK    6  A    between atoms: C_8  and  C_12
REMARK    7  A    between atoms: C_12  and  C_13
REMARK    8  A    between atoms: C_18  and  C_20
REMARK                            x       y       z     vdW  Elec       q    Type
REMARK                         _______ _______ _______ _____ _____    ______ ____
ROOT
ATOM      1  C   UNL     1      34.992 -17.983 -21.951  0.00  0.00    +0.091 C 
ATOM      2  C   UNL     1      36.515 -17.955 -22.343  0.00  0.00    +0.026 C 
ENDROOT
BRANCH   1   6
ATOM      3  N   UNL     1      33.812 -14.621 -21.478  0.00  0.00    -0.157 NA
ATOM      4  N   UNL     1      34.505 -16.251 -20.256  0.00  0.00    -0.152 NA
ATOM      5  N   UNL     1      34.056 -15.001 -20.213  0.00  0.00    -0.063 NA
ATOM      6  C   UNL     1      34.537 -16.641 -21.565  0.00  0.00    +0.091 C 
ATOM      7  C   UNL     1      34.097 -15.614 -22.363  0.00  0.00    +0.140 C 
BRANCH   3   8
ATOM      8  C   UNL     1      33.288 -13.229 -21.782  0.00  0.00    +0.141 C 
BRANCH   8  10
ATOM      9  O   UNL     1      33.010 -13.908 -24.094  0.00  0.00    -0.295 OA
ATOM     10  C   UNL     1      33.221 -12.997 -23.293  0.00  0.00    +0.167 C 
ATOM     11  C   UNL     1      33.398 -11.577 -23.773  0.00  0.00    +0.074 C 
ENDBRANCH   8  10
BRANCH   8  12
ATOM     12  C   UNL     1      31.921 -12.955 -21.120  0.00  0.00    +0.051 C 
BRANCH  12  13
ATOM     13  C   UNL     1      31.947 -11.750 -20.220  0.00  0.00    -0.029 C 
ATOM     14  C   UNL     1      31.193 -10.658 -20.414  0.00  0.00    -0.030 C 
ATOM     15  C   UNL     1      31.219  -9.461 -19.522  0.00  0.00    +0.030 C 
ENDBRANCH  12  13
ENDBRANCH   8  12
ENDBRANCH   3   8
ENDBRANCH   1   6
BRANCH   1  17
ATOM     16  O   UNL     1      32.690 -19.536 -21.222  0.00  0.00    -0.270 OA
ATOM     17  N   UNL     1      34.912 -19.000 -20.866  0.00  0.00    -0.299 N 
ATOM     18  C   UNL     1      33.751 -19.672 -20.621  0.00  0.00    +0.246 C 
ATOM     19  H   UNL     1      35.708 -19.189 -20.319  0.00  0.00    +0.150 HD
BRANCH  18  20
ATOM     20  C   UNL     1      33.828 -20.631 -19.490  0.00  0.00    +0.053 C 
ATOM     21  C   UNL     1      32.664 -21.213 -18.988  0.00  0.00    +0.005 C 
ATOM     22  C   UNL     1      35.065 -20.951 -18.929  0.00  0.00    +0.005 C 
ATOM     23  C   UNL     1      32.736 -22.115 -17.927  0.00  0.00    +0.000 C 
ATOM     24  C   UNL     1      35.137 -21.852 -17.868  0.00  0.00    +0.000 C 
ATOM     25  C   UNL     1      33.973 -22.435 -17.366  0.00  0.00    +0.000 C 
ENDBRANCH  18  20
ENDBRANCH   1  17
BRANCH   1  26
ATOM     26  C   UNL     1      34.175 -18.600 -23.183  0.00  0.00    +0.022 C 
ATOM     27  C   UNL     1      34.866 -19.746 -23.939  0.00  0.00    +0.002 C 
ATOM     28  C   UNL     1      33.766 -17.521 -24.201  0.00  0.00    +0.002 C 
ENDBRANCH   1  26
TORSDOF 8
ENDMDL
MODEL 2
REMARK VINA RESULT:     -10.7      6.352     10.945
REMARK  Name = 46937102
REMARK  8 active torsions:
REMARK  status: ('A' for Active; 'I' for Inactive)
REMARK    1  A    between atoms: C_1  and  C_6
REMARK    2  A    between atoms: C_1  and  N_17
REMARK    3  A    between atoms: C_1  and  C_26
REMARK    4  A    between atoms: N_3  and  C_8
REMARK    5  A    between atoms: C_8  and  C_10
REMARK    6  A    between atoms: C_8  and  C_12
REMARK    7  A    between atoms: C_12  and  C_13
REMARK    8  A    between atoms: C_18  and  C_20
REMARK                            x       y       z     vdW  Elec       q    Type
REMARK                         _______ _______ _______ _____ _____    ______ ____
ROOT
ATOM      1  C   UNL     1      31.845 -22.853 -14.778  0.00  0.00    +0.091 C 
ATOM      2  C   UNL     1      30.990 -21.851 -13.921  0.00  0.00    +0.026 C 
ENDROOT
BRANCH   1   6
ATOM      3  N   UNL     1      34.964 -23.887 -13.319  0.00  0.00    -0.157 NA
ATOM      4  N   UNL     1      32.906 -23.711 -12.716  0.00  0.00    -0.152 NA
ATOM      5  N   UNL     1      34.115 -24.066 -12.294  0.00  0.00    -0.063 NA
ATOM      6  C   UNL     1      33.017 -23.310 -14.018  0.00  0.00    +0.091 C 
ATOM      7  C   UNL     1      34.324 -23.413 -14.423  0.00  0.00    +0.140 C 
BRANCH   3   8
ATOM      8  C   UNL     1      36.440 -24.208 -13.169  0.00  0.00    +0.141 C 
BRANCH   8  10
ATOM      9  O   UNL     1      36.627 -25.989 -11.534  0.00  0.00    -0.295 OA
ATOM     10  C   UNL     1      36.633 -25.658 -12.720  0.00  0.00    +0.167 C 
ATOM     11  C   UNL     1      36.805 -26.690 -13.806  0.00  0.00    +0.074 C 
ENDBRANCH   8  10
BRANCH   8  12
ATOM     12  C   UNL     1      37.242 -23.916 -14.455  0.00  0.00    +0.051 C 
BRANCH  12  13
ATOM     13  C   UNL     1      37.183 -22.468 -14.856  0.00  0.00    -0.029 C 
ATOM     14  C   UNL     1      37.137 -22.048 -16.130  0.00  0.00    -0.030 C 
ATOM     15  C   UNL     1      37.079 -20.611 -16.529  0.00  0.00    +0.030 C 
ENDBRANCH  12  13
ENDBRANCH   8  12
ENDBRANCH   3   8
ENDBRANCH   1   6
BRANCH   1  17
ATOM     16  O   UNL     1      33.126 -23.876 -17.135  0.00  0.00    -0.270 OA
ATOM     17  N   UNL     1      32.169 -22.092 -16.016  0.00  0.00    -0.299 N 
ATOM     18  C   UNL     1      32.782 -22.700 -17.071  0.00  0.00    +0.246 C 
ATOM     19  H   UNL     1      31.936 -21.137 -16.073  0.00  0.00    +0.150 HD
BRANCH  18  20
ATOM     20  C   UNL     1      33.060 -21.798 -18.218  0.00  0.00    +0.053 C 
ATOM     21  C   UNL     1      34.366 -21.647 -18.686  0.00  0.00    +0.005 C 
ATOM     22  C   UNL     1      32.016 -21.103 -18.828  0.00  0.00    +0.005 C 
ATOM     23  C   UNL     1      34.627 -20.801 -19.764  0.00  0.00    +0.000 C 
ATOM     24  C   UNL     1      32.277 -20.257 -19.905  0.00  0.00    +0.000 C 
ATOM     25  C   UNL     1      33.583 -20.106 -20.374  0.00  0.00    +0.000 C 
ENDBRANCH  18  20
ENDBRANCH   1  17
BRANCH   1  26
ATOM     26  C   UNL     1      30.886 -24.050 -15.244  0.00  0.00    +0.022 C 
ATOM     27  C   UNL     1      29.599 -23.632 -15.973  0.00  0.00    +0.002 C 
ATOM     28  C   UNL     1      30.506 -24.973 -14.073  0.00  0.00    +0.002 C 
ENDBRANCH   1  26
TORSDOF 8
ENDMDL
MODEL 3
REMARK VINA RESULT:     -10.6      6.310     11.612
REMARK  Name = 46937102
REMARK  8 active torsions:
REMARK  status: ('A' for Active; 'I' for Inactive)
REMARK    1  A    between atoms: C_1  and  C_6
REMARK    2  A    between atoms: C_1  and  N_17
REMARK    3  A    between atoms: C_1  and  C_26
REMARK    4  A    between atoms: N_3  and  C_8
REMARK    5  A    between atoms: C_8  and  C_10
REMARK    6  A    between atoms: C_8  and  C_12
REMARK    7  A    between atoms: C_12  and  C_13
REMARK    8  A    between atoms: C_18  and  C_20
REMARK                            x       y       z     vdW  Elec       q    Type
REMARK                         _______ _______ _______ _____ _____    ______ ____
ROOT
ATOM      1  C   UNL     1      31.600 -22.822 -14.954  0.00  0.00    +0.091 C 
ATOM      2  C   UNL     1      30.768 -21.781 -14.119  0.00  0.00    +0.026 C 
ENDROOT
BRANCH   1   6
ATOM      3  N   UNL     1      34.553 -24.110 -13.361  0.00  0.00    -0.157 NA
ATOM      4  N   UNL     1      32.493 -23.762 -12.849  0.00  0.00    -0.152 NA
ATOM      5  N   UNL     1      33.648 -24.216 -12.375  0.00  0.00    -0.063 NA
ATOM      6  C   UNL     1      32.694 -23.374 -14.144  0.00  0.00    +0.091 C 
ATOM      7  C   UNL     1      34.004 -23.587 -14.491  0.00  0.00    +0.140 C 
BRANCH   3   8
ATOM      8  C   UNL     1      35.989 -24.554 -13.147  0.00  0.00    +0.141 C 
BRANCH   8  10
ATOM      9  O   UNL     1      36.368 -25.778 -11.088  0.00  0.00    -0.295 OA
ATOM     10  C   UNL     1      36.295 -24.687 -11.653  0.00  0.00    +0.167 C 
ATOM     11  C   UNL     1      36.536 -23.407 -10.890  0.00  0.00    +0.074 C 
ENDBRANCH   8  10
BRANCH   8  12
ATOM     12  C   UNL     1      36.322 -25.861 -13.897  0.00  0.00    +0.051 C 
BRANCH  12  13
ATOM     13  C   UNL     1      37.780 -25.967 -14.253  0.00  0.00    -0.029 C 
ATOM     14  C   UNL     1      38.583 -24.907 -14.429  0.00  0.00    -0.030 C 
ATOM     15  C   UNL     1      40.029 -25.010 -14.782  0.00  0.00    +0.030 C 
ENDBRANCH  12  13
ENDBRANCH   8  12
ENDBRANCH   3   8
ENDBRANCH   1   6
BRANCH   1  17
ATOM     16  O   UNL     1      32.928 -23.884 -17.268  0.00  0.00    -0.270 OA
ATOM     17  N   UNL     1      32.041 -22.060 -16.154  0.00  0.00    -0.299 N 
ATOM     18  C   UNL     1      32.665 -22.688 -17.191  0.00  0.00    +0.246 C 
ATOM     19  H   UNL     1      31.880 -21.090 -16.199  0.00  0.00    +0.150 HD
BRANCH  18  20
ATOM     20  C   UNL     1      33.067 -21.783 -18.299  0.00  0.00    +0.053 C 
ATOM     21  C   UNL     1      34.410 -21.673 -18.657  0.00  0.00    +0.005 C 
ATOM     22  C   UNL     1      32.100 -21.045 -18.982  0.00  0.00    +0.005 C 
ATOM     23  C   UNL     1      34.787 -20.826 -19.700  0.00  0.00    +0.000 C 
ATOM     24  C   UNL     1      32.477 -20.198 -20.023  0.00  0.00    +0.000 C 
ATOM     25  C   UNL     1      33.820 -20.088 -20.383  0.00  0.00    +0.000 C 
ENDBRANCH  18  20
ENDBRANCH   1  17
BRANCH   1  26
ATOM     26  C   UNL     1      30.589 -23.940 -15.499  0.00  0.00    +0.022 C 
ATOM     27  C   UNL     1      29.295 -23.417 -16.142  0.00  0.00    +0.002 C 
ATOM     28  C   UNL     1      30.214 -24.959 -14.409  0.00  0.00    +0.002 C 
ENDBRANCH   1  26
TORSDOF 8
ENDMDL
MODEL 4
REMARK VINA RESULT:     -10.5      1.122      2.349
REMARK  Name = 46937102
REMARK  8 active torsions:
REMARK  status: ('A' for Active; 'I' for Inactive)
REMARK    1  A    between atoms: C_1  and  C_6
REMARK    2  A    between atoms: C_1  and  N_17
REMARK    3  A    between atoms: C_1  and  C_26
REMARK    4  A    between atoms: N_3  and  C_8
REMARK    5  A    between atoms: C_8  and  C_10
REMARK    6  A    between atoms: C_8  and  C_12
REMARK    7  A    between atoms: C_12  and  C_13
REMARK    8  A    between atoms: C_18  and  C_20
REMARK                            x       y       z     vdW  Elec       q    Type
REMARK                         _______ _______ _______ _____ _____    ______ ____
ROOT
ATOM      1  C   UNL     1      35.005 -18.178 -21.951  0.00  0.00    +0.091 C 
ATOM      2  C   UNL     1      36.538 -18.100 -22.293  0.00  0.00    +0.026 C 
ENDROOT
BRANCH   1   6
ATOM      3  N   UNL     1      33.548 -14.911 -21.596  0.00  0.00    -0.157 NA
ATOM      4  N   UNL     1      34.705 -16.276 -20.400  0.00  0.00    -0.152 NA
ATOM      5  N   UNL     1      34.123 -15.081 -20.394  0.00  0.00    -0.063 NA
ATOM      6  C   UNL     1      34.484 -16.844 -21.623  0.00  0.00    +0.091 C 
ATOM      7  C   UNL     1      33.746 -15.989 -22.403  0.00  0.00    +0.140 C 
BRANCH   3   8
ATOM      8  C   UNL     1      32.796 -13.633 -21.922  0.00  0.00    +0.141 C 
BRANCH   8  10
ATOM      9  O   UNL     1      31.618 -13.901 -19.819  0.00  0.00    -0.295 OA
ATOM     10  C   UNL     1      32.017 -13.140 -20.700  0.00  0.00    +0.167 C 
ATOM     11  C   UNL     1      31.778 -11.653 -20.600  0.00  0.00    +0.074 C 
ENDBRANCH   8  10
BRANCH   8  12
ATOM     12  C   UNL     1      33.722 -12.527 -22.471  0.00  0.00    +0.051 C 
BRANCH  12  13
ATOM     13  C   UNL     1      33.465 -12.226 -23.922  0.00  0.00    -0.029 C 
ATOM     14  C   UNL     1      32.842 -13.070 -24.759  0.00  0.00    -0.030 C 
ATOM     15  C   UNL     1      32.587 -12.774 -26.199  0.00  0.00    +0.030 C 
ENDBRANCH  12  13
ENDBRANCH   8  12
ENDBRANCH   3   8
ENDBRANCH   1   6
BRANCH   1  17
ATOM     16  O   UNL     1      32.694 -19.680 -21.147  0.00  0.00    -0.270 OA
ATOM     17  N   UNL     1      34.928 -19.164 -20.838  0.00  0.00    -0.299 N 
ATOM     18  C   UNL     1      33.762 -19.813 -20.558  0.00  0.00    +0.246 C 
ATOM     19  H   UNL     1      35.730 -19.348 -20.297  0.00  0.00    +0.150 HD
BRANCH  18  20
ATOM     20  C   UNL     1      33.844 -20.742 -19.402  0.00  0.00    +0.053 C 
ATOM     21  C   UNL     1      32.683 -21.329 -18.896  0.00  0.00    +0.005 C 
ATOM     22  C   UNL     1      35.080 -21.028 -18.822  0.00  0.00    +0.005 C 
ATOM     23  C   UNL     1      32.760 -22.203 -17.812  0.00  0.00    +0.000 C 
ATOM     24  C   UNL     1      35.156 -21.901 -17.738  0.00  0.00    +0.000 C 
ATOM     25  C   UNL     1      33.996 -22.489 -17.232  0.00  0.00    +0.000 C 
ENDBRANCH  18  20
ENDBRANCH   1  17
BRANCH   1  26
ATOM     26  C   UNL     1      34.256 -18.864 -23.190  0.00  0.00    +0.022 C 
ATOM     27  C   UNL     1      35.036 -19.974 -23.913  0.00  0.00    +0.002 C 
ATOM     28  C   UNL     1      33.799 -17.830 -24.233  0.00  0.00    +0.002 C 
ENDBRANCH   1  26
TORSDOF 8
ENDMDL
MODEL 5
REMARK VINA RESULT:     -10.3      6.277     11.347
REMARK  Name = 46937102
REMARK  8 active torsions:
REMARK  status: ('A' for Active; 'I' for Inactive)
REMARK    1  A    between atoms: C_1  and  C_6
REMARK    2  A    between atoms: C_1  and  N_17
REMARK    3  A    between atoms: C_1  and  C_26
REMARK    4  A    between atoms: N_3  and  C_8
REMARK    5  A    between atoms: C_8  and  C_10
REMARK    6  A    between atoms: C_8  and  C_12
REMARK    7  A    between atoms: C_12  and  C_13
REMARK    8  A    between atoms: C_18  and  C_20
REMARK                            x       y       z     vdW  Elec       q    Type
REMARK                         _______ _______ _______ _____ _____    ______ ____
ROOT
ATOM      1  C   UNL     1      33.395 -23.368 -15.090  0.00  0.00    +0.091 C 
ATOM      2  C   UNL     1      33.488 -22.220 -14.019  0.00  0.00    +0.026 C 
ENDROOT
BRANCH   1   6
ATOM      3  N   UNL     1      36.405 -25.247 -14.512  0.00  0.00    -0.157 NA
ATOM      4  N   UNL     1      34.596 -25.453 -15.659  0.00  0.00    -0.152 NA
ATOM      5  N   UNL     1      35.747 -26.048 -15.366  0.00  0.00    -0.063 NA
ATOM      6  C   UNL     1      34.549 -24.270 -14.976  0.00  0.00    +0.091 C 
ATOM      7  C   UNL     1      35.695 -24.119 -14.236  0.00  0.00    +0.140 C 
BRANCH   3   8
ATOM      8  C   UNL     1      37.772 -25.636 -13.979  0.00  0.00    +0.141 C 
BRANCH   8  10
ATOM      9  O   UNL     1      38.607 -23.542 -14.873  0.00  0.00    -0.295 OA
ATOM     10  C   UNL     1      38.850 -24.698 -14.526  0.00  0.00    +0.167 C 
ATOM     11  C   UNL     1      40.256 -25.244 -14.596  0.00  0.00    +0.074 C 
ENDBRANCH   8  10
BRANCH   8  12
ATOM     12  C   UNL     1      37.813 -25.686 -12.437  0.00  0.00    +0.051 C 
BRANCH  12  13
ATOM     13  C   UNL     1      37.355 -24.400 -11.806  0.00  0.00    -0.029 C 
ATOM     14  C   UNL     1      36.349 -24.320 -10.922  0.00  0.00    -0.030 C 
ATOM     15  C   UNL     1      35.894 -23.044 -10.295  0.00  0.00    +0.030 C 
ENDBRANCH  12  13
ENDBRANCH   8  12
ENDBRANCH   3   8
ENDBRANCH   1   6
BRANCH   1  17
ATOM     16  O   UNL     1      35.573 -22.325 -16.642  0.00  0.00    -0.270 OA
ATOM     17  N   UNL     1      33.296 -22.649 -16.390  0.00  0.00    -0.299 N 
ATOM     18  C   UNL     1      34.415 -22.202 -17.028  0.00  0.00    +0.246 C 
ATOM     19  H   UNL     1      32.412 -22.494 -16.792  0.00  0.00    +0.150 HD
BRANCH  18  20
ATOM     20  C   UNL     1      34.146 -21.481 -18.299  0.00  0.00    +0.053 C 
ATOM     21  C   UNL     1      32.832 -21.300 -18.733  0.00  0.00    +0.005 C 
ATOM     22  C   UNL     1      35.206 -20.984 -19.057  0.00  0.00    +0.005 C 
ATOM     23  C   UNL     1      32.579 -20.621 -19.925  0.00  0.00    +0.000 C 
ATOM     24  C   UNL     1      34.953 -20.306 -20.248  0.00  0.00    +0.000 C 
ATOM     25  C   UNL     1      33.639 -20.124 -20.683  0.00  0.00    +0.000 C 
ENDBRANCH  18  20
ENDBRANCH   1  17
BRANCH   1  26
ATOM     26  C   UNL     1      31.989 -24.111 -14.898  0.00  0.00    +0.022 C 
ATOM     27  C   UNL     1      30.755 -23.353 -15.414  0.00  0.00    +0.002 C 
ATOM     28  C   UNL     1      31.740 -24.506 -13.432  0.00  0.00    +0.002 C 
ENDBRANCH   1  26
TORSDOF 8
ENDMDL
MODEL 6
REMARK VINA RESULT:      -9.9      5.303      9.066
REMARK  Name = 46937102
REMARK  8 active torsions:
REMARK  status: ('A' for Active; 'I' for Inactive)
REMARK    1  A    between atoms: C_1  and  C_6
REMARK    2  A    between atoms: C_1  and  N_17
REMARK    3  A    between atoms: C_1  and  C_26
REMARK    4  A    between atoms: N_3  and  C_8
REMARK    5  A    between atoms: C_8  and  C_10
REMARK    6  A    between atoms: C_8  and  C_12
REMARK    7  A    between atoms: C_12  and  C_13
REMARK    8  A    between atoms: C_18  and  C_20
REMARK                            x       y       z     vdW  Elec       q    Type
REMARK                         _______ _______ _______ _____ _____    ______ ____
ROOT
ATOM      1  C   UNL     1      32.457 -23.351 -15.242  0.00  0.00    +0.091 C 
ATOM      2  C   UNL     1      31.816 -24.782 -15.132  0.00  0.00    +0.026 C 
ENDROOT
BRANCH   1   6
ATOM      3  N   UNL     1      33.644 -22.268 -18.458  0.00  0.00    -0.157 NA
ATOM      4  N   UNL     1      32.716 -24.014 -17.610  0.00  0.00    -0.152 NA
ATOM      5  N   UNL     1      33.189 -23.500 -18.740  0.00  0.00    -0.063 NA
ATOM      6  C   UNL     1      32.884 -23.084 -16.623  0.00  0.00    +0.091 C 
ATOM      7  C   UNL     1      33.476 -21.961 -17.143  0.00  0.00    +0.140 C 
BRANCH   3   8
ATOM      8  C   UNL     1      34.251 -21.398 -19.544  0.00  0.00    +0.141 C 
BRANCH   8  10
ATOM      9  O   UNL     1      32.067 -20.350 -19.665  0.00  0.00    -0.295 OA
ATOM     10  C   UNL     1      33.250 -20.336 -20.005  0.00  0.00    +0.167 C 
ATOM     11  C   UNL     1      33.784 -19.232 -20.885  0.00  0.00    +0.074 C 
ENDBRANCH   8  10
BRANCH   8  12
ATOM     12  C   UNL     1      35.582 -20.750 -19.108  0.00  0.00    +0.051 C 
BRANCH  12  13
ATOM     13  C   UNL     1      36.271 -21.526 -18.018  0.00  0.00    -0.029 C 
ATOM     14  C   UNL     1      36.703 -20.977 -16.872  0.00  0.00    -0.030 C 
ATOM     15  C   UNL     1      37.387 -21.745 -15.791  0.00  0.00    +0.030 C 
ENDBRANCH  12  13
ENDBRANCH   8  12
ENDBRANCH   3   8
ENDBRANCH   1   6
BRANCH   1  17
ATOM     16  O   UNL     1      34.954 -24.748 -15.472  0.00  0.00    -0.270 OA
ATOM     17  N   UNL     1      33.562 -23.367 -14.245  0.00  0.00    -0.299 N 
ATOM     18  C   UNL     1      34.703 -24.075 -14.477  0.00  0.00    +0.246 C 
ATOM     19  H   UNL     1      33.467 -22.859 -13.407  0.00  0.00    +0.150 HD
BRANCH  18  20
ATOM     20  C   UNL     1      35.696 -24.012 -13.374  0.00  0.00    +0.053 C 
ATOM     21  C   UNL     1      36.526 -25.104 -13.119  0.00  0.00    +0.005 C 
ATOM     22  C   UNL     1      35.800 -22.860 -12.594  0.00  0.00    +0.005 C 
ATOM     23  C   UNL     1      37.460 -25.043 -12.084  0.00  0.00    +0.000 C 
ATOM     24  C   UNL     1      36.732 -22.800 -11.560  0.00  0.00    +0.000 C 
ATOM     25  C   UNL     1      37.563 -23.891 -11.304  0.00  0.00    +0.000 C 
ENDBRANCH  18  20
ENDBRANCH   1  17
BRANCH   1  26
ATOM     26  C   UNL     1      31.392 -22.288 -14.692  0.00  0.00    +0.022 C 
ATOM     27  C   UNL     1      31.055 -22.390 -13.196  0.00  0.00    +0.002 C 
ATOM     28  C   UNL     1      30.078 -22.322 -15.491  0.00  0.00    +0.002 C 
ENDBRANCH   1  26
TORSDOF 8
ENDMDL
MODEL 7
REMARK VINA RESULT:      -9.7      5.079      9.181
REMARK  Name = 46937102
REMARK  8 active torsions:
REMARK  status: ('A' for Active; 'I' for Inactive)
REMARK    1  A    between atoms: C_1  and  C_6
REMARK    2  A    between atoms: C_1  and  N_17
REMARK    3  A    between atoms: C_1  and  C_26
REMARK    4  A    between atoms: N_3  and  C_8
REMARK    5  A    between atoms: C_8  and  C_10
REMARK    6  A    between atoms: C_8  and  C_12
REMARK    7  A    between atoms: C_12  and  C_13
REMARK    8  A    between atoms: C_18  and  C_20
REMARK                            x       y       z     vdW  Elec       q    Type
REMARK                         _______ _______ _______ _____ _____    ______ ____
ROOT
ATOM      1  C   UNL     1      31.128  -9.523 -21.461  0.00  0.00    +0.091 C 
ATOM      2  C   UNL     1      29.672  -9.953 -21.871  0.00  0.00    +0.026 C 
ENDROOT
BRANCH   1   6
ATOM      3  N   UNL     1      31.990  -7.064 -23.938  0.00  0.00    -0.157 NA
ATOM      4  N   UNL     1      33.014  -8.365 -22.563  0.00  0.00    -0.152 NA
ATOM      5  N   UNL     1      33.203  -7.442 -23.500  0.00  0.00    -0.063 NA
ATOM      6  C   UNL     1      31.668  -8.555 -22.426  0.00  0.00    +0.091 C 
ATOM      7  C   UNL     1      30.994  -7.733 -23.295  0.00  0.00    +0.140 C 
BRANCH   3   8
ATOM      8  C   UNL     1      31.851  -6.015 -25.026  0.00  0.00    +0.141 C 
BRANCH   8  10
ATOM      9  O   UNL     1      30.236  -4.504 -24.030  0.00  0.00    -0.295 OA
ATOM     10  C   UNL     1      31.386  -4.682 -24.433  0.00  0.00    +0.167 C 
ATOM     11  C   UNL     1      32.416  -3.585 -24.332  0.00  0.00    +0.074 C 
ENDBRANCH   8  10
BRANCH   8  12
ATOM     12  C   UNL     1      33.149  -5.833 -25.841  0.00  0.00    +0.051 C 
BRANCH  12  13
ATOM     13  C   UNL     1      32.903  -5.833 -27.325  0.00  0.00    -0.029 C 
ATOM     14  C   UNL     1      33.602  -5.091 -28.197  0.00  0.00    -0.030 C 
ATOM     15  C   UNL     1      33.358  -5.089 -29.669  0.00  0.00    +0.030 C 
ENDBRANCH  12  13
ENDBRANCH   8  12
ENDBRANCH   3   8
ENDBRANCH   1   6
BRANCH   1  17
ATOM     16  O   UNL     1      31.981 -11.149 -23.668  0.00  0.00    -0.270 OA
ATOM     17  N   UNL     1      31.880 -10.805 -21.382  0.00  0.00    -0.299 N 
ATOM     18  C   UNL     1      32.227 -11.483 -22.513  0.00  0.00    +0.246 C 
ATOM     19  H   UNL     1      32.130 -11.167 -20.502  0.00  0.00    +0.150 HD
BRANCH  18  20
ATOM     20  C   UNL     1      32.949 -12.757 -22.263  0.00  0.00    +0.053 C 
ATOM     21  C   UNL     1      33.484 -13.476 -23.332  0.00  0.00    +0.005 C 
ATOM     22  C   UNL     1      33.093 -13.233 -20.960  0.00  0.00    +0.005 C 
ATOM     23  C   UNL     1      34.164 -14.671 -23.098  0.00  0.00    +0.000 C 
ATOM     24  C   UNL     1      33.772 -14.428 -20.726  0.00  0.00    +0.000 C 
ATOM     25  C   UNL     1      34.308 -15.148 -21.795  0.00  0.00    +0.000 C 
ENDBRANCH  18  20
ENDBRANCH   1  17
BRANCH   1  26
ATOM     26  C   UNL     1      31.073  -8.959 -19.962  0.00  0.00    +0.022 C 
ATOM     27  C   UNL     1      31.840  -7.651 -19.710  0.00  0.00    +0.002 C 
ATOM     28  C   UNL     1      31.540 -10.005 -18.935  0.00  0.00    +0.002 C 
ENDBRANCH   1  26
TORSDOF 8
ENDMDL
MODEL 8
REMARK VINA RESULT:      -9.6      2.355      8.376
REMARK  Name = 46937102
REMARK  8 active torsions:
REMARK  status: ('A' for Active; 'I' for Inactive)
REMARK    1  A    between atoms: C_1  and  C_6
REMARK    2  A    between atoms: C_1  and  N_17
REMARK    3  A    between atoms: C_1  and  C_26
REMARK    4  A    between atoms: N_3  and  C_8
REMARK    5  A    between atoms: C_8  and  C_10
REMARK    6  A    between atoms: C_8  and  C_12
REMARK    7  A    between atoms: C_12  and  C_13
REMARK    8  A    between atoms: C_18  and  C_20
REMARK                            x       y       z     vdW  Elec       q    Type
REMARK                         _______ _______ _______ _____ _____    ______ ____
ROOT
ATOM      1  C   UNL     1      34.644 -19.057 -21.317  0.00  0.00    +0.091 C 
ATOM      2  C   UNL     1      34.386 -19.443 -22.819  0.00  0.00    +0.026 C 
ENDROOT
BRANCH   1   6
ATOM      3  N   UNL     1      33.004 -21.234 -18.974  0.00  0.00    -0.157 NA
ATOM      4  N   UNL     1      32.443 -19.768 -20.445  0.00  0.00    -0.152 NA
ATOM      5  N   UNL     1      31.957 -20.616 -19.544  0.00  0.00    -0.063 NA
ATOM      6  C   UNL     1      33.805 -19.870 -20.426  0.00  0.00    +0.091 C 
ATOM      7  C   UNL     1      34.186 -20.801 -19.492  0.00  0.00    +0.140 C 
BRANCH   3   8
ATOM      8  C   UNL     1      32.793 -22.280 -17.894  0.00  0.00    +0.141 C 
BRANCH   8  10
ATOM      9  O   UNL     1      35.173 -22.208 -17.436  0.00  0.00    -0.295 OA
ATOM     10  C   UNL     1      34.035 -22.398 -17.008  0.00  0.00    +0.167 C 
ATOM     11  C   UNL     1      33.805 -22.735 -15.555  0.00  0.00    +0.074 C 
ENDBRANCH   8  10
BRANCH   8  12
ATOM     12  C   UNL     1      31.533 -22.006 -17.045  0.00  0.00    +0.051 C 
BRANCH  12  13
ATOM     13  C   UNL     1      30.988 -23.252 -16.402  0.00  0.00    -0.029 C 
ATOM     14  C   UNL     1      29.917 -23.267 -15.595  0.00  0.00    -0.030 C 
ATOM     15  C   UNL     1      29.376 -24.502 -14.955  0.00  0.00    +0.030 C 
ENDBRANCH  12  13
ENDBRANCH   8  12
ENDBRANCH   3   8
ENDBRANCH   1   6
BRANCH   1  17
ATOM     16  O   UNL     1      34.492 -17.256 -23.548  0.00  0.00    -0.270 OA
ATOM     17  N   UNL     1      34.369 -17.594 -21.263  0.00  0.00    -0.299 N 
ATOM     18  C   UNL     1      34.324 -16.849 -22.403  0.00  0.00    +0.246 C 
ATOM     19  H   UNL     1      34.219 -17.161 -20.392  0.00  0.00    +0.150 HD
BRANCH  18  20
ATOM     20  C   UNL     1      34.066 -15.403 -22.177  0.00  0.00    +0.053 C 
ATOM     21  C   UNL     1      33.973 -14.906 -20.877  0.00  0.00    +0.005 C 
ATOM     22  C   UNL     1      33.919 -14.543 -23.265  0.00  0.00    +0.005 C 
ATOM     23  C   UNL     1      33.733 -13.549 -20.665  0.00  0.00    +0.000 C 
ATOM     24  C   UNL     1      33.679 -13.186 -23.053  0.00  0.00    +0.000 C 
ATOM     25  C   UNL     1      33.586 -12.688 -21.752  0.00  0.00    +0.000 C 
ENDBRANCH  18  20
ENDBRANCH   1  17
BRANCH   1  26
ATOM     26  C   UNL     1      36.212 -19.214 -21.029  0.00  0.00    +0.022 C 
ATOM     27  C   UNL     1      36.635 -19.119 -19.554  0.00  0.00    +0.002 C 
ATOM     28  C   UNL     1      37.052 -18.214 -21.842  0.00  0.00    +0.002 C 
ENDBRANCH   1  26
TORSDOF 8
ENDMDL
MODEL 9
REMARK VINA RESULT:      -9.4      5.415      9.023
REMARK  Name = 46937102
REMARK  8 active torsions:
REMARK  status: ('A' for Active; 'I' for Inactive)
REMARK    1  A    between atoms: C_1  and  C_6
REMARK    2  A    between atoms: C_1  and  N_17
REMARK    3  A    between atoms: C_1  and  C_26
REMARK    4  A    between atoms: N_3  and  C_8
REMARK    5  A    between atoms: C_8  and  C_10
REMARK    6  A    between atoms: C_8  and  C_12
REMARK    7  A    between atoms: C_12  and  C_13
REMARK    8  A    between atoms: C_18  and  C_20
REMARK                            x       y       z     vdW  Elec       q    Type
REMARK                         _______ _______ _______ _____ _____    ______ ____
ROOT
ATOM      1  C   UNL     1      35.005 -23.727 -14.145  0.00  0.00    +0.091 C 
ATOM      2  C   UNL     1      35.117 -22.814 -12.870  0.00  0.00    +0.026 C 
ENDROOT
BRANCH   1   6
ATOM      3  N   UNL     1      35.635 -22.092 -17.284  0.00  0.00    -0.157 NA
ATOM      4  N   UNL     1      36.581 -22.257 -15.358  0.00  0.00    -0.152 NA
ATOM      5  N   UNL     1      36.701 -21.708 -16.562  0.00  0.00    -0.063 NA
ATOM      6  C   UNL     1      35.426 -22.988 -15.344  0.00  0.00    +0.091 C 
ATOM      7  C   UNL     1      34.806 -22.895 -16.564  0.00  0.00    +0.140 C 
BRANCH   3   8
ATOM      8  C   UNL     1      35.468 -21.636 -18.722  0.00  0.00    +0.141 C 
BRANCH   8  10
ATOM      9  O   UNL     1      33.688 -23.050 -19.566  0.00  0.00    -0.295 OA
ATOM     10  C   UNL     1      34.050 -21.926 -19.218  0.00  0.00    +0.167 C 
ATOM     11  C   UNL     1      33.084 -20.767 -19.237  0.00  0.00    +0.074 C 
ENDBRANCH   8  10
BRANCH   8  12
ATOM     12  C   UNL     1      35.828 -20.147 -18.916  0.00  0.00    +0.051 C 
BRANCH  12  13
ATOM     13  C   UNL     1      36.035 -19.787 -20.362  0.00  0.00    -0.029 C 
ATOM     14  C   UNL     1      35.794 -18.569 -20.868  0.00  0.00    -0.030 C 
ATOM     15  C   UNL     1      35.999 -18.211 -22.303  0.00  0.00    +0.030 C 
ENDBRANCH  12  13
ENDBRANCH   8  12
ENDBRANCH   3   8
ENDBRANCH   1   6
BRANCH   1  17
ATOM     16  O   UNL     1      32.696 -22.056 -14.495  0.00  0.00    -0.270 OA
ATOM     17  N   UNL     1      33.583 -24.167 -14.156  0.00  0.00    -0.299 N 
ATOM     18  C   UNL     1      32.574 -23.267 -14.333  0.00  0.00    +0.246 C 
ATOM     19  H   UNL     1      33.369 -25.120 -14.035  0.00  0.00    +0.150 HD
BRANCH  18  20
ATOM     20  C   UNL     1      31.213 -23.860 -14.292  0.00  0.00    +0.053 C 
ATOM     21  C   UNL     1      30.402 -23.825 -15.426  0.00  0.00    +0.005 C 
ATOM     22  C   UNL     1      30.746 -24.453 -13.118  0.00  0.00    +0.005 C 
ATOM     23  C   UNL     1      29.124 -24.384 -15.388  0.00  0.00    +0.000 C 
ATOM     24  C   UNL     1      29.469 -25.010 -13.080  0.00  0.00    +0.000 C 
ATOM     25  C   UNL     1      28.657 -24.977 -14.215  0.00  0.00    +0.000 C 
ENDBRANCH  18  20
ENDBRANCH   1  17
BRANCH   1  26
ATOM     26  C   UNL     1      35.867 -25.052 -13.882  0.00  0.00    +0.022 C 
ATOM     27  C   UNL     1      37.284 -24.831 -13.329  0.00  0.00    +0.002 C 
ATOM     28  C   UNL     1      35.966 -25.934 -15.138  0.00  0.00    +0.002 C 
ENDBRANCH   1  26
TORSDOF 8
ENDMDL
