MODEL 1
REMARK VINA RESULT:     -11.2      0.000      0.000
REMARK  Name = 9817550
REMARK  1 active torsions:
REMARK  status: ('A' for Active; 'I' for Inactive)
REMARK    1  A    between atoms: C_8  and  C_22
REMARK                            x       y       z     vdW  Elec       q    Type
REMARK                         _______ _______ _______ _____ _____    ______ ____
ROOT
ATOM      1  O   UNL     1      32.344 -24.068 -14.022  0.00  0.00    -0.286 OA
ATOM      2  N   UNL     1      33.224 -21.816 -17.963  0.00  0.00    -0.268 N 
ATOM      3  N   UNL     1      30.884 -22.064 -17.279  0.00  0.00    -0.298 N 
ATOM      4  N   UNL     1      34.314 -20.786 -19.780  0.00  0.00    -0.214 NA
ATOM      5  N   UNL     1      31.995 -21.051 -19.880  0.00  0.00    -0.328 N 
ATOM      6  C   UNL     1      32.761 -22.890 -16.035  0.00  0.00    +0.073 A 
ATOM      7  C   UNL     1      32.214 -22.242 -17.129  0.00  0.00    +0.122 A 
ATOM      8  C   UNL     1      34.163 -22.800 -16.155  0.00  0.00    +0.053 A 
ATOM      9  C   UNL     1      34.422 -22.102 -17.316  0.00  0.00    +0.072 A 
ATOM     10  C   UNL     1      33.195 -21.193 -19.234  0.00  0.00    +0.200 C 
ATOM     11  C   UNL     1      31.918 -23.471 -15.002  0.00  0.00    +0.200 C 
ATOM     12  C   UNL     1      35.604 -21.655 -17.941  0.00  0.00    +0.038 C 
ATOM     13  C   UNL     1      30.448 -23.268 -15.235  0.00  0.00    +0.058 C 
ATOM     14  C   UNL     1      30.040 -22.592 -16.324  0.00  0.00    +0.066 C 
ATOM     15  C   UNL     1      35.492 -21.016 -19.112  0.00  0.00    +0.103 C 
ATOM     16  H   UNL     1      30.525 -21.571 -18.052  0.00  0.00    +0.154 HD
ATOM     17  H   UNL     1      31.165 -21.363 -19.452  0.00  0.00    +0.145 HD
ATOM     18  H   UNL     1      31.963 -20.636 -20.773  0.00  0.00    +0.145 HD
ENDROOT
BRANCH   8  22
ATOM     19  N   UNL     1      35.467 -24.587 -15.336  0.00  0.00    -0.338 NA
ATOM     20  N   UNL     1      37.130 -24.256 -13.623  0.00  0.00    -0.170 NA
ATOM     21  N   UNL     1      36.750 -26.382 -14.539  0.00  0.00    -0.293 N 
ATOM     22  C   UNL     1      35.191 -23.269 -15.268  0.00  0.00    +0.147 C 
ATOM     23  C   UNL     1      35.831 -22.391 -14.418  0.00  0.00    +0.055 C 
ATOM     24  C   UNL     1      36.802 -22.948 -13.609  0.00  0.00    +0.114 C 
ATOM     25  C   UNL     1      36.434 -25.008 -14.498  0.00  0.00    +0.141 C 
ATOM     26  H   UNL     1      36.272 -26.980 -15.160  0.00  0.00    +0.155 HD
ATOM     27  H   UNL     1      37.449 -26.745 -13.949  0.00  0.00    +0.155 HD
ENDBRANCH   8  22
TORSDOF 1
ENDMDL
MODEL 2
REMARK VINA RESULT:     -11.1      1.581      3.750
REMARK  Name = 9817550
REMARK  1 active torsions:
REMARK  status: ('A' for Active; 'I' for Inactive)
REMARK    1  A    between atoms: C_8  and  C_22
REMARK                            x       y       z     vdW  Elec       q    Type
REMARK                         _______ _______ _______ _____ _____    ______ ____
ROOT
ATOM      1  O   UNL     1      35.852 -21.989 -17.530  0.00  0.00    -0.286 OA
ATOM      2  N   UNL     1      31.570 -22.874 -16.026  0.00  0.00    -0.268 N 
ATOM      3  N   UNL     1      31.822 -21.823 -18.226  0.00  0.00    -0.298 N 
ATOM      4  N   UNL     1      29.732 -23.592 -14.739  0.00  0.00    -0.214 NA
ATOM      5  N   UNL     1      29.322 -22.266 -16.619  0.00  0.00    -0.328 N 
ATOM      6  C   UNL     1      33.645 -22.448 -16.799  0.00  0.00    +0.073 A 
ATOM      7  C   UNL     1      32.293 -22.345 -17.074  0.00  0.00    +0.122 A 
ATOM      8  C   UNL     1      33.771 -23.130 -15.572  0.00  0.00    +0.053 A 
ATOM      9  C   UNL     1      32.493 -23.419 -15.140  0.00  0.00    +0.072 A 
ATOM     10  C   UNL     1      30.177 -22.929 -15.779  0.00  0.00    +0.200 C 
ATOM     11  C   UNL     1      34.645 -21.940 -17.725  0.00  0.00    +0.200 C 
ATOM     12  C   UNL     1      31.974 -24.116 -14.030  0.00  0.00    +0.038 C 
ATOM     13  C   UNL     1      34.064 -21.343 -18.976  0.00  0.00    +0.058 C 
ATOM     14  C   UNL     1      32.729 -21.330 -19.142  0.00  0.00    +0.066 C 
ATOM     15  C   UNL     1      30.643 -24.181 -13.897  0.00  0.00    +0.103 C 
ATOM     16  H   UNL     1      30.855 -21.792 -18.408  0.00  0.00    +0.154 HD
ATOM     17  H   UNL     1      29.677 -21.775 -17.394  0.00  0.00    +0.145 HD
ATOM     18  H   UNL     1      28.353 -22.281 -16.447  0.00  0.00    +0.145 HD
ENDROOT
BRANCH   8  22
ATOM     19  N   UNL     1      35.396 -24.779 -15.117  0.00  0.00    -0.338 NA
ATOM     20  N   UNL     1      37.195 -24.385 -13.561  0.00  0.00    -0.170 NA
ATOM     21  N   UNL     1      36.997 -26.437 -14.681  0.00  0.00    -0.293 N 
ATOM     22  C   UNL     1      34.954 -23.531 -14.862  0.00  0.00    +0.147 C 
ATOM     23  C   UNL     1      35.568 -22.661 -13.985  0.00  0.00    +0.055 C 
ATOM     24  C   UNL     1      36.697 -23.148 -13.356  0.00  0.00    +0.114 C 
ATOM     25  C   UNL     1      36.505 -25.137 -14.441  0.00  0.00    +0.141 C 
ATOM     26  H   UNL     1      36.532 -27.031 -15.315  0.00  0.00    +0.155 HD
ATOM     27  H   UNL     1      37.805 -26.751 -14.216  0.00  0.00    +0.155 HD
ENDBRANCH   8  22
TORSDOF 1
ENDMDL
MODEL 3
REMARK VINA RESULT:      -9.8      2.042      5.309
REMARK  Name = 9817550
REMARK  1 active torsions:
REMARK  status: ('A' for Active; 'I' for Inactive)
REMARK    1  A    between atoms: C_8  and  C_22
REMARK                            x       y       z     vdW  Elec       q    Type
REMARK                         _______ _______ _______ _____ _____    ______ ____
ROOT
ATOM      1  O   UNL     1      31.612 -22.405 -17.801  0.00  0.00    -0.286 OA
ATOM      2  N   UNL     1      35.614 -22.602 -15.493  0.00  0.00    -0.268 N 
ATOM      3  N   UNL     1      35.643 -21.692 -17.769  0.00  0.00    -0.298 N 
ATOM      4  N   UNL     1      37.246 -22.937 -13.827  0.00  0.00    -0.214 NA
ATOM      5  N   UNL     1      37.957 -22.397 -15.986  0.00  0.00    -0.328 N 
ATOM      6  C   UNL     1      33.677 -22.471 -16.639  0.00  0.00    +0.073 A 
ATOM      7  C   UNL     1      35.039 -22.233 -16.690  0.00  0.00    +0.122 A 
ATOM      8  C   UNL     1      33.382 -22.936 -15.341  0.00  0.00    +0.053 A 
ATOM      9  C   UNL     1      34.573 -22.966 -14.646  0.00  0.00    +0.072 A 
ATOM     10  C   UNL     1      36.966 -22.642 -15.073  0.00  0.00    +0.200 C 
ATOM     11  C   UNL     1      32.819 -22.200 -17.782  0.00  0.00    +0.200 C 
ATOM     12  C   UNL     1      34.918 -23.284 -13.316  0.00  0.00    +0.038 C 
ATOM     13  C   UNL     1      33.549 -21.626 -18.964  0.00  0.00    +0.058 C 
ATOM     14  C   UNL     1      34.874 -21.410 -18.879  0.00  0.00    +0.066 C 
ATOM     15  C   UNL     1      36.212 -23.238 -12.975  0.00  0.00    +0.103 C 
ATOM     16  H   UNL     1      36.610 -21.503 -17.764  0.00  0.00    +0.154 HD
ATOM     17  H   UNL     1      37.725 -22.176 -16.917  0.00  0.00    +0.145 HD
ATOM     18  H   UNL     1      38.901 -22.440 -15.711  0.00  0.00    +0.145 HD
ENDROOT
BRANCH   8  22
ATOM     19  N   UNL     1      31.107 -22.422 -14.986  0.00  0.00    -0.338 NA
ATOM     20  N   UNL     1      29.675 -23.861 -13.687  0.00  0.00    -0.170 NA
ATOM     21  N   UNL     1      28.849 -21.886 -14.647  0.00  0.00    -0.293 N 
ATOM     22  C   UNL     1      32.117 -23.286 -14.756  0.00  0.00    +0.147 C 
ATOM     23  C   UNL     1      31.988 -24.441 -14.015  0.00  0.00    +0.055 C 
ATOM     24  C   UNL     1      30.730 -24.680 -13.499  0.00  0.00    +0.114 C 
ATOM     25  C   UNL     1      29.930 -22.766 -14.430  0.00  0.00    +0.141 C 
ATOM     26  H   UNL     1      28.978 -21.069 -15.183  0.00  0.00    +0.155 HD
ATOM     27  H   UNL     1      27.965 -22.088 -14.265  0.00  0.00    +0.155 HD
ENDBRANCH   8  22
TORSDOF 1
ENDMDL
MODEL 4
REMARK VINA RESULT:      -9.7      2.157      4.909
REMARK  Name = 9817550
REMARK  1 active torsions:
REMARK  status: ('A' for Active; 'I' for Inactive)
REMARK    1  A    between atoms: C_8  and  C_22
REMARK                            x       y       z     vdW  Elec       q    Type
REMARK                         _______ _______ _______ _____ _____    ______ ____
ROOT
ATOM      1  O   UNL     1      32.168 -23.828 -12.603  0.00  0.00    -0.286 OA
ATOM      2  N   UNL     1      34.471 -22.395 -16.348  0.00  0.00    -0.268 N 
ATOM      3  N   UNL     1      35.765 -22.921 -14.334  0.00  0.00    -0.298 N 
ATOM      4  N   UNL     1      35.019 -21.672 -18.522  0.00  0.00    -0.214 NA
ATOM      5  N   UNL     1      36.679 -21.611 -16.879  0.00  0.00    -0.328 N 
ATOM      6  C   UNL     1      33.381 -23.117 -14.510  0.00  0.00    +0.073 A 
ATOM      7  C   UNL     1      34.620 -22.800 -15.039  0.00  0.00    +0.122 A 
ATOM      8  C   UNL     1      32.436 -22.975 -15.546  0.00  0.00    +0.053 A 
ATOM      9  C   UNL     1      33.129 -22.575 -16.670  0.00  0.00    +0.072 A 
ATOM     10  C   UNL     1      35.401 -21.889 -17.287  0.00  0.00    +0.200 C 
ATOM     11  C   UNL     1      33.238 -23.550 -13.129  0.00  0.00    +0.200 C 
ATOM     12  C   UNL     1      32.758 -22.324 -18.006  0.00  0.00    +0.038 C 
ATOM     13  C   UNL     1      34.540 -23.638 -12.384  0.00  0.00    +0.058 C 
ATOM     14  C   UNL     1      35.685 -23.332 -13.019  0.00  0.00    +0.066 C 
ATOM     15  C   UNL     1      33.707 -21.908 -18.854  0.00  0.00    +0.103 C 
ATOM     16  H   UNL     1      36.636 -22.719 -14.747  0.00  0.00    +0.154 HD
ATOM     17  H   UNL     1      36.946 -21.781 -15.947  0.00  0.00    +0.145 HD
ATOM     18  H   UNL     1      37.330 -21.240 -17.518  0.00  0.00    +0.145 HD
ENDROOT
BRANCH   8  22
ATOM     19  N   UNL     1      30.622 -24.321 -14.866  0.00  0.00    -0.338 NA
ATOM     20  N   UNL     1      28.351 -23.777 -15.464  0.00  0.00    -0.170 NA
ATOM     21  N   UNL     1      28.837 -25.678 -14.177  0.00  0.00    -0.293 N 
ATOM     22  C   UNL     1      31.021 -23.222 -15.538  0.00  0.00    +0.147 C 
ATOM     23  C   UNL     1      30.160 -22.363 -16.188  0.00  0.00    +0.055 C 
ATOM     24  C   UNL     1      28.822 -22.694 -16.117  0.00  0.00    +0.114 C 
ATOM     25  C   UNL     1      29.292 -24.536 -14.870  0.00  0.00    +0.141 C 
ATOM     26  H   UNL     1      29.481 -26.269 -13.724  0.00  0.00    +0.155 HD
ATOM     27  H   UNL     1      27.875 -25.883 -14.146  0.00  0.00    +0.155 HD
ENDBRANCH   8  22
TORSDOF 1
ENDMDL
MODEL 5
REMARK VINA RESULT:      -9.6      2.213      5.577
REMARK  Name = 9817550
REMARK  1 active torsions:
REMARK  status: ('A' for Active; 'I' for Inactive)
REMARK    1  A    between atoms: C_8  and  C_22
REMARK                            x       y       z     vdW  Elec       q    Type
REMARK                         _______ _______ _______ _____ _____    ______ ____
ROOT
ATOM      1  O   UNL     1      31.857 -21.900 -18.713  0.00  0.00    -0.286 OA
ATOM      2  N   UNL     1      34.975 -22.880 -15.442  0.00  0.00    -0.268 N 
ATOM      3  N   UNL     1      35.761 -21.783 -17.487  0.00  0.00    -0.298 N 
ATOM      4  N   UNL     1      36.008 -23.596 -13.449  0.00  0.00    -0.214 NA
ATOM      5  N   UNL     1      37.367 -22.972 -15.244  0.00  0.00    -0.328 N 
ATOM      6  C   UNL     1      33.477 -22.368 -17.048  0.00  0.00    +0.073 A 
ATOM      7  C   UNL     1      34.814 -22.326 -16.693  0.00  0.00    +0.122 A 
ATOM      8  C   UNL     1      32.770 -22.901 -15.950  0.00  0.00    +0.053 A 
ATOM      9  C   UNL     1      33.699 -23.165 -14.965  0.00  0.00    +0.072 A 
ATOM     10  C   UNL     1      36.134 -23.153 -14.676  0.00  0.00    +0.200 C 
ATOM     11  C   UNL     1      33.022 -21.874 -18.338  0.00  0.00    +0.200 C 
ATOM     12  C   UNL     1      33.607 -23.647 -13.644  0.00  0.00    +0.038 C 
ATOM     13  C   UNL     1      34.122 -21.308 -19.192  0.00  0.00    +0.058 C 
ATOM     14  C   UNL     1      35.381 -21.295 -18.721  0.00  0.00    +0.066 C 
ATOM     15  C   UNL     1      34.745 -23.819 -12.959  0.00  0.00    +0.103 C 
ATOM     16  H   UNL     1      36.700 -21.737 -17.194  0.00  0.00    +0.154 HD
ATOM     17  H   UNL     1      37.440 -22.638 -16.167  0.00  0.00    +0.145 HD
ATOM     18  H   UNL     1      38.181 -23.176 -14.728  0.00  0.00    +0.145 HD
ENDROOT
BRANCH   8  22
ATOM     19  N   UNL     1      31.012 -24.216 -15.088  0.00  0.00    -0.338 NA
ATOM     20  N   UNL     1      28.703 -23.609 -15.415  0.00  0.00    -0.170 NA
ATOM     21  N   UNL     1      29.283 -25.543 -14.220  0.00  0.00    -0.293 N 
ATOM     22  C   UNL     1      31.360 -23.115 -15.784  0.00  0.00    +0.147 C 
ATOM     23  C   UNL     1      30.452 -22.224 -16.319  0.00  0.00    +0.055 C 
ATOM     24  C   UNL     1      29.123 -22.526 -16.101  0.00  0.00    +0.114 C 
ATOM     25  C   UNL     1      29.686 -24.400 -14.943  0.00  0.00    +0.141 C 
ATOM     26  H   UNL     1      29.960 -26.157 -13.852  0.00  0.00    +0.155 HD
ATOM     27  H   UNL     1      28.326 -25.726 -14.082  0.00  0.00    +0.155 HD
ENDBRANCH   8  22
TORSDOF 1
ENDMDL
MODEL 6
REMARK VINA RESULT:      -9.2      1.488      5.148
REMARK  Name = 9817550
REMARK  1 active torsions:
REMARK  status: ('A' for Active; 'I' for Inactive)
REMARK    1  A    between atoms: C_8  and  C_22
REMARK                            x       y       z     vdW  Elec       q    Type
REMARK                         _______ _______ _______ _____ _____    ______ ____
ROOT
ATOM      1  O   UNL     1      31.247 -22.483 -16.524  0.00  0.00    -0.286 OA
ATOM      2  N   UNL     1      34.898 -23.779 -14.000  0.00  0.00    -0.268 N 
ATOM      3  N   UNL     1      32.669 -24.422 -13.211  0.00  0.00    -0.298 N 
ATOM      4  N   UNL     1      37.093 -24.138 -13.222  0.00  0.00    -0.214 NA
ATOM      5  N   UNL     1      35.312 -24.657 -11.802  0.00  0.00    -0.328 N 
ATOM      6  C   UNL     1      33.097 -23.182 -15.218  0.00  0.00    +0.073 A 
ATOM      7  C   UNL     1      33.523 -23.828 -14.071  0.00  0.00    +0.122 A 
ATOM      8  C   UNL     1      34.250 -22.779 -15.922  0.00  0.00    +0.053 A 
ATOM      9  C   UNL     1      35.338 -23.192 -15.182  0.00  0.00    +0.072 A 
ATOM     10  C   UNL     1      35.804 -24.205 -12.998  0.00  0.00    +0.200 C 
ATOM     11  C   UNL     1      31.683 -23.057 -15.534  0.00  0.00    +0.200 C 
ATOM     12  C   UNL     1      36.732 -23.131 -15.381  0.00  0.00    +0.038 C 
ATOM     13  C   UNL     1      30.778 -23.710 -14.528  0.00  0.00    +0.058 C 
ATOM     14  C   UNL     1      31.315 -24.337 -13.467  0.00  0.00    +0.066 C 
ATOM     15  C   UNL     1      37.525 -23.614 -14.416  0.00  0.00    +0.103 C 
ATOM     16  H   UNL     1      33.003 -24.903 -12.419  0.00  0.00    +0.154 HD
ATOM     17  H   UNL     1      34.340 -24.701 -11.654  0.00  0.00    +0.145 HD
ATOM     18  H   UNL     1      35.932 -24.939 -11.091  0.00  0.00    +0.145 HD
ENDROOT
BRANCH   8  22
ATOM     19  N   UNL     1      33.224 -22.003 -17.900  0.00  0.00    -0.338 NA
ATOM     20  N   UNL     1      34.479 -20.857 -19.609  0.00  0.00    -0.170 NA
ATOM     21  N   UNL     1      32.178 -21.243 -19.858  0.00  0.00    -0.293 N 
ATOM     22  C   UNL     1      34.365 -22.110 -17.189  0.00  0.00    +0.147 C 
ATOM     23  C   UNL     1      35.584 -21.624 -17.612  0.00  0.00    +0.055 C 
ATOM     24  C   UNL     1      35.581 -21.000 -18.844  0.00  0.00    +0.114 C 
ATOM     25  C   UNL     1      33.351 -21.374 -19.084  0.00  0.00    +0.141 C 
ATOM     26  H   UNL     1      31.325 -21.603 -19.523  0.00  0.00    +0.155 HD
ATOM     27  H   UNL     1      32.213 -20.791 -20.731  0.00  0.00    +0.155 HD
ENDBRANCH   8  22
TORSDOF 1
ENDMDL
MODEL 7
REMARK VINA RESULT:      -8.8      1.933      5.767
REMARK  Name = 9817550
REMARK  1 active torsions:
REMARK  status: ('A' for Active; 'I' for Inactive)
REMARK    1  A    between atoms: C_8  and  C_22
REMARK                            x       y       z     vdW  Elec       q    Type
REMARK                         _______ _______ _______ _____ _____    ______ ____
ROOT
ATOM      1  O   UNL     1      37.031 -22.048 -16.483  0.00  0.00    -0.286 OA
ATOM      2  N   UNL     1      32.950 -23.474 -14.842  0.00  0.00    -0.268 N 
ATOM      3  N   UNL     1      34.919 -23.730 -13.405  0.00  0.00    -0.298 N 
ATOM      4  N   UNL     1      30.656 -23.953 -14.600  0.00  0.00    -0.214 NA
ATOM      5  N   UNL     1      32.143 -24.809 -13.015  0.00  0.00    -0.328 N 
ATOM      6  C   UNL     1      34.952 -22.769 -15.603  0.00  0.00    +0.073 A 
ATOM      7  C   UNL     1      34.291 -23.364 -14.543  0.00  0.00    +0.122 A 
ATOM      8  C   UNL     1      33.979 -22.430 -16.565  0.00  0.00    +0.053 A 
ATOM      9  C   UNL     1      32.759 -22.830 -16.060  0.00  0.00    +0.072 A 
ATOM     10  C   UNL     1      31.878 -24.079 -14.143  0.00  0.00    +0.200 C 
ATOM     11  C   UNL     1      36.390 -22.554 -15.571  0.00  0.00    +0.200 C 
ATOM     12  C   UNL     1      31.431 -22.722 -16.521  0.00  0.00    +0.038 C 
ATOM     13  C   UNL     1      37.042 -23.006 -14.295  0.00  0.00    +0.058 C 
ATOM     14  C   UNL     1      36.284 -23.543 -13.322  0.00  0.00    +0.066 C 
ATOM     15  C   UNL     1      30.462 -23.265 -15.773  0.00  0.00    +0.103 C 
ATOM     16  H   UNL     1      34.417 -24.122 -12.655  0.00  0.00    +0.154 HD
ATOM     17  H   UNL     1      33.067 -24.891 -12.687  0.00  0.00    +0.145 HD
ATOM     18  H   UNL     1      31.408 -25.251 -12.530  0.00  0.00    +0.145 HD
ENDROOT
BRANCH   8  22
ATOM     19  N   UNL     1      32.984 -21.418 -18.449  0.00  0.00    -0.338 NA
ATOM     20  N   UNL     1      34.312 -20.476 -20.226  0.00  0.00    -0.170 NA
ATOM     21  N   UNL     1      31.968 -20.418 -20.312  0.00  0.00    -0.293 N 
ATOM     22  C   UNL     1      34.130 -21.757 -17.825  0.00  0.00    +0.147 C 
ATOM     23  C   UNL     1      35.387 -21.494 -18.328  0.00  0.00    +0.055 C 
ATOM     24  C   UNL     1      35.417 -20.845 -19.546  0.00  0.00    +0.114 C 
ATOM     25  C   UNL     1      33.146 -20.789 -19.629  0.00  0.00    +0.141 C 
ATOM     26  H   UNL     1      31.087 -20.622 -19.922  0.00  0.00    +0.155 HD
ATOM     27  H   UNL     1      32.027 -19.955 -21.179  0.00  0.00    +0.155 HD
ENDBRANCH   8  22
TORSDOF 1
ENDMDL
MODEL 8
REMARK VINA RESULT:      -8.6      2.289      5.380
REMARK  Name = 9817550
REMARK  1 active torsions:
REMARK  status: ('A' for Active; 'I' for Inactive)
REMARK    1  A    between atoms: C_8  and  C_22
REMARK                            x       y       z     vdW  Elec       q    Type
REMARK                         _______ _______ _______ _____ _____    ______ ____
ROOT
ATOM      1  O   UNL     1      36.237 -23.474 -15.443  0.00  0.00    -0.286 OA
ATOM      2  N   UNL     1      31.726 -23.552 -14.429  0.00  0.00    -0.268 N 
ATOM      3  N   UNL     1      33.308 -24.228 -12.684  0.00  0.00    -0.298 N 
ATOM      4  N   UNL     1      29.382 -23.345 -14.544  0.00  0.00    -0.214 NA
ATOM      5  N   UNL     1      30.312 -24.447 -12.706  0.00  0.00    -0.328 N 
ATOM      6  C   UNL     1      33.934 -23.505 -14.883  0.00  0.00    +0.073 A 
ATOM      7  C   UNL     1      32.984 -23.798 -13.921  0.00  0.00    +0.122 A 
ATOM      8  C   UNL     1      33.251 -22.989 -16.003  0.00  0.00    +0.053 A 
ATOM      9  C   UNL     1      31.908 -22.986 -15.687  0.00  0.00    +0.072 A 
ATOM     10  C   UNL     1      30.435 -23.770 -13.890  0.00  0.00    +0.200 C 
ATOM     11  C   UNL     1      35.353 -23.701 -14.627  0.00  0.00    +0.200 C 
ATOM     12  C   UNL     1      30.750 -22.549 -16.361  0.00  0.00    +0.038 C 
ATOM     13  C   UNL     1      35.654 -24.208 -13.245  0.00  0.00    +0.058 C 
ATOM     14  C   UNL     1      34.641 -24.426 -12.387  0.00  0.00    +0.066 C 
ATOM     15  C   UNL     1      29.568 -22.732 -15.759  0.00  0.00    +0.103 C 
ATOM     16  H   UNL     1      32.611 -24.398 -12.009  0.00  0.00    +0.154 HD
ATOM     17  H   UNL     1      31.115 -24.757 -12.230  0.00  0.00    +0.145 HD
ATOM     18  H   UNL     1      29.419 -24.621 -12.330  0.00  0.00    +0.145 HD
ENDROOT
BRANCH   8  22
ATOM     19  N   UNL     1      34.845 -21.685 -17.154  0.00  0.00    -0.338 NA
ATOM     20  N   UNL     1      34.831 -21.505 -19.558  0.00  0.00    -0.170 NA
ATOM     21  N   UNL     1      36.441 -20.380 -18.273  0.00  0.00    -0.293 N 
ATOM     22  C   UNL     1      33.771 -22.495 -17.248  0.00  0.00    +0.147 C 
ATOM     23  C   UNL     1      33.178 -22.853 -18.441  0.00  0.00    +0.055 C 
ATOM     24  C   UNL     1      33.757 -22.321 -19.576  0.00  0.00    +0.114 C 
ATOM     25  C   UNL     1      35.317 -21.232 -18.331  0.00  0.00    +0.141 C 
ATOM     26  H   UNL     1      36.838 -20.146 -17.402  0.00  0.00    +0.155 HD
ATOM     27  H   UNL     1      36.828 -20.020 -19.103  0.00  0.00    +0.155 HD
ENDBRANCH   8  22
TORSDOF 1
ENDMDL
MODEL 9
REMARK VINA RESULT:      -8.6      1.796      5.126
REMARK  Name = 9817550
REMARK  1 active torsions:
REMARK  status: ('A' for Active; 'I' for Inactive)
REMARK    1  A    between atoms: C_8  and  C_22
REMARK                            x       y       z     vdW  Elec       q    Type
REMARK                         _______ _______ _______ _____ _____    ______ ____
ROOT
ATOM      1  O   UNL     1      30.983 -22.654 -16.418  0.00  0.00    -0.286 OA
ATOM      2  N   UNL     1      34.578 -23.876 -13.779  0.00  0.00    -0.268 N 
ATOM      3  N   UNL     1      32.323 -24.324 -12.929  0.00  0.00    -0.298 N 
ATOM      4  N   UNL     1      36.756 -24.267 -12.971  0.00  0.00    -0.214 NA
ATOM      5  N   UNL     1      34.959 -24.552 -11.505  0.00  0.00    -0.328 N 
ATOM      6  C   UNL     1      32.803 -23.312 -15.050  0.00  0.00    +0.073 A 
ATOM      7  C   UNL     1      33.201 -23.863 -13.844  0.00  0.00    +0.122 A 
ATOM      8  C   UNL     1      33.970 -23.040 -15.791  0.00  0.00    +0.053 A 
ATOM      9  C   UNL     1      35.040 -23.433 -15.014  0.00  0.00    +0.072 A 
ATOM     10  C   UNL     1      35.466 -24.247 -12.740  0.00  0.00    +0.200 C 
ATOM     11  C   UNL     1      31.395 -23.147 -15.376  0.00  0.00    +0.200 C 
ATOM     12  C   UNL     1      36.434 -23.463 -15.219  0.00  0.00    +0.038 C 
ATOM     13  C   UNL     1      30.463 -23.651 -14.310  0.00  0.00    +0.058 C 
ATOM     14  C   UNL     1      30.974 -24.196 -13.191  0.00  0.00    +0.066 C 
ATOM     15  C   UNL     1      37.207 -23.887 -14.211  0.00  0.00    +0.103 C 
ATOM     16  H   UNL     1      32.637 -24.741 -12.094  0.00  0.00    +0.154 HD
ATOM     17  H   UNL     1      33.987 -24.532 -11.353  0.00  0.00    +0.145 HD
ATOM     18  H   UNL     1      35.567 -24.794 -10.770  0.00  0.00    +0.145 HD
ENDROOT
BRANCH   8  22
ATOM     19  N   UNL     1      35.139 -21.653 -17.300  0.00  0.00    -0.338 NA
ATOM     20  N   UNL     1      34.463 -21.440 -19.603  0.00  0.00    -0.170 NA
ATOM     21  N   UNL     1      36.319 -20.265 -18.778  0.00  0.00    -0.293 N 
ATOM     22  C   UNL     1      34.111 -22.507 -17.118  0.00  0.00    +0.147 C 
ATOM     23  C   UNL     1      33.229 -22.873 -18.113  0.00  0.00    +0.055 C 
ATOM     24  C   UNL     1      33.456 -22.301 -19.349  0.00  0.00    +0.114 C 
ATOM     25  C   UNL     1      35.255 -21.164 -18.549  0.00  0.00    +0.141 C 
ATOM     26  H   UNL     1      36.929 -20.027 -18.043  0.00  0.00    +0.155 HD
ATOM     27  H   UNL     1      36.451 -19.878 -19.673  0.00  0.00    +0.155 HD
ENDBRANCH   8  22
TORSDOF 1
ENDMDL
