MODEL 1
REMARK VINA RESULT:     -11.5      0.000      0.000
REMARK  Name = 11957394
REMARK  9 active torsions:
REMARK  status: ('A' for Active; 'I' for Inactive)
REMARK    1  A    between atoms: C_1  and  C_7
REMARK    2  A    between atoms: C_3  and  O_21
REMARK    3  A    between atoms: C_5  and  O_25
REMARK    4  A    between atoms: C_8  and  C_11
REMARK    5  A    between atoms: N_10  and  C_13
REMARK    6  A    between atoms: C_13  and  C_14
REMARK    7  A    between atoms: C_14  and  C_15
REMARK    8  A    between atoms: O_21  and  C_23
REMARK    9  A    between atoms: O_25  and  C_27
REMARK                            x       y       z     vdW  Elec       q    Type
REMARK                         _______ _______ _______ _____ _____    ______ ____
ROOT
ATOM      1  C   UNL     1      32.595 -12.468 -21.774  0.00  0.00    +0.003 C 
ATOM      2  C   UNL     1      31.749 -11.746 -20.932  0.00  0.00    +0.041 C 
ATOM      3  C   UNL     1      31.263 -10.501 -21.332  0.00  0.00    +0.183 C 
ATOM      4  C   UNL     1      32.956 -11.944 -23.015  0.00  0.00    +0.003 C 
ATOM      5  C   UNL     1      31.624  -9.978 -22.574  0.00  0.00    +0.183 C 
ATOM      6  C   UNL     1      32.470 -10.700 -23.415  0.00  0.00    +0.041 C 
ENDROOT
BRANCH   1   7
ATOM      7  C   UNL     1      33.108 -13.784 -21.351  0.00  0.00    +0.005 C 
ATOM      8  C   UNL     1      34.006 -14.507 -22.036  0.00  0.00    +0.058 C 
BRANCH   8  11
ATOM      9  O   UNL     1      34.456 -16.089 -20.308  0.00  0.00    -0.270 OA
ATOM     10  N   UNL     1      34.872 -16.672 -22.519  0.00  0.00    -0.301 N 
ATOM     11  C   UNL     1      34.460 -15.824 -21.505  0.00  0.00    +0.246 C 
ATOM     12  H   UNL     1      34.831 -16.348 -23.448  0.00  0.00    +0.150 HD
BRANCH  10  13
ATOM     13  C   UNL     1      35.362 -18.011 -22.277  0.00  0.00    +0.094 C 
BRANCH  13  14
ATOM     14  C   UNL     1      34.233 -19.031 -22.136  0.00  0.00    +0.048 C 
BRANCH  14  15
ATOM     15  C   UNL     1      34.343 -19.860 -20.880  0.00  0.00    -0.020 C 
ATOM     16  C   UNL     1      33.192 -20.358 -20.270  0.00  0.00    -0.004 C 
ATOM     17  C   UNL     1      35.596 -20.129 -20.329  0.00  0.00    -0.004 C 
ATOM     18  C   UNL     1      33.294 -21.125 -19.109  0.00  0.00    -0.000 C 
ATOM     19  C   UNL     1      35.698 -20.897 -19.169  0.00  0.00    -0.000 C 
ATOM     20  C   UNL     1      34.545 -21.394 -18.559  0.00  0.00    -0.000 C 
ENDBRANCH  14  15
ENDBRANCH  13  14
ENDBRANCH  10  13
ENDBRANCH   8  11
ENDBRANCH   1   7
BRANCH   3  21
ATOM     21  O   UNL     1      30.436  -9.806 -20.503  0.00  0.00    -0.421 OA
BRANCH  21  23
ATOM     22  O   UNL     1      31.282  -9.840 -18.320  0.00  0.00    -0.250 OA
ATOM     23  C   UNL     1      31.077  -9.261 -19.379  0.00  0.00    +0.322 C 
ATOM     24  C   UNL     1      31.483  -7.845 -19.656  0.00  0.00    +0.122 C 
ENDBRANCH  21  23
ENDBRANCH   3  21
BRANCH   5  25
ATOM     25  O   UNL     1      31.157  -8.762 -22.975  0.00  0.00    -0.421 OA
BRANCH  25  27
ATOM     26  O   UNL     1      33.245  -7.740 -22.698  0.00  0.00    -0.250 OA
ATOM     27  C   UNL     1      32.166  -7.832 -23.268  0.00  0.00    +0.322 C 
ATOM     28  C   UNL     1      31.731  -6.944 -24.397  0.00  0.00    +0.122 C 
ENDBRANCH  25  27
ENDBRANCH   5  25
TORSDOF 9
ENDMDL
MODEL 2
REMARK VINA RESULT:     -11.5      5.788     12.984
REMARK  Name = 11957394
REMARK  9 active torsions:
REMARK  status: ('A' for Active; 'I' for Inactive)
REMARK    1  A    between atoms: C_1  and  C_7
REMARK    2  A    between atoms: C_3  and  O_21
REMARK    3  A    between atoms: C_5  and  O_25
REMARK    4  A    between atoms: C_8  and  C_11
REMARK    5  A    between atoms: N_10  and  C_13
REMARK    6  A    between atoms: C_13  and  C_14
REMARK    7  A    between atoms: C_14  and  C_15
REMARK    8  A    between atoms: O_21  and  C_23
REMARK    9  A    between atoms: O_25  and  C_27
REMARK                            x       y       z     vdW  Elec       q    Type
REMARK                         _______ _______ _______ _____ _____    ______ ____
ROOT
ATOM      1  C   UNL     1      35.721 -22.298 -16.380  0.00  0.00    +0.003 C 
ATOM      2  C   UNL     1      35.136 -23.127 -15.422  0.00  0.00    +0.041 C 
ATOM      3  C   UNL     1      35.931 -23.746 -14.456  0.00  0.00    +0.183 C 
ATOM      4  C   UNL     1      37.100 -22.088 -16.372  0.00  0.00    +0.003 C 
ATOM      5  C   UNL     1      37.310 -23.535 -14.449  0.00  0.00    +0.183 C 
ATOM      6  C   UNL     1      37.894 -22.707 -15.407  0.00  0.00    +0.041 C 
ENDROOT
BRANCH   1   7
ATOM      7  C   UNL     1      34.881 -21.645 -17.399  0.00  0.00    +0.005 C 
ATOM      8  C   UNL     1      35.311 -21.268 -18.613  0.00  0.00    +0.058 C 
BRANCH   8  11
ATOM      9  O   UNL     1      33.183 -20.939 -19.641  0.00  0.00    -0.270 OA
ATOM     10  N   UNL     1      34.992 -19.652 -20.333  0.00  0.00    -0.301 N 
ATOM     11  C   UNL     1      34.366 -20.622 -19.568  0.00  0.00    +0.246 C 
ATOM     12  H   UNL     1      35.951 -19.485 -20.185  0.00  0.00    +0.150 HD
BRANCH  10  13
ATOM     13  C   UNL     1      34.303 -18.875 -21.338  0.00  0.00    +0.094 C 
BRANCH  13  14
ATOM     14  C   UNL     1      35.216 -17.857 -22.019  0.00  0.00    +0.048 C 
BRANCH  14  15
ATOM     15  C   UNL     1      34.682 -16.448 -21.949  0.00  0.00    -0.020 C 
ATOM     16  C   UNL     1      34.293 -15.910 -20.722  0.00  0.00    -0.004 C 
ATOM     17  C   UNL     1      34.578 -15.683 -23.110  0.00  0.00    -0.004 C 
ATOM     18  C   UNL     1      33.800 -14.606 -20.657  0.00  0.00    -0.000 C 
ATOM     19  C   UNL     1      34.084 -14.379 -23.046  0.00  0.00    -0.000 C 
ATOM     20  C   UNL     1      33.696 -13.842 -21.818  0.00  0.00    -0.000 C 
ENDBRANCH  14  15
ENDBRANCH  13  14
ENDBRANCH  10  13
ENDBRANCH   8  11
ENDBRANCH   1   7
BRANCH   3  21
ATOM     21  O   UNL     1      35.350 -24.552 -13.526  0.00  0.00    -0.421 OA
BRANCH  21  23
ATOM     22  O   UNL     1      33.294 -23.883 -12.628  0.00  0.00    -0.250 OA
ATOM     23  C   UNL     1      34.518 -23.875 -12.620  0.00  0.00    +0.322 C 
ATOM     24  C   UNL     1      35.348 -23.123 -11.623  0.00  0.00    +0.122 C 
ENDBRANCH  21  23
ENDBRANCH   3  21
BRANCH   5  25
ATOM     25  O   UNL     1      38.097 -24.136 -13.513  0.00  0.00    -0.421 OA
BRANCH  25  27
ATOM     26  O   UNL     1      38.110 -26.397 -14.116  0.00  0.00    -0.250 OA
ATOM     27  C   UNL     1      38.688 -25.333 -13.945  0.00  0.00    +0.322 C 
ATOM     28  C   UNL     1      40.158 -25.127 -14.171  0.00  0.00    +0.122 C 
ENDBRANCH  25  27
ENDBRANCH   5  25
TORSDOF 9
ENDMDL
MODEL 3
REMARK VINA RESULT:     -11.4      1.348      2.770
REMARK  Name = 11957394
REMARK  9 active torsions:
REMARK  status: ('A' for Active; 'I' for Inactive)
REMARK    1  A    between atoms: C_1  and  C_7
REMARK    2  A    between atoms: C_3  and  O_21
REMARK    3  A    between atoms: C_5  and  O_25
REMARK    4  A    between atoms: C_8  and  C_11
REMARK    5  A    between atoms: N_10  and  C_13
REMARK    6  A    between atoms: C_13  and  C_14
REMARK    7  A    between atoms: C_14  and  C_15
REMARK    8  A    between atoms: O_21  and  C_23
REMARK    9  A    between atoms: O_25  and  C_27
REMARK                            x       y       z     vdW  Elec       q    Type
REMARK                         _______ _______ _______ _____ _____    ______ ____
ROOT
ATOM      1  C   UNL     1      32.451 -11.939 -22.603  0.00  0.00    +0.003 C 
ATOM      2  C   UNL     1      32.704 -10.741 -23.272  0.00  0.00    +0.041 C 
ATOM      3  C   UNL     1      32.193  -9.542 -22.772  0.00  0.00    +0.183 C 
ATOM      4  C   UNL     1      31.688 -11.938 -21.435  0.00  0.00    +0.003 C 
ATOM      5  C   UNL     1      31.430  -9.542 -21.604  0.00  0.00    +0.183 C 
ATOM      6  C   UNL     1      31.178 -10.740 -20.937  0.00  0.00    +0.041 C 
ENDROOT
BRANCH   1   7
ATOM      7  C   UNL     1      32.991 -13.205 -23.131  0.00  0.00    +0.005 C 
ATOM      8  C   UNL     1      33.782 -14.041 -22.442  0.00  0.00    +0.058 C 
BRANCH   8  11
ATOM      9  O   UNL     1      34.335 -15.441 -24.293  0.00  0.00    -0.270 OA
ATOM     10  N   UNL     1      34.601 -16.256 -22.133  0.00  0.00    -0.301 N 
ATOM     11  C   UNL     1      34.263 -15.302 -23.077  0.00  0.00    +0.246 C 
ATOM     12  H   UNL     1      34.500 -16.029 -21.180  0.00  0.00    +0.150 HD
BRANCH  10  13
ATOM     13  C   UNL     1      35.095 -17.569 -22.481  0.00  0.00    +0.094 C 
BRANCH  13  14
ATOM     14  C   UNL     1      35.904 -18.209 -21.354  0.00  0.00    +0.048 C 
BRANCH  14  15
ATOM     15  C   UNL     1      35.147 -19.292 -20.627  0.00  0.00    -0.020 C 
ATOM     16  C   UNL     1      33.759 -19.375 -20.748  0.00  0.00    -0.004 C 
ATOM     17  C   UNL     1      35.833 -20.210 -19.833  0.00  0.00    -0.004 C 
ATOM     18  C   UNL     1      33.059 -20.376 -20.075  0.00  0.00    -0.000 C 
ATOM     19  C   UNL     1      35.133 -21.212 -19.160  0.00  0.00    -0.000 C 
ATOM     20  C   UNL     1      33.745 -21.294 -19.282  0.00  0.00    -0.000 C 
ENDBRANCH  14  15
ENDBRANCH  13  14
ENDBRANCH  10  13
ENDBRANCH   8  11
ENDBRANCH   1   7
BRANCH   3  21
ATOM     21  O   UNL     1      32.447  -8.379 -23.432  0.00  0.00    -0.421 OA
BRANCH  21  23
ATOM     22  O   UNL     1      34.779  -8.490 -23.607  0.00  0.00    -0.250 OA
ATOM     23  C   UNL     1      33.758  -7.903 -23.272  0.00  0.00    +0.322 C 
ATOM     24  C   UNL     1      33.738  -6.553 -22.619  0.00  0.00    +0.122 C 
ENDBRANCH  21  23
ENDBRANCH   3  21
BRANCH   5  25
ATOM     25  O   UNL     1      30.924  -8.379 -21.108  0.00  0.00    -0.421 OA
BRANCH  25  27
ATOM     26  O   UNL     1      32.017  -8.664 -19.058  0.00  0.00    -0.250 OA
ATOM     27  C   UNL     1      31.544  -7.944 -19.926  0.00  0.00    +0.322 C 
ATOM     28  C   UNL     1      31.546  -6.444 -19.871  0.00  0.00    +0.122 C 
ENDBRANCH  25  27
ENDBRANCH   5  25
TORSDOF 9
ENDMDL
MODEL 4
REMARK VINA RESULT:     -11.3      5.773     12.790
REMARK  Name = 11957394
REMARK  9 active torsions:
REMARK  status: ('A' for Active; 'I' for Inactive)
REMARK    1  A    between atoms: C_1  and  C_7
REMARK    2  A    between atoms: C_3  and  O_21
REMARK    3  A    between atoms: C_5  and  O_25
REMARK    4  A    between atoms: C_8  and  C_11
REMARK    5  A    between atoms: N_10  and  C_13
REMARK    6  A    between atoms: C_13  and  C_14
REMARK    7  A    between atoms: C_14  and  C_15
REMARK    8  A    between atoms: O_21  and  C_23
REMARK    9  A    between atoms: O_25  and  C_27
REMARK                            x       y       z     vdW  Elec       q    Type
REMARK                         _______ _______ _______ _____ _____    ______ ____
ROOT
ATOM      1  C   UNL     1      35.640 -22.050 -16.709  0.00  0.00    +0.003 C 
ATOM      2  C   UNL     1      34.833 -22.915 -15.969  0.00  0.00    +0.041 C 
ATOM      3  C   UNL     1      35.383 -23.666 -14.930  0.00  0.00    +0.183 C 
ATOM      4  C   UNL     1      36.997 -21.936 -16.409  0.00  0.00    +0.003 C 
ATOM      5  C   UNL     1      36.741 -23.551 -14.630  0.00  0.00    +0.183 C 
ATOM      6  C   UNL     1      37.547 -22.687 -15.370  0.00  0.00    +0.041 C 
ENDROOT
BRANCH   1   7
ATOM      7  C   UNL     1      35.058 -21.258 -17.806  0.00  0.00    +0.005 C 
ATOM      8  C   UNL     1      34.005 -21.639 -18.545  0.00  0.00    +0.058 C 
BRANCH   8  11
ATOM      9  O   UNL     1      32.324 -20.759 -19.992  0.00  0.00    -0.270 OA
ATOM     10  N   UNL     1      34.494 -19.940 -20.140  0.00  0.00    -0.301 N 
ATOM     11  C   UNL     1      33.495 -20.748 -19.627  0.00  0.00    +0.246 C 
ATOM     12  H   UNL     1      35.401 -20.020 -19.766  0.00  0.00    +0.150 HD
BRANCH  10  13
ATOM     13  C   UNL     1      34.268 -18.984 -21.201  0.00  0.00    +0.094 C 
BRANCH  13  14
ATOM     14  C   UNL     1      35.288 -17.847 -21.192  0.00  0.00    +0.048 C 
BRANCH  14  15
ATOM     15  C   UNL     1      34.721 -16.544 -21.700  0.00  0.00    -0.020 C 
ATOM     16  C   UNL     1      34.273 -15.579 -20.798  0.00  0.00    -0.004 C 
ATOM     17  C   UNL     1      34.643 -16.305 -23.072  0.00  0.00    -0.004 C 
ATOM     18  C   UNL     1      33.749 -14.374 -21.268  0.00  0.00    -0.000 C 
ATOM     19  C   UNL     1      34.119 -15.100 -23.542  0.00  0.00    -0.000 C 
ATOM     20  C   UNL     1      33.673 -14.135 -22.639  0.00  0.00    -0.000 C 
ENDBRANCH  14  15
ENDBRANCH  13  14
ENDBRANCH  10  13
ENDBRANCH   8  11
ENDBRANCH   1   7
BRANCH   3  21
ATOM     21  O   UNL     1      34.586 -24.506 -14.214  0.00  0.00    -0.421 OA
BRANCH  21  23
ATOM     22  O   UNL     1      34.239 -23.444 -12.156  0.00  0.00    -0.250 OA
ATOM     23  C   UNL     1      33.820 -23.866 -13.226  0.00  0.00    +0.322 C 
ATOM     24  C   UNL     1      32.390 -23.769 -13.667  0.00  0.00    +0.122 C 
ENDBRANCH  21  23
ENDBRANCH   3  21
BRANCH   5  25
ATOM     25  O   UNL     1      37.291 -24.280 -13.619  0.00  0.00    -0.421 OA
BRANCH  25  27
ATOM     26  O   UNL     1      37.609 -26.389 -14.584  0.00  0.00    -0.250 OA
ATOM     27  C   UNL     1      38.050 -25.378 -14.053  0.00  0.00    +0.322 C 
ATOM     28  C   UNL     1      39.504 -25.140 -13.769  0.00  0.00    +0.122 C 
ENDBRANCH  25  27
ENDBRANCH   5  25
TORSDOF 9
ENDMDL
MODEL 5
REMARK VINA RESULT:     -11.3      7.007     13.665
REMARK  Name = 11957394
REMARK  9 active torsions:
REMARK  status: ('A' for Active; 'I' for Inactive)
REMARK    1  A    between atoms: C_1  and  C_7
REMARK    2  A    between atoms: C_3  and  O_21
REMARK    3  A    between atoms: C_5  and  O_25
REMARK    4  A    between atoms: C_8  and  C_11
REMARK    5  A    between atoms: N_10  and  C_13
REMARK    6  A    between atoms: C_13  and  C_14
REMARK    7  A    between atoms: C_14  and  C_15
REMARK    8  A    between atoms: O_21  and  C_23
REMARK    9  A    between atoms: O_25  and  C_27
REMARK                            x       y       z     vdW  Elec       q    Type
REMARK                         _______ _______ _______ _____ _____    ______ ____
ROOT
ATOM      1  C   UNL     1      34.910 -23.147 -15.329  0.00  0.00    +0.003 C 
ATOM      2  C   UNL     1      36.248 -23.419 -15.042  0.00  0.00    +0.041 C 
ATOM      3  C   UNL     1      36.590 -24.053 -13.847  0.00  0.00    +0.183 C 
ATOM      4  C   UNL     1      33.915 -23.508 -14.421  0.00  0.00    +0.003 C 
ATOM      5  C   UNL     1      35.594 -24.414 -12.940  0.00  0.00    +0.183 C 
ATOM      6  C   UNL     1      34.257 -24.141 -13.227  0.00  0.00    +0.041 C 
ENDROOT
BRANCH   1   7
ATOM      7  C   UNL     1      34.550 -22.477 -16.592  0.00  0.00    +0.005 C 
ATOM      8  C   UNL     1      33.343 -22.550 -17.174  0.00  0.00    +0.058 C 
BRANCH   8  11
ATOM      9  O   UNL     1      31.961 -21.515 -18.821  0.00  0.00    -0.270 OA
ATOM     10  N   UNL     1      34.264 -21.552 -19.130  0.00  0.00    -0.301 N 
ATOM     11  C   UNL     1      33.089 -21.821 -18.450  0.00  0.00    +0.246 C 
ATOM     12  H   UNL     1      35.115 -21.849 -18.733  0.00  0.00    +0.150 HD
BRANCH  10  13
ATOM     13  C   UNL     1      34.300 -20.857 -20.397  0.00  0.00    +0.094 C 
BRANCH  13  14
ATOM     14  C   UNL     1      35.134 -19.578 -20.340  0.00  0.00    +0.048 C 
BRANCH  14  15
ATOM     15  C   UNL     1      34.802 -18.608 -21.448  0.00  0.00    -0.020 C 
ATOM     16  C   UNL     1      34.199 -19.067 -22.619  0.00  0.00    -0.004 C 
ATOM     17  C   UNL     1      35.098 -17.253 -21.301  0.00  0.00    -0.004 C 
ATOM     18  C   UNL     1      33.891 -18.171 -23.643  0.00  0.00    -0.000 C 
ATOM     19  C   UNL     1      34.791 -16.357 -22.325  0.00  0.00    -0.000 C 
ATOM     20  C   UNL     1      34.187 -16.817 -23.495  0.00  0.00    -0.000 C 
ENDBRANCH  14  15
ENDBRANCH  13  14
ENDBRANCH  10  13
ENDBRANCH   8  11
ENDBRANCH   1   7
BRANCH   3  21
ATOM     21  O   UNL     1      37.899 -24.315 -13.578  0.00  0.00    -0.421 OA
BRANCH  21  23
ATOM     22  O   UNL     1      37.949 -26.541 -14.303  0.00  0.00    -0.250 OA
ATOM     23  C   UNL     1      38.421 -25.411 -14.284  0.00  0.00    +0.322 C 
ATOM     24  C   UNL     1      39.660 -25.003 -15.023  0.00  0.00    +0.122 C 
ENDBRANCH  21  23
ENDBRANCH   3  21
BRANCH   5  25
ATOM     25  O   UNL     1      35.916 -25.031 -11.768  0.00  0.00    -0.421 OA
BRANCH  25  27
ATOM     26  O   UNL     1      34.868 -24.675  -9.706  0.00  0.00    -0.250 OA
ATOM     27  C   UNL     1      35.582 -24.293 -10.622  0.00  0.00    +0.322 C 
ATOM     28  C   UNL     1      36.232 -22.941 -10.677  0.00  0.00    +0.122 C 
ENDBRANCH  25  27
ENDBRANCH   5  25
TORSDOF 9
ENDMDL
MODEL 6
REMARK VINA RESULT:     -11.2      4.376     10.604
REMARK  Name = 11957394
REMARK  9 active torsions:
REMARK  status: ('A' for Active; 'I' for Inactive)
REMARK    1  A    between atoms: C_1  and  C_7
REMARK    2  A    between atoms: C_3  and  O_21
REMARK    3  A    between atoms: C_5  and  O_25
REMARK    4  A    between atoms: C_8  and  C_11
REMARK    5  A    between atoms: N_10  and  C_13
REMARK    6  A    between atoms: C_13  and  C_14
REMARK    7  A    between atoms: C_14  and  C_15
REMARK    8  A    between atoms: O_21  and  C_23
REMARK    9  A    between atoms: O_25  and  C_27
REMARK                            x       y       z     vdW  Elec       q    Type
REMARK                         _______ _______ _______ _____ _____    ______ ____
ROOT
ATOM      1  C   UNL     1      34.081 -19.887 -20.322  0.00  0.00    +0.003 C 
ATOM      2  C   UNL     1      35.217 -20.411 -19.704  0.00  0.00    +0.041 C 
ATOM      3  C   UNL     1      35.092 -21.453 -18.785  0.00  0.00    +0.183 C 
ATOM      4  C   UNL     1      32.822 -20.404 -20.021  0.00  0.00    +0.003 C 
ATOM      5  C   UNL     1      33.832 -21.971 -18.484  0.00  0.00    +0.183 C 
ATOM      6  C   UNL     1      32.697 -21.446 -19.103  0.00  0.00    +0.041 C 
ENDROOT
BRANCH   1   7
ATOM      7  C   UNL     1      34.214 -18.786 -21.294  0.00  0.00    +0.005 C 
ATOM      8  C   UNL     1      33.870 -18.867 -22.588  0.00  0.00    +0.058 C 
BRANCH   8  11
ATOM      9  O   UNL     1      33.774 -17.713 -24.674  0.00  0.00    -0.270 OA
ATOM     10  N   UNL     1      34.526 -16.586 -22.785  0.00  0.00    -0.301 N 
ATOM     11  C   UNL     1      34.041 -17.682 -23.477  0.00  0.00    +0.246 C 
ATOM     12  H   UNL     1      34.704 -16.681 -21.822  0.00  0.00    +0.150 HD
BRANCH  10  13
ATOM     13  C   UNL     1      34.783 -15.309 -23.412  0.00  0.00    +0.094 C 
BRANCH  13  14
ATOM     14  C   UNL     1      33.500 -14.584 -23.814  0.00  0.00    +0.048 C 
BRANCH  14  15
ATOM     15  C   UNL     1      32.934 -13.731 -22.705  0.00  0.00    -0.020 C 
ATOM     16  C   UNL     1      32.184 -12.595 -23.013  0.00  0.00    -0.004 C 
ATOM     17  C   UNL     1      33.161 -14.077 -21.374  0.00  0.00    -0.004 C 
ATOM     18  C   UNL     1      31.661 -11.807 -21.987  0.00  0.00    -0.000 C 
ATOM     19  C   UNL     1      32.637 -13.289 -20.348  0.00  0.00    -0.000 C 
ATOM     20  C   UNL     1      31.887 -12.153 -20.657  0.00  0.00    -0.000 C 
ENDBRANCH  14  15
ENDBRANCH  13  14
ENDBRANCH  10  13
ENDBRANCH   8  11
ENDBRANCH   1   7
BRANCH   3  21
ATOM     21  O   UNL     1      36.207 -21.958 -18.188  0.00  0.00    -0.421 OA
BRANCH  21  23
ATOM     22  O   UNL     1      36.860 -19.954 -17.169  0.00  0.00    -0.250 OA
ATOM     23  C   UNL     1      36.704 -21.168 -17.140  0.00  0.00    +0.322 C 
ATOM     24  C   UNL     1      37.026 -22.029 -15.955  0.00  0.00    +0.122 C 
ENDBRANCH  21  23
ENDBRANCH   3  21
BRANCH   5  25
ATOM     25  O   UNL     1      33.697 -22.987 -17.587  0.00  0.00    -0.421 OA
BRANCH  25  27
ATOM     26  O   UNL     1      31.589 -22.605 -16.642  0.00  0.00    -0.250 OA
ATOM     27  C   UNL     1      32.804 -22.710 -16.540  0.00  0.00    +0.322 C 
ATOM     28  C   UNL     1      33.558 -22.553 -15.252  0.00  0.00    +0.122 C 
ENDBRANCH  25  27
ENDBRANCH   5  25
TORSDOF 9
ENDMDL
MODEL 7
REMARK VINA RESULT:     -11.1      4.713     10.818
REMARK  Name = 11957394
REMARK  9 active torsions:
REMARK  status: ('A' for Active; 'I' for Inactive)
REMARK    1  A    between atoms: C_1  and  C_7
REMARK    2  A    between atoms: C_3  and  O_21
REMARK    3  A    between atoms: C_5  and  O_25
REMARK    4  A    between atoms: C_8  and  C_11
REMARK    5  A    between atoms: N_10  and  C_13
REMARK    6  A    between atoms: C_13  and  C_14
REMARK    7  A    between atoms: C_14  and  C_15
REMARK    8  A    between atoms: O_21  and  C_23
REMARK    9  A    between atoms: O_25  and  C_27
REMARK                            x       y       z     vdW  Elec       q    Type
REMARK                         _______ _______ _______ _____ _____    ______ ____
ROOT
ATOM      1  C   UNL     1      34.108 -20.484 -19.849  0.00  0.00    +0.003 C 
ATOM      2  C   UNL     1      33.162 -21.366 -19.324  0.00  0.00    +0.041 C 
ATOM      3  C   UNL     1      33.503 -22.199 -18.257  0.00  0.00    +0.183 C 
ATOM      4  C   UNL     1      35.392 -20.436 -19.308  0.00  0.00    +0.003 C 
ATOM      5  C   UNL     1      34.788 -22.150 -17.716  0.00  0.00    +0.183 C 
ATOM      6  C   UNL     1      35.732 -21.268 -18.242  0.00  0.00    +0.041 C 
ENDROOT
BRANCH   1   7
ATOM      7  C   UNL     1      33.747 -19.604 -20.975  0.00  0.00    +0.005 C 
ATOM      8  C   UNL     1      34.544 -19.344 -22.022  0.00  0.00    +0.058 C 
BRANCH   8  11
ATOM      9  O   UNL     1      33.567 -18.868 -24.147  0.00  0.00    -0.270 OA
ATOM     10  N   UNL     1      34.269 -17.109 -22.798  0.00  0.00    -0.301 N 
ATOM     11  C   UNL     1      34.069 -18.443 -23.111  0.00  0.00    +0.246 C 
ATOM     12  H   UNL     1      34.683 -16.887 -21.933  0.00  0.00    +0.150 HD
BRANCH  10  13
ATOM     13  C   UNL     1      33.898 -16.028 -23.683  0.00  0.00    +0.094 C 
BRANCH  13  14
ATOM     14  C   UNL     1      34.450 -14.679 -23.223  0.00  0.00    +0.048 C 
BRANCH  14  15
ATOM     15  C   UNL     1      33.462 -13.890 -22.399  0.00  0.00    -0.020 C 
ATOM     16  C   UNL     1      33.316 -14.159 -21.038  0.00  0.00    -0.004 C 
ATOM     17  C   UNL     1      32.695 -12.891 -22.999  0.00  0.00    -0.004 C 
ATOM     18  C   UNL     1      32.403 -13.429 -20.277  0.00  0.00    -0.000 C 
ATOM     19  C   UNL     1      31.782 -12.161 -22.237  0.00  0.00    -0.000 C 
ATOM     20  C   UNL     1      31.637 -12.431 -20.876  0.00  0.00    -0.000 C 
ENDBRANCH  14  15
ENDBRANCH  13  14
ENDBRANCH  10  13
ENDBRANCH   8  11
ENDBRANCH   1   7
BRANCH   3  21
ATOM     21  O   UNL     1      32.572 -23.055 -17.752  0.00  0.00    -0.421 OA
BRANCH  21  23
ATOM     22  O   UNL     1      30.709 -21.703 -17.322  0.00  0.00    -0.250 OA
ATOM     23  C   UNL     1      31.609 -22.438 -16.937  0.00  0.00    +0.322 C 
ATOM     24  C   UNL     1      31.838 -22.808 -15.502  0.00  0.00    +0.122 C 
ENDBRANCH  21  23
ENDBRANCH   3  21
BRANCH   5  25
ATOM     25  O   UNL     1      35.133 -22.960 -16.676  0.00  0.00    -0.421 OA
BRANCH  25  27
ATOM     26  O   UNL     1      35.005 -21.581 -14.789  0.00  0.00    -0.250 OA
ATOM     27  C   UNL     1      35.648 -22.275 -15.565  0.00  0.00    +0.322 C 
ATOM     28  C   UNL     1      37.126 -22.511 -15.458  0.00  0.00    +0.122 C 
ENDBRANCH  25  27
ENDBRANCH   5  25
TORSDOF 9
ENDMDL
MODEL 8
REMARK VINA RESULT:     -10.9      5.152     11.882
REMARK  Name = 11957394
REMARK  9 active torsions:
REMARK  status: ('A' for Active; 'I' for Inactive)
REMARK    1  A    between atoms: C_1  and  C_7
REMARK    2  A    between atoms: C_3  and  O_21
REMARK    3  A    between atoms: C_5  and  O_25
REMARK    4  A    between atoms: C_8  and  C_11
REMARK    5  A    between atoms: N_10  and  C_13
REMARK    6  A    between atoms: C_13  and  C_14
REMARK    7  A    between atoms: C_14  and  C_15
REMARK    8  A    between atoms: O_21  and  C_23
REMARK    9  A    between atoms: O_25  and  C_27
REMARK                            x       y       z     vdW  Elec       q    Type
REMARK                         _______ _______ _______ _____ _____    ______ ____
ROOT
ATOM      1  C   UNL     1      35.326 -21.292 -18.174  0.00  0.00    +0.003 C 
ATOM      2  C   UNL     1      34.169 -22.002 -17.851  0.00  0.00    +0.041 C 
ATOM      3  C   UNL     1      34.120 -22.759 -16.679  0.00  0.00    +0.183 C 
ATOM      4  C   UNL     1      36.433 -21.340 -17.326  0.00  0.00    +0.003 C 
ATOM      5  C   UNL     1      35.227 -22.806 -15.832  0.00  0.00    +0.183 C 
ATOM      6  C   UNL     1      36.383 -22.096 -16.156  0.00  0.00    +0.041 C 
ENDROOT
BRANCH   1   7
ATOM      7  C   UNL     1      35.378 -20.493 -19.411  0.00  0.00    +0.005 C 
ATOM      8  C   UNL     1      34.304 -19.985 -20.034  0.00  0.00    +0.058 C 
BRANCH   8  11
ATOM      9  O   UNL     1      34.444 -19.683 -22.397  0.00  0.00    -0.270 OA
ATOM     10  N   UNL     1      34.678 -17.840 -21.000  0.00  0.00    -0.301 N 
ATOM     11  C   UNL     1      34.478 -19.181 -21.278  0.00  0.00    +0.246 C 
ATOM     12  H   UNL     1      34.686 -17.553 -20.058  0.00  0.00    +0.150 HD
BRANCH  10  13
ATOM     13  C   UNL     1      34.876 -16.843 -22.027  0.00  0.00    +0.094 C 
BRANCH  13  14
ATOM     14  C   UNL     1      34.395 -15.457 -21.599  0.00  0.00    +0.048 C 
BRANCH  14  15
ATOM     15  C   UNL     1      33.868 -14.636 -22.749  0.00  0.00    -0.020 C 
ATOM     16  C   UNL     1      33.627 -15.238 -23.984  0.00  0.00    -0.004 C 
ATOM     17  C   UNL     1      33.622 -13.273 -22.579  0.00  0.00    -0.004 C 
ATOM     18  C   UNL     1      33.139 -14.478 -25.048  0.00  0.00    -0.000 C 
ATOM     19  C   UNL     1      33.135 -12.513 -23.642  0.00  0.00    -0.000 C 
ATOM     20  C   UNL     1      32.893 -13.117 -24.877  0.00  0.00    -0.000 C 
ENDBRANCH  14  15
ENDBRANCH  13  14
ENDBRANCH  10  13
ENDBRANCH   8  11
ENDBRANCH   1   7
BRANCH   3  21
ATOM     21  O   UNL     1      32.985 -23.447 -16.373  0.00  0.00    -0.421 OA
BRANCH  21  23
ATOM     22  O   UNL     1      32.168 -22.384 -14.453  0.00  0.00    -0.250 OA
ATOM     23  C   UNL     1      32.051 -22.709 -15.628  0.00  0.00    +0.322 C 
ATOM     24  C   UNL     1      30.867 -22.367 -16.483  0.00  0.00    +0.122 C 
ENDBRANCH  21  23
ENDBRANCH   3  21
BRANCH   5  25
ATOM     25  O   UNL     1      35.192 -23.543 -14.687  0.00  0.00    -0.421 OA
BRANCH  25  27
ATOM     26  O   UNL     1      35.793 -25.678 -15.433  0.00  0.00    -0.250 OA
ATOM     27  C   UNL     1      35.987 -24.699 -14.726  0.00  0.00    +0.322 C 
ATOM     28  C   UNL     1      37.128 -24.569 -13.761  0.00  0.00    +0.122 C 
ENDBRANCH  25  27
ENDBRANCH   5  25
TORSDOF 9
ENDMDL
MODEL 9
REMARK VINA RESULT:     -10.9      5.934     13.196
REMARK  Name = 11957394
REMARK  9 active torsions:
REMARK  status: ('A' for Active; 'I' for Inactive)
REMARK    1  A    between atoms: C_1  and  C_7
REMARK    2  A    between atoms: C_3  and  O_21
REMARK    3  A    between atoms: C_5  and  O_25
REMARK    4  A    between atoms: C_8  and  C_11
REMARK    5  A    between atoms: N_10  and  C_13
REMARK    6  A    between atoms: C_13  and  C_14
REMARK    7  A    between atoms: C_14  and  C_15
REMARK    8  A    between atoms: O_21  and  C_23
REMARK    9  A    between atoms: O_25  and  C_27
REMARK                            x       y       z     vdW  Elec       q    Type
REMARK                         _______ _______ _______ _____ _____    ______ ____
ROOT
ATOM      1  C   UNL     1      36.028 -22.056 -16.205  0.00  0.00    +0.003 C 
ATOM      2  C   UNL     1      37.219 -22.527 -15.652  0.00  0.00    +0.041 C 
ATOM      3  C   UNL     1      37.186 -23.395 -14.560  0.00  0.00    +0.183 C 
ATOM      4  C   UNL     1      34.804 -22.453 -15.666  0.00  0.00    +0.003 C 
ATOM      5  C   UNL     1      35.962 -23.792 -14.022  0.00  0.00    +0.183 C 
ATOM      6  C   UNL     1      34.771 -23.321 -14.575  0.00  0.00    +0.041 C 
ENDROOT
BRANCH   1   7
ATOM      7  C   UNL     1      36.063 -21.139 -17.359  0.00  0.00    +0.005 C 
ATOM      8  C   UNL     1      35.499 -21.391 -18.549  0.00  0.00    +0.058 C 
BRANCH   8  11
ATOM      9  O   UNL     1      36.664 -19.948 -20.051  0.00  0.00    -0.270 OA
ATOM     10  N   UNL     1      34.341 -20.020 -20.115  0.00  0.00    -0.301 N 
ATOM     11  C   UNL     1      35.591 -20.383 -19.644  0.00  0.00    +0.246 C 
ATOM     12  H   UNL     1      33.547 -20.438 -19.708  0.00  0.00    +0.150 HD
BRANCH  10  13
ATOM     13  C   UNL     1      34.147 -19.057 -21.175  0.00  0.00    +0.094 C 
BRANCH  13  14
ATOM     14  C   UNL     1      35.076 -17.851 -21.048  0.00  0.00    +0.048 C 
BRANCH  14  15
ATOM     15  C   UNL     1      34.616 -16.666 -21.862  0.00  0.00    -0.020 C 
ATOM     16  C   UNL     1      34.275 -15.473 -21.225  0.00  0.00    -0.004 C 
ATOM     17  C   UNL     1      34.532 -16.764 -23.251  0.00  0.00    -0.004 C 
ATOM     18  C   UNL     1      33.850 -14.377 -21.978  0.00  0.00    -0.000 C 
ATOM     19  C   UNL     1      34.108 -15.669 -24.003  0.00  0.00    -0.000 C 
ATOM     20  C   UNL     1      33.767 -14.475 -23.365  0.00  0.00    -0.000 C 
ENDBRANCH  14  15
ENDBRANCH  13  14
ENDBRANCH  10  13
ENDBRANCH   8  11
ENDBRANCH   1   7
BRANCH   3  21
ATOM     21  O   UNL     1      38.355 -23.849 -14.030  0.00  0.00    -0.421 OA
BRANCH  21  23
ATOM     22  O   UNL     1      37.979 -25.941 -15.012  0.00  0.00    -0.250 OA
ATOM     23  C   UNL     1      38.717 -25.136 -14.459  0.00  0.00    +0.322 C 
ATOM     24  C   UNL     1      40.159 -25.396 -14.140  0.00  0.00    +0.122 C 
ENDBRANCH  21  23
ENDBRANCH   3  21
BRANCH   5  25
ATOM     25  O   UNL     1      35.917 -24.638 -12.955  0.00  0.00    -0.421 OA
BRANCH  25  27
ATOM     26  O   UNL     1      34.265 -24.395 -11.314  0.00  0.00    -0.250 OA
ATOM     27  C   UNL     1      35.339 -24.077 -11.805  0.00  0.00    +0.322 C 
ATOM     28  C   UNL     1      36.236 -23.009 -11.250  0.00  0.00    +0.122 C 
ENDBRANCH  25  27
ENDBRANCH   5  25
TORSDOF 9
ENDMDL
