MODEL 1
REMARK VINA RESULT:     -11.0      0.000      0.000
REMARK  Name = 5326927
REMARK  6 active torsions:
REMARK  status: ('A' for Active; 'I' for Inactive)
REMARK    1  A    between atoms: C_5  and  O_9
REMARK    2  A    between atoms: C_6  and  O_22
REMARK    3  A    between atoms: O_9  and  C_10
REMARK    4  A    between atoms: C_13  and  C_18
REMARK    5  A    between atoms: O_22  and  C_23
REMARK    6  A    between atoms: C_28  and  C_31
REMARK                            x       y       z     vdW  Elec       q    Type
REMARK                         _______ _______ _______ _____ _____    ______ ____
ROOT
ATOM      1  O   UNL     1      36.367 -18.582 -20.514  0.00  0.00    -0.346 OA
ATOM      2  O   UNL     1      33.898 -19.327 -22.157  0.00  0.00    -0.346 OA
ATOM      3  C   UNL     1      34.131 -18.251 -21.229  0.00  0.00    +0.188 C 
ATOM      4  C   UNL     1      35.003 -18.807 -20.121  0.00  0.00    +0.188 C 
ATOM      5  C   UNL     1      34.999 -17.190 -21.859  0.00  0.00    +0.225 C 
ATOM      6  C   UNL     1      34.651 -20.274 -20.137  0.00  0.00    +0.225 C 
ATOM      7  C   UNL     1      36.392 -17.766 -21.697  0.00  0.00    +0.188 C 
ATOM      8  C   UNL     1      34.449 -20.536 -21.613  0.00  0.00    +0.188 C 
ENDROOT
BRANCH   5   9
ATOM      9  O   UNL     1      34.913 -15.985 -21.107  0.00  0.00    -0.474 OA
BRANCH   9  10
ATOM     10  C   UNL     1      34.143 -14.983 -21.636  0.00  0.00    +0.139 C 
ATOM     11  C   UNL     1      33.938 -14.925 -23.010  0.00  0.00    +0.040 C 
ATOM     12  C   UNL     1      33.574 -14.035 -20.793  0.00  0.00    +0.037 C 
ATOM     13  C   UNL     1      33.154 -13.903 -23.549  0.00  0.00    +0.034 C 
ATOM     14  C   UNL     1      32.791 -13.014 -21.332  0.00  0.00    +0.003 C 
ATOM     15  C   UNL     1      32.582 -12.948 -22.709  0.00  0.00    +0.003 C 
BRANCH  13  18
ATOM     16  N   UNL     1      32.609 -12.633 -25.610  0.00  0.00    -0.343 N 
ATOM     17  N   UNL     1      33.044 -14.926 -25.720  0.00  0.00    -0.285 NA
ATOM     18  C   UNL     1      32.936 -13.834 -24.984  0.00  0.00    +0.117 C 
ATOM     19  H   UNL     1      32.465 -12.608 -26.585  0.00  0.00    +0.144 HD
ATOM     20  H   UNL     1      32.521 -11.809 -25.079  0.00  0.00    +0.144 HD
ATOM     21  H   UNL     1      32.896 -14.882 -26.692  0.00  0.00    +0.188 HD
ENDBRANCH  13  18
ENDBRANCH   9  10
ENDBRANCH   5   9
BRANCH   6  22
ATOM     22  O   UNL     1      35.656 -21.083 -19.570  0.00  0.00    -0.474 OA
BRANCH  22  23
ATOM     23  C   UNL     1      35.484 -21.481 -18.264  0.00  0.00    +0.139 C 
ATOM     24  C   UNL     1      34.280 -22.053 -17.878  0.00  0.00    +0.037 C 
ATOM     25  C   UNL     1      36.517 -21.304 -17.354  0.00  0.00    +0.037 C 
ATOM     26  C   UNL     1      34.105 -22.457 -16.554  0.00  0.00    +0.006 C 
ATOM     27  C   UNL     1      36.342 -21.708 -16.030  0.00  0.00    +0.006 C 
ATOM     28  C   UNL     1      35.136 -22.285 -15.631  0.00  0.00    +0.031 C 
BRANCH  28  31
ATOM     29  N   UNL     1      33.691 -23.004 -13.744  0.00  0.00    -0.343 N 
ATOM     30  N   UNL     1      36.002 -22.808 -13.451  0.00  0.00    -0.285 NA
ATOM     31  C   UNL     1      34.955 -22.707 -14.251  0.00  0.00    +0.117 C 
ATOM     32  H   UNL     1      33.592 -23.289 -12.807  0.00  0.00    +0.144 HD
ATOM     33  H   UNL     1      32.899 -22.932 -14.324  0.00  0.00    +0.144 HD
ATOM     34  H   UNL     1      35.881 -23.093 -12.517  0.00  0.00    +0.188 HD
ENDBRANCH  28  31
ENDBRANCH  22  23
ENDBRANCH   6  22
TORSDOF 6
ENDMDL
MODEL 2
REMARK VINA RESULT:     -10.7      5.046     11.746
REMARK  Name = 5326927
REMARK  6 active torsions:
REMARK  status: ('A' for Active; 'I' for Inactive)
REMARK    1  A    between atoms: C_5  and  O_9
REMARK    2  A    between atoms: C_6  and  O_22
REMARK    3  A    between atoms: O_9  and  C_10
REMARK    4  A    between atoms: C_13  and  C_18
REMARK    5  A    between atoms: O_22  and  C_23
REMARK    6  A    between atoms: C_28  and  C_31
REMARK                            x       y       z     vdW  Elec       q    Type
REMARK                         _______ _______ _______ _____ _____    ______ ____
ROOT
ATOM      1  O   UNL     1      34.200 -11.997 -22.147  0.00  0.00    -0.346 OA
ATOM      2  O   UNL     1      31.227 -12.632 -22.481  0.00  0.00    -0.346 OA
ATOM      3  C   UNL     1      32.376 -13.031 -23.253  0.00  0.00    +0.188 C 
ATOM      4  C   UNL     1      33.323 -11.847 -23.276  0.00  0.00    +0.188 C 
ATOM      5  C   UNL     1      33.159 -14.093 -22.523  0.00  0.00    +0.225 C 
ATOM      6  C   UNL     1      32.384 -10.678 -23.104  0.00  0.00    +0.225 C 
ATOM      7  C   UNL     1      33.977 -13.280 -21.539  0.00  0.00    +0.188 C 
ATOM      8  C   UNL     1      31.348 -11.240 -22.155  0.00  0.00    +0.188 C 
ENDROOT
BRANCH   5   9
ATOM      9  O   UNL     1      34.046 -14.746 -23.424  0.00  0.00    -0.474 OA
BRANCH   9  10
ATOM     10  C   UNL     1      34.136 -16.108 -23.321  0.00  0.00    +0.139 C 
ATOM     11  C   UNL     1      34.814 -16.675 -22.248  0.00  0.00    +0.040 C 
ATOM     12  C   UNL     1      33.546 -16.912 -24.291  0.00  0.00    +0.037 C 
ATOM     13  C   UNL     1      34.906 -18.063 -22.144  0.00  0.00    +0.034 C 
ATOM     14  C   UNL     1      33.638 -18.299 -24.187  0.00  0.00    +0.003 C 
ATOM     15  C   UNL     1      34.318 -18.875 -23.114  0.00  0.00    +0.003 C 
BRANCH  13  18
ATOM     16  N   UNL     1      35.035 -19.669 -20.255  0.00  0.00    -0.343 N 
ATOM     17  N   UNL     1      36.834 -18.252 -20.722  0.00  0.00    -0.285 NA
ATOM     18  C   UNL     1      35.616 -18.663 -21.026  0.00  0.00    +0.117 C 
ATOM     19  H   UNL     1      35.534 -20.061 -19.501  0.00  0.00    +0.144 HD
ATOM     20  H   UNL     1      34.127 -19.987 -20.463  0.00  0.00    +0.144 HD
ATOM     21  H   UNL     1      37.316 -18.656 -19.965  0.00  0.00    +0.188 HD
ENDBRANCH  13  18
ENDBRANCH   9  10
ENDBRANCH   5   9
BRANCH   6  22
ATOM     22  O   UNL     1      33.028  -9.532 -22.596  0.00  0.00    -0.474 OA
BRANCH  22  23
ATOM     23  C   UNL     1      32.337  -8.344 -22.654  0.00  0.00    +0.139 C 
ATOM     24  C   UNL     1      31.704  -7.978 -23.832  0.00  0.00    +0.037 C 
ATOM     25  C   UNL     1      32.285  -7.530 -21.531  0.00  0.00    +0.037 C 
ATOM     26  C   UNL     1      31.003  -6.773 -23.891  0.00  0.00    +0.006 C 
ATOM     27  C   UNL     1      31.584  -6.325 -21.588  0.00  0.00    +0.006 C 
ATOM     28  C   UNL     1      30.943  -5.947 -22.769  0.00  0.00    +0.031 C 
BRANCH  28  31
ATOM     29  N   UNL     1      30.196  -3.916 -23.986  0.00  0.00    -0.343 N 
ATOM     30  N   UNL     1      29.550  -4.264 -21.767  0.00  0.00    -0.285 NA
ATOM     31  C   UNL     1      30.212  -4.691 -22.828  0.00  0.00    +0.117 C 
ATOM     32  H   UNL     1      29.694  -3.069 -24.005  0.00  0.00    +0.144 HD
ATOM     33  H   UNL     1      30.685  -4.216 -24.787  0.00  0.00    +0.144 HD
ATOM     34  H   UNL     1      29.056  -3.414 -21.806  0.00  0.00    +0.188 HD
ENDBRANCH  28  31
ENDBRANCH  22  23
ENDBRANCH   6  22
TORSDOF 6
ENDMDL
MODEL 3
REMARK VINA RESULT:     -10.7      2.253     10.014
REMARK  Name = 5326927
REMARK  6 active torsions:
REMARK  status: ('A' for Active; 'I' for Inactive)
REMARK    1  A    between atoms: C_5  and  O_9
REMARK    2  A    between atoms: C_6  and  O_22
REMARK    3  A    between atoms: O_9  and  C_10
REMARK    4  A    between atoms: C_13  and  C_18
REMARK    5  A    between atoms: O_22  and  C_23
REMARK    6  A    between atoms: C_28  and  C_31
REMARK                            x       y       z     vdW  Elec       q    Type
REMARK                         _______ _______ _______ _____ _____    ______ ____
ROOT
ATOM      1  O   UNL     1      33.279 -22.183 -19.992  0.00  0.00    -0.346 OA
ATOM      2  O   UNL     1      35.526 -21.455 -18.048  0.00  0.00    -0.346 OA
ATOM      3  C   UNL     1      34.096 -21.332 -17.934  0.00  0.00    +0.188 C 
ATOM      4  C   UNL     1      33.577 -20.953 -19.308  0.00  0.00    +0.188 C 
ATOM      5  C   UNL     1      33.469 -22.680 -17.681  0.00  0.00    +0.225 C 
ATOM      6  C   UNL     1      34.761 -20.246 -19.919  0.00  0.00    +0.225 C 
ATOM      7  C   UNL     1      33.407 -23.280 -19.072  0.00  0.00    +0.188 C 
ATOM      8  C   UNL     1      35.925 -21.037 -19.362  0.00  0.00    +0.188 C 
ENDROOT
BRANCH   5   9
ATOM      9  O   UNL     1      32.141 -22.513 -17.198  0.00  0.00    -0.474 OA
BRANCH   9  10
ATOM     10  C   UNL     1      31.926 -22.801 -15.876  0.00  0.00    +0.139 C 
ATOM     11  C   UNL     1      33.003 -23.131 -15.060  0.00  0.00    +0.040 C 
ATOM     12  C   UNL     1      30.635 -22.759 -15.364  0.00  0.00    +0.037 C 
ATOM     13  C   UNL     1      32.783 -23.425 -13.713  0.00  0.00    +0.034 C 
ATOM     14  C   UNL     1      30.416 -23.054 -14.019  0.00  0.00    +0.003 C 
ATOM     15  C   UNL     1      31.489 -23.387 -13.193  0.00  0.00    +0.003 C 
BRANCH  13  18
ATOM     16  N   UNL     1      34.855 -24.711 -13.247  0.00  0.00    -0.343 N 
ATOM     17  N   UNL     1      34.027 -23.198 -11.671  0.00  0.00    -0.285 NA
ATOM     18  C   UNL     1      33.903 -23.773 -12.853  0.00  0.00    +0.117 C 
ATOM     19  H   UNL     1      35.605 -24.932 -12.648  0.00  0.00    +0.144 HD
ATOM     20  H   UNL     1      34.778 -25.153 -14.123  0.00  0.00    +0.144 HD
ATOM     21  H   UNL     1      34.784 -23.433 -11.086  0.00  0.00    +0.188 HD
ENDBRANCH  13  18
ENDBRANCH   9  10
ENDBRANCH   5   9
BRANCH   6  22
ATOM     22  O   UNL     1      34.727 -20.240 -21.327  0.00  0.00    -0.474 OA
BRANCH  22  23
ATOM     23  C   UNL     1      34.546 -19.026 -21.949  0.00  0.00    +0.139 C 
ATOM     24  C   UNL     1      34.872 -17.859 -21.274  0.00  0.00    +0.037 C 
ATOM     25  C   UNL     1      34.042 -18.989 -23.241  0.00  0.00    +0.037 C 
ATOM     26  C   UNL     1      34.689 -16.627 -21.904  0.00  0.00    +0.006 C 
ATOM     27  C   UNL     1      33.859 -17.758 -23.872  0.00  0.00    +0.006 C 
ATOM     28  C   UNL     1      34.183 -16.577 -23.203  0.00  0.00    +0.031 C 
BRANCH  28  31
ATOM     29  N   UNL     1      34.123 -14.095 -23.162  0.00  0.00    -0.343 N 
ATOM     30  N   UNL     1      33.688 -15.252 -25.146  0.00  0.00    -0.285 NA
ATOM     31  C   UNL     1      33.994 -15.294 -23.861  0.00  0.00    +0.117 C 
ATOM     32  H   UNL     1      33.991 -13.238 -23.628  0.00  0.00    +0.144 HD
ATOM     33  H   UNL     1      34.348 -14.105 -22.203  0.00  0.00    +0.144 HD
ATOM     34  H   UNL     1      33.559 -14.385 -25.592  0.00  0.00    +0.188 HD
ENDBRANCH  28  31
ENDBRANCH  22  23
ENDBRANCH   6  22
TORSDOF 6
ENDMDL
MODEL 4
REMARK VINA RESULT:     -10.7      1.306      2.075
REMARK  Name = 5326927
REMARK  6 active torsions:
REMARK  status: ('A' for Active; 'I' for Inactive)
REMARK    1  A    between atoms: C_5  and  O_9
REMARK    2  A    between atoms: C_6  and  O_22
REMARK    3  A    between atoms: O_9  and  C_10
REMARK    4  A    between atoms: C_13  and  C_18
REMARK    5  A    between atoms: O_22  and  C_23
REMARK    6  A    between atoms: C_28  and  C_31
REMARK                            x       y       z     vdW  Elec       q    Type
REMARK                         _______ _______ _______ _____ _____    ______ ____
ROOT
ATOM      1  O   UNL     1      36.559 -18.437 -20.765  0.00  0.00    -0.346 OA
ATOM      2  O   UNL     1      34.038 -19.667 -21.986  0.00  0.00    -0.346 OA
ATOM      3  C   UNL     1      34.272 -18.376 -21.391  0.00  0.00    +0.188 C 
ATOM      4  C   UNL     1      35.231 -18.592 -20.236  0.00  0.00    +0.188 C 
ATOM      5  C   UNL     1      35.051 -17.494 -22.333  0.00  0.00    +0.225 C 
ATOM      6  C   UNL     1      34.950 -20.021 -19.844  0.00  0.00    +0.225 C 
ATOM      7  C   UNL     1      36.477 -17.962 -22.120  0.00  0.00    +0.188 C 
ATOM      8  C   UNL     1      34.677 -20.671 -21.183  0.00  0.00    +0.188 C 
ENDROOT
BRANCH   5   9
ATOM      9  O   UNL     1      34.951 -16.136 -21.919  0.00  0.00    -0.474 OA
BRANCH   9  10
ATOM     10  C   UNL     1      34.224 -15.299 -22.724  0.00  0.00    +0.139 C 
ATOM     11  C   UNL     1      33.608 -14.179 -22.175  0.00  0.00    +0.040 C 
ATOM     12  C   UNL     1      34.110 -15.577 -24.081  0.00  0.00    +0.037 C 
ATOM     13  C   UNL     1      32.868 -13.327 -22.995  0.00  0.00    +0.034 C 
ATOM     14  C   UNL     1      33.369 -14.726 -24.901  0.00  0.00    +0.003 C 
ATOM     15  C   UNL     1      32.748 -13.601 -24.358  0.00  0.00    +0.003 C 
BRANCH  13  18
ATOM     16  N   UNL     1      31.364 -12.258 -21.335  0.00  0.00    -0.343 N 
ATOM     17  N   UNL     1      32.436 -10.964 -22.958  0.00  0.00    -0.285 NA
ATOM     18  C   UNL     1      32.220 -12.155 -22.430  0.00  0.00    +0.117 C 
ATOM     19  H   UNL     1      30.935 -11.451 -20.968  0.00  0.00    +0.144 HD
ATOM     20  H   UNL     1      31.187 -13.137 -20.929  0.00  0.00    +0.144 HD
ATOM     21  H   UNL     1      31.998 -10.169 -22.577  0.00  0.00    +0.188 HD
ENDBRANCH  13  18
ENDBRANCH   9  10
ENDBRANCH   5   9
BRANCH   6  22
ATOM     22  O   UNL     1      36.023 -20.620 -19.153  0.00  0.00    -0.474 OA
BRANCH  22  23
ATOM     23  C   UNL     1      35.730 -21.276 -17.980  0.00  0.00    +0.139 C 
ATOM     24  C   UNL     1      36.677 -21.318 -16.967  0.00  0.00    +0.037 C 
ATOM     25  C   UNL     1      34.493 -21.885 -17.828  0.00  0.00    +0.037 C 
ATOM     26  C   UNL     1      36.381 -21.983 -15.777  0.00  0.00    +0.006 C 
ATOM     27  C   UNL     1      34.196 -22.549 -16.638  0.00  0.00    +0.006 C 
ATOM     28  C   UNL     1      35.141 -22.598 -15.613  0.00  0.00    +0.031 C 
BRANCH  28  31
ATOM     29  N   UNL     1      34.288 -24.574 -14.375  0.00  0.00    -0.343 N 
ATOM     30  N   UNL     1      35.057 -22.698 -13.213  0.00  0.00    -0.285 NA
ATOM     31  C   UNL     1      34.830 -23.290 -14.371  0.00  0.00    +0.117 C 
ATOM     32  H   UNL     1      34.085 -25.025 -13.523  0.00  0.00    +0.144 HD
ATOM     33  H   UNL     1      34.109 -25.031 -15.228  0.00  0.00    +0.144 HD
ATOM     34  H   UNL     1      34.847 -23.165 -12.372  0.00  0.00    +0.188 HD
ENDBRANCH  28  31
ENDBRANCH  22  23
ENDBRANCH   6  22
TORSDOF 6
ENDMDL
MODEL 5
REMARK VINA RESULT:     -10.6      6.652     10.330
REMARK  Name = 5326927
REMARK  6 active torsions:
REMARK  status: ('A' for Active; 'I' for Inactive)
REMARK    1  A    between atoms: C_5  and  O_9
REMARK    2  A    between atoms: C_6  and  O_22
REMARK    3  A    between atoms: O_9  and  C_10
REMARK    4  A    between atoms: C_13  and  C_18
REMARK    5  A    between atoms: O_22  and  C_23
REMARK    6  A    between atoms: C_28  and  C_31
REMARK                            x       y       z     vdW  Elec       q    Type
REMARK                         _______ _______ _______ _____ _____    ______ ____
ROOT
ATOM      1  O   UNL     1      31.964  -9.083 -23.274  0.00  0.00    -0.346 OA
ATOM      2  O   UNL     1      30.355  -9.497 -20.706  0.00  0.00    -0.346 OA
ATOM      3  C   UNL     1      31.555  -8.743 -20.963  0.00  0.00    +0.188 C 
ATOM      4  C   UNL     1      32.365  -9.536 -21.970  0.00  0.00    +0.188 C 
ATOM      5  C   UNL     1      31.228  -7.469 -21.701  0.00  0.00    +0.225 C 
ATOM      6  C   UNL     1      31.914 -10.951 -21.706  0.00  0.00    +0.225 C 
ATOM      7  C   UNL     1      31.100  -7.943 -23.135  0.00  0.00    +0.188 C 
ATOM      8  C   UNL     1      30.449 -10.762 -21.378  0.00  0.00    +0.188 C 
ENDROOT
BRANCH   5   9
ATOM      9  O   UNL     1      32.326  -6.567 -21.616  0.00  0.00    -0.474 OA
BRANCH   9  10
ATOM     10  C   UNL     1      32.325  -5.512 -22.491  0.00  0.00    +0.139 C 
ATOM     11  C   UNL     1      31.379  -4.502 -22.351  0.00  0.00    +0.040 C 
ATOM     12  C   UNL     1      33.270  -5.462 -23.509  0.00  0.00    +0.037 C 
ATOM     13  C   UNL     1      31.378  -3.428 -23.242  0.00  0.00    +0.034 C 
ATOM     14  C   UNL     1      33.269  -4.389 -24.399  0.00  0.00    +0.003 C 
ATOM     15  C   UNL     1      32.323  -3.373 -24.266  0.00  0.00    +0.003 C 
BRANCH  13  18
ATOM     16  N   UNL     1      29.794  -1.786 -24.219  0.00  0.00    -0.343 N 
ATOM     17  N   UNL     1      30.051  -1.940 -21.901  0.00  0.00    -0.285 NA
ATOM     18  C   UNL     1      30.392  -2.369 -23.103  0.00  0.00    +0.117 C 
ATOM     19  H   UNL     1      29.129  -1.069 -24.102  0.00  0.00    +0.144 HD
ATOM     20  H   UNL     1      30.037  -2.089 -25.123  0.00  0.00    +0.144 HD
ATOM     21  H   UNL     1      29.384  -1.223 -21.805  0.00  0.00    +0.188 HD
ENDBRANCH  13  18
ENDBRANCH   9  10
ENDBRANCH   5   9
BRANCH   6  22
ATOM     22  O   UNL     1      32.123 -11.805 -22.808  0.00  0.00    -0.474 OA
BRANCH  22  23
ATOM     23  C   UNL     1      32.800 -12.980 -22.576  0.00  0.00    +0.139 C 
ATOM     24  C   UNL     1      33.132 -13.331 -21.276  0.00  0.00    +0.037 C 
ATOM     25  C   UNL     1      33.140 -13.795 -23.646  0.00  0.00    +0.037 C 
ATOM     26  C   UNL     1      33.819 -14.523 -21.040  0.00  0.00    +0.006 C 
ATOM     27  C   UNL     1      33.826 -14.986 -23.412  0.00  0.00    +0.006 C 
ATOM     28  C   UNL     1      34.165 -15.350 -22.108  0.00  0.00    +0.031 C 
BRANCH  28  31
ATOM     29  N   UNL     1      35.370 -17.365 -22.916  0.00  0.00    -0.343 N 
ATOM     30  N   UNL     1      35.070 -17.011 -20.625  0.00  0.00    -0.285 NA
ATOM     31  C   UNL     1      34.880 -16.593 -21.864  0.00  0.00    +0.117 C 
ATOM     32  H   UNL     1      35.852 -18.203 -22.728  0.00  0.00    +0.144 HD
ATOM     33  H   UNL     1      35.237 -17.072 -23.846  0.00  0.00    +0.144 HD
ATOM     34  H   UNL     1      35.553 -17.852 -20.459  0.00  0.00    +0.188 HD
ENDBRANCH  28  31
ENDBRANCH  22  23
ENDBRANCH   6  22
TORSDOF 6
ENDMDL
MODEL 6
REMARK VINA RESULT:     -10.6      4.212      6.655
REMARK  Name = 5326927
REMARK  6 active torsions:
REMARK  status: ('A' for Active; 'I' for Inactive)
REMARK    1  A    between atoms: C_5  and  O_9
REMARK    2  A    between atoms: C_6  and  O_22
REMARK    3  A    between atoms: O_9  and  C_10
REMARK    4  A    between atoms: C_13  and  C_18
REMARK    5  A    between atoms: O_22  and  C_23
REMARK    6  A    between atoms: C_28  and  C_31
REMARK                            x       y       z     vdW  Elec       q    Type
REMARK                         _______ _______ _______ _____ _____    ______ ____
ROOT
ATOM      1  O   UNL     1      34.006 -13.381 -22.655  0.00  0.00    -0.346 OA
ATOM      2  O   UNL     1      32.442 -12.924 -25.243  0.00  0.00    -0.346 OA
ATOM      3  C   UNL     1      32.002 -13.053 -23.878  0.00  0.00    +0.188 C 
ATOM      4  C   UNL     1      32.893 -14.091 -23.224  0.00  0.00    +0.188 C 
ATOM      5  C   UNL     1      32.305 -11.793 -23.106  0.00  0.00    +0.225 C 
ATOM      6  C   UNL     1      33.313 -14.942 -24.397  0.00  0.00    +0.225 C 
ATOM      7  C   UNL     1      33.769 -11.967 -22.755  0.00  0.00    +0.188 C 
ATOM      8  C   UNL     1      33.446 -13.917 -25.502  0.00  0.00    +0.188 C 
ENDROOT
BRANCH   5   9
ATOM      9  O   UNL     1      31.547 -11.770 -21.901  0.00  0.00    -0.474 OA
BRANCH   9  10
ATOM     10  C   UNL     1      31.482 -10.574 -21.238  0.00  0.00    +0.139 C 
ATOM     11  C   UNL     1      31.458  -9.386 -21.961  0.00  0.00    +0.040 C 
ATOM     12  C   UNL     1      31.438 -10.559 -19.848  0.00  0.00    +0.037 C 
ATOM     13  C   UNL     1      31.392  -8.167 -21.284  0.00  0.00    +0.034 C 
ATOM     14  C   UNL     1      31.372  -9.341 -19.172  0.00  0.00    +0.003 C 
ATOM     15  C   UNL     1      31.349  -8.146 -19.890  0.00  0.00    +0.003 C 
BRANCH  13  18
ATOM     16  N   UNL     1      32.380  -5.973 -21.891  0.00  0.00    -0.343 N 
ATOM     17  N   UNL     1      30.371  -6.669 -22.861  0.00  0.00    -0.285 NA
ATOM     18  C   UNL     1      31.368  -6.921 -22.032  0.00  0.00    +0.117 C 
ATOM     19  H   UNL     1      32.344  -5.134 -22.408  0.00  0.00    +0.144 HD
ATOM     20  H   UNL     1      33.130  -6.140 -21.276  0.00  0.00    +0.144 HD
ATOM     21  H   UNL     1      30.353  -5.826 -23.368  0.00  0.00    +0.188 HD
ENDBRANCH  13  18
ENDBRANCH   9  10
ENDBRANCH   5   9
BRANCH   6  22
ATOM     22  O   UNL     1      34.509 -15.648 -24.158  0.00  0.00    -0.474 OA
BRANCH  22  23
ATOM     23  C   UNL     1      34.464 -16.673 -23.241  0.00  0.00    +0.139 C 
ATOM     24  C   UNL     1      33.953 -17.906 -23.618  0.00  0.00    +0.037 C 
ATOM     25  C   UNL     1      34.931 -16.456 -21.952  0.00  0.00    +0.037 C 
ATOM     26  C   UNL     1      33.908 -18.945 -22.688  0.00  0.00    +0.006 C 
ATOM     27  C   UNL     1      34.887 -17.494 -21.021  0.00  0.00    +0.006 C 
ATOM     28  C   UNL     1      34.375 -18.739 -21.390  0.00  0.00    +0.031 C 
BRANCH  28  31
ATOM     29  N   UNL     1      33.121 -20.401 -20.038  0.00  0.00    -0.343 N 
ATOM     30  N   UNL     1      35.449 -20.268 -19.880  0.00  0.00    -0.285 NA
ATOM     31  C   UNL     1      34.330 -19.822 -20.420  0.00  0.00    +0.117 C 
ATOM     32  H   UNL     1      33.114 -21.134 -19.380  0.00  0.00    +0.144 HD
ATOM     33  H   UNL     1      32.276 -20.080 -20.427  0.00  0.00    +0.144 HD
ATOM     34  H   UNL     1      35.420 -21.000 -19.223  0.00  0.00    +0.188 HD
ENDBRANCH  28  31
ENDBRANCH  22  23
ENDBRANCH   6  22
TORSDOF 6
ENDMDL
MODEL 7
REMARK VINA RESULT:     -10.5      2.956     10.012
REMARK  Name = 5326927
REMARK  6 active torsions:
REMARK  status: ('A' for Active; 'I' for Inactive)
REMARK    1  A    between atoms: C_5  and  O_9
REMARK    2  A    between atoms: C_6  and  O_22
REMARK    3  A    between atoms: O_9  and  C_10
REMARK    4  A    between atoms: C_13  and  C_18
REMARK    5  A    between atoms: O_22  and  C_23
REMARK    6  A    between atoms: C_28  and  C_31
REMARK                            x       y       z     vdW  Elec       q    Type
REMARK                         _______ _______ _______ _____ _____    ______ ____
ROOT
ATOM      1  O   UNL     1      33.253 -22.007 -20.037  0.00  0.00    -0.346 OA
ATOM      2  O   UNL     1      35.608 -21.420 -18.176  0.00  0.00    -0.346 OA
ATOM      3  C   UNL     1      34.194 -21.191 -18.020  0.00  0.00    +0.188 C 
ATOM      4  C   UNL     1      33.661 -20.794 -19.382  0.00  0.00    +0.188 C 
ATOM      5  C   UNL     1      33.479 -22.486 -17.727  0.00  0.00    +0.225 C 
ATOM      6  C   UNL     1      34.873 -20.183 -20.040  0.00  0.00    +0.225 C 
ATOM      7  C   UNL     1      33.329 -23.098 -19.105  0.00  0.00    +0.188 C 
ATOM      8  C   UNL     1      35.994 -21.050 -19.508  0.00  0.00    +0.188 C 
ENDROOT
BRANCH   5   9
ATOM      9  O   UNL     1      32.183 -22.215 -17.205  0.00  0.00    -0.474 OA
BRANCH   9  10
ATOM     10  C   UNL     1      31.817 -22.903 -16.079  0.00  0.00    +0.139 C 
ATOM     11  C   UNL     1      30.508 -23.352 -15.941  0.00  0.00    +0.040 C 
ATOM     12  C   UNL     1      32.758 -23.146 -15.084  0.00  0.00    +0.037 C 
ATOM     13  C   UNL     1      30.135 -24.053 -14.793  0.00  0.00    +0.034 C 
ATOM     14  C   UNL     1      32.385 -23.846 -13.937  0.00  0.00    +0.003 C 
ATOM     15  C   UNL     1      31.074 -24.299 -13.791  0.00  0.00    +0.003 C 
BRANCH  13  18
ATOM     16  N   UNL     1      28.481 -25.703 -13.956  0.00  0.00    -0.343 N 
ATOM     17  N   UNL     1      27.771 -23.832 -15.162  0.00  0.00    -0.285 NA
ATOM     18  C   UNL     1      28.769 -24.524 -14.641  0.00  0.00    +0.117 C 
ATOM     19  H   UNL     1      27.547 -26.004 -13.865  0.00  0.00    +0.144 HD
ATOM     20  H   UNL     1      29.210 -26.235 -13.563  0.00  0.00    +0.144 HD
ATOM     21  H   UNL     1      26.845 -24.150 -15.061  0.00  0.00    +0.188 HD
ENDBRANCH  13  18
ENDBRANCH   9  10
ENDBRANCH   5   9
BRANCH   6  22
ATOM     22  O   UNL     1      34.794 -20.193 -21.447  0.00  0.00    -0.474 OA
BRANCH  22  23
ATOM     23  C   UNL     1      34.575 -18.989 -22.075  0.00  0.00    +0.139 C 
ATOM     24  C   UNL     1      34.988 -17.815 -21.463  0.00  0.00    +0.037 C 
ATOM     25  C   UNL     1      33.943 -18.969 -23.311  0.00  0.00    +0.037 C 
ATOM     26  C   UNL     1      34.765 -16.593 -22.100  0.00  0.00    +0.006 C 
ATOM     27  C   UNL     1      33.721 -17.748 -23.948  0.00  0.00    +0.006 C 
ATOM     28  C   UNL     1      34.132 -16.561 -23.342  0.00  0.00    +0.031 C 
BRANCH  28  31
ATOM     29  N   UNL     1      34.092 -14.078 -23.343  0.00  0.00    -0.343 N 
ATOM     30  N   UNL     1      33.496 -15.267 -25.266  0.00  0.00    -0.285 NA
ATOM     31  C   UNL     1      33.901 -15.288 -24.008  0.00  0.00    +0.117 C 
ATOM     32  H   UNL     1      33.930 -13.228 -23.813  0.00  0.00    +0.144 HD
ATOM     33  H   UNL     1      34.391 -14.073 -22.405  0.00  0.00    +0.144 HD
ATOM     34  H   UNL     1      33.339 -14.406 -25.717  0.00  0.00    +0.188 HD
ENDBRANCH  28  31
ENDBRANCH  22  23
ENDBRANCH   6  22
TORSDOF 6
ENDMDL
MODEL 8
REMARK VINA RESULT:     -10.3      2.351     10.357
REMARK  Name = 5326927
REMARK  6 active torsions:
REMARK  status: ('A' for Active; 'I' for Inactive)
REMARK    1  A    between atoms: C_5  and  O_9
REMARK    2  A    between atoms: C_6  and  O_22
REMARK    3  A    between atoms: O_9  and  C_10
REMARK    4  A    between atoms: C_13  and  C_18
REMARK    5  A    between atoms: O_22  and  C_23
REMARK    6  A    between atoms: C_28  and  C_31
REMARK                            x       y       z     vdW  Elec       q    Type
REMARK                         _______ _______ _______ _____ _____    ______ ____
ROOT
ATOM      1  O   UNL     1      35.372 -21.295 -17.996  0.00  0.00    -0.346 OA
ATOM      2  O   UNL     1      32.382 -21.208 -18.635  0.00  0.00    -0.346 OA
ATOM      3  C   UNL     1      33.264 -22.315 -18.370  0.00  0.00    +0.188 C 
ATOM      4  C   UNL     1      34.600 -21.973 -19.002  0.00  0.00    +0.188 C 
ATOM      5  C   UNL     1      33.582 -22.396 -16.898  0.00  0.00    +0.225 C 
ATOM      6  C   UNL     1      34.201 -21.044 -20.121  0.00  0.00    +0.225 C 
ATOM      7  C   UNL     1      34.675 -21.357 -16.740  0.00  0.00    +0.188 C 
ATOM      8  C   UNL     1      33.048 -20.282 -19.506  0.00  0.00    +0.188 C 
ENDROOT
BRANCH   5   9
ATOM      9  O   UNL     1      34.122 -23.676 -16.590  0.00  0.00    -0.474 OA
BRANCH   9  10
ATOM     10  C   UNL     1      34.536 -23.875 -15.300  0.00  0.00    +0.139 C 
ATOM     11  C   UNL     1      35.843 -24.278 -15.051  0.00  0.00    +0.040 C 
ATOM     12  C   UNL     1      33.645 -23.671 -14.252  0.00  0.00    +0.037 C 
ATOM     13  C   UNL     1      36.265 -24.481 -13.736  0.00  0.00    +0.034 C 
ATOM     14  C   UNL     1      34.066 -23.875 -12.938  0.00  0.00    +0.003 C 
ATOM     15  C   UNL     1      35.375 -24.280 -12.680  0.00  0.00    +0.003 C 
BRANCH  13  18
ATOM     16  N   UNL     1      38.054 -26.202 -13.744  0.00  0.00    -0.343 N 
ATOM     17  N   UNL     1      38.492 -24.051 -12.945  0.00  0.00    -0.285 NA
ATOM     18  C   UNL     1      37.629 -24.904 -13.467  0.00  0.00    +0.117 C 
ATOM     19  H   UNL     1      38.983 -26.468 -13.553  0.00  0.00    +0.144 HD
ATOM     20  H   UNL     1      37.425 -26.854 -14.130  0.00  0.00    +0.144 HD
ATOM     21  H   UNL     1      39.416 -24.335 -12.761  0.00  0.00    +0.188 HD
ENDBRANCH  13  18
ENDBRANCH   9  10
ENDBRANCH   5   9
BRANCH   6  22
ATOM     22  O   UNL     1      35.254 -20.204 -20.536  0.00  0.00    -0.474 OA
BRANCH  22  23
ATOM     23  C   UNL     1      34.934 -19.155 -21.367  0.00  0.00    +0.139 C 
ATOM     24  C   UNL     1      35.255 -17.860 -20.986  0.00  0.00    +0.037 C 
ATOM     25  C   UNL     1      34.297 -19.409 -22.573  0.00  0.00    +0.037 C 
ATOM     26  C   UNL     1      34.931 -16.796 -21.828  0.00  0.00    +0.006 C 
ATOM     27  C   UNL     1      33.974 -18.346 -23.416  0.00  0.00    +0.006 C 
ATOM     28  C   UNL     1      34.291 -17.039 -23.043  0.00  0.00    +0.031 C 
BRANCH  28  31
ATOM     29  N   UNL     1      34.117 -14.608 -23.516  0.00  0.00    -0.343 N 
ATOM     30  N   UNL     1      33.480 -16.171 -25.133  0.00  0.00    -0.285 NA
ATOM     31  C   UNL     1      33.955 -15.931 -23.923  0.00  0.00    +0.117 C 
ATOM     32  H   UNL     1      33.883 -13.873 -24.128  0.00  0.00    +0.144 HD
ATOM     33  H   UNL     1      34.466 -14.408 -22.617  0.00  0.00    +0.144 HD
ATOM     34  H   UNL     1      33.252 -15.422 -25.729  0.00  0.00    +0.188 HD
ENDBRANCH  28  31
ENDBRANCH  22  23
ENDBRANCH   6  22
TORSDOF 6
ENDMDL
MODEL 9
REMARK VINA RESULT:     -10.3      2.254      4.080
REMARK  Name = 5326927
REMARK  6 active torsions:
REMARK  status: ('A' for Active; 'I' for Inactive)
REMARK    1  A    between atoms: C_5  and  O_9
REMARK    2  A    between atoms: C_6  and  O_22
REMARK    3  A    between atoms: O_9  and  C_10
REMARK    4  A    between atoms: C_13  and  C_18
REMARK    5  A    between atoms: O_22  and  C_23
REMARK    6  A    between atoms: C_28  and  C_31
REMARK                            x       y       z     vdW  Elec       q    Type
REMARK                         _______ _______ _______ _____ _____    ______ ____
ROOT
ATOM      1  O   UNL     1      35.536 -22.044 -18.830  0.00  0.00    -0.346 OA
ATOM      2  O   UNL     1      32.491 -21.759 -18.791  0.00  0.00    -0.346 OA
ATOM      3  C   UNL     1      33.538 -20.771 -18.747  0.00  0.00    +0.188 C 
ATOM      4  C   UNL     1      34.663 -21.358 -17.917  0.00  0.00    +0.188 C 
ATOM      5  C   UNL     1      34.159 -20.599 -20.109  0.00  0.00    +0.225 C 
ATOM      6  C   UNL     1      33.931 -22.321 -17.015  0.00  0.00    +0.225 C 
ATOM      7  C   UNL     1      35.126 -21.764 -20.179  0.00  0.00    +0.188 C 
ATOM      8  C   UNL     1      32.845 -22.849 -17.926  0.00  0.00    +0.188 C 
ENDROOT
BRANCH   5   9
ATOM      9  O   UNL     1      34.903 -19.386 -20.152  0.00  0.00    -0.474 OA
BRANCH   9  10
ATOM     10  C   UNL     1      34.653 -18.548 -21.206  0.00  0.00    +0.139 C 
ATOM     11  C   UNL     1      34.541 -17.179 -20.985  0.00  0.00    +0.040 C 
ATOM     12  C   UNL     1      34.517 -19.073 -22.486  0.00  0.00    +0.037 C 
ATOM     13  C   UNL     1      34.286 -16.325 -22.059  0.00  0.00    +0.034 C 
ATOM     14  C   UNL     1      34.262 -18.219 -23.559  0.00  0.00    +0.003 C 
ATOM     15  C   UNL     1      34.146 -16.846 -23.346  0.00  0.00    +0.003 C 
BRANCH  13  18
ATOM     16  N   UNL     1      34.120 -13.996 -22.902  0.00  0.00    -0.343 N 
ATOM     17  N   UNL     1      34.099 -14.422 -20.604  0.00  0.00    -0.285 NA
ATOM     18  C   UNL     1      34.165 -14.894 -21.837  0.00  0.00    +0.117 C 
ATOM     19  H   UNL     1      34.038 -13.030 -22.728  0.00  0.00    +0.144 HD
ATOM     20  H   UNL     1      34.170 -14.328 -23.827  0.00  0.00    +0.144 HD
ATOM     21  H   UNL     1      34.018 -13.453 -20.451  0.00  0.00    +0.188 HD
ENDBRANCH  13  18
ENDBRANCH   9  10
ENDBRANCH   5   9
BRANCH   6  22
ATOM     22  O   UNL     1      34.766 -23.339 -16.510  0.00  0.00    -0.474 OA
BRANCH  22  23
ATOM     23  C   UNL     1      34.959 -23.379 -15.149  0.00  0.00    +0.139 C 
ATOM     24  C   UNL     1      36.187 -23.006 -14.622  0.00  0.00    +0.037 C 
ATOM     25  C   UNL     1      33.922 -23.792 -14.324  0.00  0.00    +0.037 C 
ATOM     26  C   UNL     1      36.383 -23.047 -13.241  0.00  0.00    +0.006 C 
ATOM     27  C   UNL     1      34.117 -23.833 -12.943  0.00  0.00    +0.006 C 
ATOM     28  C   UNL     1      35.348 -23.460 -12.403  0.00  0.00    +0.031 C 
BRANCH  28  31
ATOM     29  N   UNL     1      36.360 -22.567 -10.318  0.00  0.00    -0.343 N 
ATOM     30  N   UNL     1      34.967 -24.442 -10.242  0.00  0.00    -0.285 NA
ATOM     31  C   UNL     1      35.551 -23.502 -10.963  0.00  0.00    +0.117 C 
ATOM     32  H   UNL     1      36.484 -22.614  -9.342  0.00  0.00    +0.144 HD
ATOM     33  H   UNL     1      36.807 -21.860 -10.838  0.00  0.00    +0.144 HD
ATOM     34  H   UNL     1      35.104 -24.472  -9.268  0.00  0.00    +0.188 HD
ENDBRANCH  28  31
ENDBRANCH  22  23
ENDBRANCH   6  22
TORSDOF 6
ENDMDL
