MODEL 1
REMARK VINA RESULT:     -14.6      0.000      0.000
REMARK  Name = 4887
REMARK  9 active torsions:
REMARK  status: ('A' for Active; 'I' for Inactive)
REMARK    1  A    between atoms: N_2  and  C_8
REMARK    2  A    between atoms: C_3  and  C_23
REMARK    3  A    between atoms: C_14  and  C_20
REMARK    4  A    between atoms: C_22  and  O_28
REMARK    5  A    between atoms: O_28  and  C_29
REMARK    6  A    between atoms: C_29  and  C_30
REMARK    7  A    between atoms: C_30  and  C_31
REMARK    8  A    between atoms: C_31  and  C_32
REMARK    9  A    between atoms: C_32  and  C_33
REMARK                            x       y       z     vdW  Elec       q    Type
REMARK                         _______ _______ _______ _____ _____    ______ ____
ROOT
ATOM      1  O   UNL     1      33.109 -23.507 -18.381  0.00  0.00    -0.270 OA
ATOM      2  N   UNL     1      31.857 -21.776 -17.401  0.00  0.00    -0.278 N 
ATOM      3  C   UNL     1      32.797 -22.326 -18.281  0.00  0.00    +0.250 C 
ATOM      4  H   UNL     1      31.731 -20.802 -17.457  0.00  0.00    +0.155 HD
ENDROOT
BRANCH   2   8
ATOM      5  O   UNL     1      33.031 -23.024 -15.259  0.00  0.00    -0.442 OA
ATOM      6  O   UNL     1      30.870 -24.994 -12.425  0.00  0.00    -0.286 OA
ATOM      7  C   UNL     1      31.664 -23.081 -15.357  0.00  0.00    +0.163 C 
ATOM      8  C   UNL     1      31.077 -22.442 -16.451  0.00  0.00    +0.086 C 
ATOM      9  C   UNL     1      30.864 -23.737 -14.425  0.00  0.00    +0.075 C 
ATOM     10  C   UNL     1      29.692 -22.465 -16.607  0.00  0.00    +0.018 C 
ATOM     11  C   UNL     1      29.476 -23.762 -14.576  0.00  0.00    +0.006 C 
ATOM     12  C   UNL     1      31.509 -24.400 -13.283  0.00  0.00    +0.202 C 
ATOM     13  C   UNL     1      28.892 -23.123 -15.671  0.00  0.00    +0.002 C 
ATOM     14  C   UNL     1      33.651 -23.650 -14.183  0.00  0.00    +0.213 C 
ATOM     15  C   UNL     1      32.981 -24.311 -13.224  0.00  0.00    +0.090 C 
BRANCH  14  20
ATOM     16  N   UNL     1      35.922 -24.032 -15.112  0.00  0.00    -0.107 NA
ATOM     17  N   UNL     1      35.708 -22.794 -13.226  0.00  0.00    -0.084 NA
ATOM     18  N   UNL     1      37.084 -23.580 -14.619  0.00  0.00    -0.140 N 
ATOM     19  N   UNL     1      37.005 -22.843 -13.503  0.00  0.00    -0.022 NA
ATOM     20  C   UNL     1      35.088 -23.513 -14.206  0.00  0.00    +0.109 C 
ATOM     21  H   UNL     1      37.945 -23.779 -15.052  0.00  0.00    +0.197 HD
ENDBRANCH  14  20
ENDBRANCH   2   8
BRANCH   3  23
ATOM     22  C   UNL     1      34.797 -19.515 -20.808  0.00  0.00    +0.139 C 
ATOM     23  C   UNL     1      33.492 -21.349 -19.160  0.00  0.00    +0.054 C 
ATOM     24  C   UNL     1      35.537 -20.351 -19.971  0.00  0.00    +0.037 C 
ATOM     25  C   UNL     1      33.404 -19.597 -20.821  0.00  0.00    +0.037 C 
ATOM     26  C   UNL     1      34.884 -21.267 -19.146  0.00  0.00    +0.008 C 
ATOM     27  C   UNL     1      32.751 -20.513 -19.997  0.00  0.00    +0.008 C 
BRANCH  22  28
ATOM     28  O   UNL     1      35.434 -18.623 -21.614  0.00  0.00    -0.475 OA
BRANCH  28  29
ATOM     29  C   UNL     1      34.959 -17.277 -21.595  0.00  0.00    +0.205 C 
BRANCH  29  30
ATOM     30  C   UNL     1      34.551 -16.881 -23.007  0.00  0.00    +0.048 C 
BRANCH  30  31
ATOM     31  C   UNL     1      34.282 -15.380 -23.115  0.00  0.00    +0.009 C 
BRANCH  31  32
ATOM     32  C   UNL     1      34.105 -14.749 -21.732  0.00  0.00    +0.026 C 
BRANCH  32  33
ATOM     33  C   UNL     1      33.271 -13.494 -21.796  0.00  0.00    -0.022 C 
ATOM     34  C   UNL     1      33.455 -12.588 -22.841  0.00  0.00    -0.004 C 
ATOM     35  C   UNL     1      32.318 -13.238 -20.812  0.00  0.00    -0.004 C 
ATOM     36  C   UNL     1      32.685 -11.426 -22.901  0.00  0.00    -0.000 C 
ATOM     37  C   UNL     1      31.548 -12.077 -20.871  0.00  0.00    -0.000 C 
ATOM     38  C   UNL     1      31.731 -11.171 -21.915  0.00  0.00    -0.000 C 
ENDBRANCH  32  33
ENDBRANCH  31  32
ENDBRANCH  30  31
ENDBRANCH  29  30
ENDBRANCH  28  29
ENDBRANCH  22  28
ENDBRANCH   3  23
TORSDOF 9
ENDMDL
MODEL 2
REMARK VINA RESULT:     -14.5      1.698      3.889
REMARK  Name = 4887
REMARK  9 active torsions:
REMARK  status: ('A' for Active; 'I' for Inactive)
REMARK    1  A    between atoms: N_2  and  C_8
REMARK    2  A    between atoms: C_3  and  C_23
REMARK    3  A    between atoms: C_14  and  C_20
REMARK    4  A    between atoms: C_22  and  O_28
REMARK    5  A    between atoms: O_28  and  C_29
REMARK    6  A    between atoms: C_29  and  C_30
REMARK    7  A    between atoms: C_30  and  C_31
REMARK    8  A    between atoms: C_31  and  C_32
REMARK    9  A    between atoms: C_32  and  C_33
REMARK                            x       y       z     vdW  Elec       q    Type
REMARK                         _______ _______ _______ _____ _____    ______ ____
ROOT
ATOM      1  O   UNL     1      33.166 -23.711 -18.318  0.00  0.00    -0.270 OA
ATOM      2  N   UNL     1      33.473 -22.048 -16.685  0.00  0.00    -0.278 N 
ATOM      3  C   UNL     1      33.363 -22.546 -17.989  0.00  0.00    +0.250 C 
ATOM      4  H   UNL     1      33.631 -21.080 -16.604  0.00  0.00    +0.155 HD
ENDROOT
BRANCH   2   8
ATOM      5  O   UNL     1      31.043 -22.895 -15.737  0.00  0.00    -0.442 OA
ATOM      6  O   UNL     1      30.659 -24.974 -12.256  0.00  0.00    -0.286 OA
ATOM      7  C   UNL     1      32.155 -23.194 -14.992  0.00  0.00    +0.163 C 
ATOM      8  C   UNL     1      33.387 -22.758 -15.484  0.00  0.00    +0.086 C 
ATOM      9  C   UNL     1      32.097 -23.901 -13.793  0.00  0.00    +0.075 C 
ATOM     10  C   UNL     1      34.554 -23.032 -14.772  0.00  0.00    +0.018 C 
ATOM     11  C   UNL     1      33.263 -24.178 -13.077  0.00  0.00    +0.006 C 
ATOM     12  C   UNL     1      30.787 -24.348 -13.300  0.00  0.00    +0.202 C 
ATOM     13  C   UNL     1      34.493 -23.740 -13.571  0.00  0.00    +0.002 C 
ATOM     14  C   UNL     1      29.798 -23.312 -15.277  0.00  0.00    +0.213 C 
ATOM     15  C   UNL     1      29.621 -23.999 -14.137  0.00  0.00    +0.090 C 
BRANCH  14  20
ATOM     16  N   UNL     1      28.300 -21.684 -16.405  0.00  0.00    -0.107 NA
ATOM     17  N   UNL     1      28.020 -23.893 -16.820  0.00  0.00    -0.084 NA
ATOM     18  N   UNL     1      27.307 -21.957 -17.263  0.00  0.00    -0.140 N 
ATOM     19  N   UNL     1      27.105 -23.253 -17.538  0.00  0.00    -0.022 NA
ATOM     20  C   UNL     1      28.718 -22.928 -16.155  0.00  0.00    +0.109 C 
ATOM     21  H   UNL     1      26.758 -21.248 -17.668  0.00  0.00    +0.197 HD
ENDBRANCH  14  20
ENDBRANCH   2   8
BRANCH   3  23
ATOM     22  C   UNL     1      33.841 -19.649 -21.097  0.00  0.00    +0.139 C 
ATOM     23  C   UNL     1      33.528 -21.539 -19.070  0.00  0.00    +0.054 C 
ATOM     24  C   UNL     1      34.959 -20.287 -20.560  0.00  0.00    +0.037 C 
ATOM     25  C   UNL     1      32.566 -19.957 -20.621  0.00  0.00    +0.037 C 
ATOM     26  C   UNL     1      34.803 -21.231 -19.545  0.00  0.00    +0.008 C 
ATOM     27  C   UNL     1      32.410 -20.902 -19.607  0.00  0.00    +0.008 C 
BRANCH  22  28
ATOM     28  O   UNL     1      33.993 -18.729 -22.088  0.00  0.00    -0.475 OA
BRANCH  28  29
ATOM     29  C   UNL     1      35.091 -17.826 -21.972  0.00  0.00    +0.205 C 
BRANCH  29  30
ATOM     30  C   UNL     1      34.737 -16.750 -20.956  0.00  0.00    +0.048 C 
BRANCH  30  31
ATOM     31  C   UNL     1      34.286 -15.458 -21.637  0.00  0.00    +0.009 C 
BRANCH  31  32
ATOM     32  C   UNL     1      33.856 -14.410 -20.608  0.00  0.00    +0.026 C 
BRANCH  32  33
ATOM     33  C   UNL     1      33.136 -13.256 -21.258  0.00  0.00    -0.022 C 
ATOM     34  C   UNL     1      33.563 -12.775 -22.496  0.00  0.00    -0.004 C 
ATOM     35  C   UNL     1      32.044 -12.668 -20.622  0.00  0.00    -0.004 C 
ATOM     36  C   UNL     1      32.898 -11.707 -23.097  0.00  0.00    -0.000 C 
ATOM     37  C   UNL     1      31.377 -11.600 -21.222  0.00  0.00    -0.000 C 
ATOM     38  C   UNL     1      31.805 -11.119 -22.460  0.00  0.00    -0.000 C 
ENDBRANCH  32  33
ENDBRANCH  31  32
ENDBRANCH  30  31
ENDBRANCH  29  30
ENDBRANCH  28  29
ENDBRANCH  22  28
ENDBRANCH   3  23
TORSDOF 9
ENDMDL
MODEL 3
REMARK VINA RESULT:     -14.1      1.692      3.790
REMARK  Name = 4887
REMARK  9 active torsions:
REMARK  status: ('A' for Active; 'I' for Inactive)
REMARK    1  A    between atoms: N_2  and  C_8
REMARK    2  A    between atoms: C_3  and  C_23
REMARK    3  A    between atoms: C_14  and  C_20
REMARK    4  A    between atoms: C_22  and  O_28
REMARK    5  A    between atoms: O_28  and  C_29
REMARK    6  A    between atoms: C_29  and  C_30
REMARK    7  A    between atoms: C_30  and  C_31
REMARK    8  A    between atoms: C_31  and  C_32
REMARK    9  A    between atoms: C_32  and  C_33
REMARK                            x       y       z     vdW  Elec       q    Type
REMARK                         _______ _______ _______ _____ _____    ______ ____
ROOT
ATOM      1  O   UNL     1      33.766 -23.094 -17.993  0.00  0.00    -0.270 OA
ATOM      2  N   UNL     1      35.247 -21.613 -16.925  0.00  0.00    -0.278 N 
ATOM      3  C   UNL     1      34.401 -22.046 -17.954  0.00  0.00    +0.250 C 
ATOM      4  H   UNL     1      35.679 -20.739 -17.060  0.00  0.00    +0.155 HD
ENDROOT
BRANCH   2   8
ATOM      5  O   UNL     1      33.249 -22.489 -15.263  0.00  0.00    -0.442 OA
ATOM      6  O   UNL     1      34.010 -24.422 -11.761  0.00  0.00    -0.286 OA
ATOM      7  C   UNL     1      34.545 -22.722 -14.878  0.00  0.00    +0.163 C 
ATOM      8  C   UNL     1      35.554 -22.272 -15.731  0.00  0.00    +0.086 C 
ATOM      9  C   UNL     1      34.877 -23.376 -13.694  0.00  0.00    +0.075 C 
ATOM     10  C   UNL     1      36.891 -22.478 -15.394  0.00  0.00    +0.018 C 
ATOM     11  C   UNL     1      36.215 -23.586 -13.352  0.00  0.00    +0.006 C 
ATOM     12  C   UNL     1      33.794 -23.839 -12.815  0.00  0.00    +0.202 C 
ATOM     13  C   UNL     1      37.221 -23.134 -14.207  0.00  0.00    +0.002 C 
ATOM     14  C   UNL     1      32.217 -22.922 -14.438  0.00  0.00    +0.213 C 
ATOM     15  C   UNL     1      32.418 -23.563 -13.274  0.00  0.00    +0.090 C 
BRANCH  14  20
ATOM     16  N   UNL     1      29.783 -22.466 -14.260  0.00  0.00    -0.107 NA
ATOM     17  N   UNL     1      30.751 -22.436 -16.307  0.00  0.00    -0.084 NA
ATOM     18  N   UNL     1      28.935 -22.193 -15.261  0.00  0.00    -0.140 N 
ATOM     19  N   UNL     1      29.465 -22.165 -16.492  0.00  0.00    -0.022 NA
ATOM     20  C   UNL     1      30.909 -22.610 -14.963  0.00  0.00    +0.109 C 
ATOM     21  H   UNL     1      27.978 -22.023 -15.103  0.00  0.00    +0.197 HD
ENDBRANCH  14  20
ENDBRANCH   2   8
BRANCH   3  23
ATOM     22  C   UNL     1      34.105 -19.411 -21.308  0.00  0.00    +0.139 C 
ATOM     23  C   UNL     1      34.299 -21.130 -19.119  0.00  0.00    +0.054 C 
ATOM     24  C   UNL     1      32.948 -19.867 -20.675  0.00  0.00    +0.037 C 
ATOM     25  C   UNL     1      35.358 -19.814 -20.847  0.00  0.00    +0.037 C 
ATOM     26  C   UNL     1      33.045 -20.727 -19.581  0.00  0.00    +0.008 C 
ATOM     27  C   UNL     1      35.455 -20.673 -19.753  0.00  0.00    +0.008 C 
BRANCH  22  28
ATOM     28  O   UNL     1      34.010 -18.570 -22.374  0.00  0.00    -0.475 OA
BRANCH  28  29
ATOM     29  C   UNL     1      34.993 -17.542 -22.479  0.00  0.00    +0.205 C 
BRANCH  29  30
ATOM     30  C   UNL     1      34.750 -16.515 -21.381  0.00  0.00    +0.048 C 
BRANCH  30  31
ATOM     31  C   UNL     1      34.197 -15.207 -21.946  0.00  0.00    +0.009 C 
BRANCH  31  32
ATOM     32  C   UNL     1      33.772 -14.256 -20.825  0.00  0.00    +0.026 C 
BRANCH  32  33
ATOM     33  C   UNL     1      33.039 -13.053 -21.365  0.00  0.00    -0.022 C 
ATOM     34  C   UNL     1      33.430 -12.484 -22.576  0.00  0.00    -0.004 C 
ATOM     35  C   UNL     1      31.972 -12.509 -20.652  0.00  0.00    -0.004 C 
ATOM     36  C   UNL     1      32.754 -11.372 -23.075  0.00  0.00    -0.000 C 
ATOM     37  C   UNL     1      31.294 -11.397 -21.150  0.00  0.00    -0.000 C 
ATOM     38  C   UNL     1      31.685 -10.828 -22.362  0.00  0.00    -0.000 C 
ENDBRANCH  32  33
ENDBRANCH  31  32
ENDBRANCH  30  31
ENDBRANCH  29  30
ENDBRANCH  28  29
ENDBRANCH  22  28
ENDBRANCH   3  23
TORSDOF 9
ENDMDL
MODEL 4
REMARK VINA RESULT:     -14.0      1.993      4.244
REMARK  Name = 4887
REMARK  9 active torsions:
REMARK  status: ('A' for Active; 'I' for Inactive)
REMARK    1  A    between atoms: N_2  and  C_8
REMARK    2  A    between atoms: C_3  and  C_23
REMARK    3  A    between atoms: C_14  and  C_20
REMARK    4  A    between atoms: C_22  and  O_28
REMARK    5  A    between atoms: O_28  and  C_29
REMARK    6  A    between atoms: C_29  and  C_30
REMARK    7  A    between atoms: C_30  and  C_31
REMARK    8  A    between atoms: C_31  and  C_32
REMARK    9  A    between atoms: C_32  and  C_33
REMARK                            x       y       z     vdW  Elec       q    Type
REMARK                         _______ _______ _______ _____ _____    ______ ____
ROOT
ATOM      1  O   UNL     1      35.435 -22.312 -17.403  0.00  0.00    -0.270 OA
ATOM      2  N   UNL     1      33.148 -22.169 -16.880  0.00  0.00    -0.278 N 
ATOM      3  C   UNL     1      34.295 -21.933 -17.647  0.00  0.00    +0.250 C 
ATOM      4  H   UNL     1      32.310 -21.788 -17.228  0.00  0.00    +0.155 HD
ENDROOT
BRANCH   2   8
ATOM      5  O   UNL     1      30.693 -22.822 -15.846  0.00  0.00    -0.442 OA
ATOM      6  O   UNL     1      30.268 -24.891 -12.365  0.00  0.00    -0.286 OA
ATOM      7  C   UNL     1      31.804 -23.217 -15.146  0.00  0.00    +0.163 C 
ATOM      8  C   UNL     1      33.048 -22.880 -15.681  0.00  0.00    +0.086 C 
ATOM      9  C   UNL     1      31.732 -23.927 -13.949  0.00  0.00    +0.075 C 
ATOM     10  C   UNL     1      34.215 -23.255 -15.015  0.00  0.00    +0.018 C 
ATOM     11  C   UNL     1      32.897 -24.305 -13.279  0.00  0.00    +0.006 C 
ATOM     12  C   UNL     1      30.408 -24.269 -13.409  0.00  0.00    +0.202 C 
ATOM     13  C   UNL     1      34.140 -23.966 -13.817  0.00  0.00    +0.002 C 
ATOM     14  C   UNL     1      29.436 -23.139 -15.343  0.00  0.00    +0.213 C 
ATOM     15  C   UNL     1      29.246 -23.819 -14.200  0.00  0.00    +0.090 C 
BRANCH  14  20
ATOM     16  N   UNL     1      27.868 -23.261 -17.265  0.00  0.00    -0.107 NA
ATOM     17  N   UNL     1      27.749 -21.480 -15.871  0.00  0.00    -0.084 NA
ATOM     18  N   UNL     1      26.922 -22.371 -17.596  0.00  0.00    -0.140 N 
ATOM     19  N   UNL     1      26.816 -21.300 -16.798  0.00  0.00    -0.022 NA
ATOM     20  C   UNL     1      28.359 -22.660 -16.178  0.00  0.00    +0.109 C 
ATOM     21  H   UNL     1      26.339 -22.497 -18.379  0.00  0.00    +0.197 HD
ENDBRANCH  14  20
ENDBRANCH   2   8
BRANCH   3  23
ATOM     22  C   UNL     1      33.690 -19.573 -21.161  0.00  0.00    +0.139 C 
ATOM     23  C   UNL     1      34.085 -21.112 -18.868  0.00  0.00    +0.054 C 
ATOM     24  C   UNL     1      32.593 -20.049 -20.443  0.00  0.00    +0.037 C 
ATOM     25  C   UNL     1      34.985 -19.867 -20.733  0.00  0.00    +0.037 C 
ATOM     26  C   UNL     1      32.790 -20.819 -19.297  0.00  0.00    +0.008 C 
ATOM     27  C   UNL     1      35.183 -20.636 -19.587  0.00  0.00    +0.008 C 
BRANCH  22  28
ATOM     28  O   UNL     1      33.497 -18.820 -22.278  0.00  0.00    -0.475 OA
BRANCH  28  29
ATOM     29  C   UNL     1      34.198 -19.215 -23.456  0.00  0.00    +0.205 C 
BRANCH  29  30
ATOM     30  C   UNL     1      33.576 -18.515 -24.656  0.00  0.00    +0.048 C 
BRANCH  30  31
ATOM     31  C   UNL     1      33.340 -17.030 -24.382  0.00  0.00    +0.009 C 
BRANCH  31  32
ATOM     32  C   UNL     1      34.583 -16.375 -23.775  0.00  0.00    +0.026 C 
BRANCH  32  33
ATOM     33  C   UNL     1      34.217 -15.303 -22.779  0.00  0.00    -0.022 C 
ATOM     34  C   UNL     1      33.881 -14.025 -23.223  0.00  0.00    -0.004 C 
ATOM     35  C   UNL     1      34.216 -15.590 -21.415  0.00  0.00    -0.004 C 
ATOM     36  C   UNL     1      33.543 -13.033 -22.303  0.00  0.00    -0.000 C 
ATOM     37  C   UNL     1      33.878 -14.598 -20.494  0.00  0.00    -0.000 C 
ATOM     38  C   UNL     1      33.542 -13.320 -20.938  0.00  0.00    -0.000 C 
ENDBRANCH  32  33
ENDBRANCH  31  32
ENDBRANCH  30  31
ENDBRANCH  29  30
ENDBRANCH  28  29
ENDBRANCH  22  28
ENDBRANCH   3  23
TORSDOF 9
ENDMDL
MODEL 5
REMARK VINA RESULT:     -12.9      1.486      2.103
REMARK  Name = 4887
REMARK  9 active torsions:
REMARK  status: ('A' for Active; 'I' for Inactive)
REMARK    1  A    between atoms: N_2  and  C_8
REMARK    2  A    between atoms: C_3  and  C_23
REMARK    3  A    between atoms: C_14  and  C_20
REMARK    4  A    between atoms: C_22  and  O_28
REMARK    5  A    between atoms: O_28  and  C_29
REMARK    6  A    between atoms: C_29  and  C_30
REMARK    7  A    between atoms: C_30  and  C_31
REMARK    8  A    between atoms: C_31  and  C_32
REMARK    9  A    between atoms: C_32  and  C_33
REMARK                            x       y       z     vdW  Elec       q    Type
REMARK                         _______ _______ _______ _____ _____    ______ ____
ROOT
ATOM      1  O   UNL     1      33.037 -23.640 -17.946  0.00  0.00    -0.270 OA
ATOM      2  N   UNL     1      33.178 -21.869 -16.407  0.00  0.00    -0.278 N 
ATOM      3  C   UNL     1      33.268 -22.468 -17.669  0.00  0.00    +0.250 C 
ATOM      4  H   UNL     1      33.401 -20.911 -16.366  0.00  0.00    +0.155 HD
ENDROOT
BRANCH   2   8
ATOM      5  O   UNL     1      35.069 -23.038 -14.800  0.00  0.00    -0.442 OA
ATOM      6  O   UNL     1      34.132 -24.804 -11.252  0.00  0.00    -0.286 OA
ATOM      7  C   UNL     1      33.767 -23.063 -14.371  0.00  0.00    +0.163 C 
ATOM      8  C   UNL     1      32.813 -22.465 -15.197  0.00  0.00    +0.086 C 
ATOM      9  C   UNL     1      33.376 -23.650 -13.170  0.00  0.00    +0.075 C 
ATOM     10  C   UNL     1      31.471 -22.459 -14.815  0.00  0.00    +0.018 C 
ATOM     11  C   UNL     1      32.034 -23.645 -12.784  0.00  0.00    +0.006 C 
ATOM     12  C   UNL     1      34.402 -24.271 -12.320  0.00  0.00    +0.202 C 
ATOM     13  C   UNL     1      31.082 -23.048 -13.611  0.00  0.00    +0.002 C 
ATOM     14  C   UNL     1      36.047 -23.624 -14.004  0.00  0.00    +0.213 C 
ATOM     15  C   UNL     1      35.787 -24.218 -12.827  0.00  0.00    +0.090 C 
BRANCH  14  20
ATOM     16  N   UNL     1      37.729 -22.785 -15.627  0.00  0.00    -0.107 NA
ATOM     17  N   UNL     1      38.391 -24.247 -14.028  0.00  0.00    -0.084 NA
ATOM     18  N   UNL     1      39.031 -23.099 -15.679  0.00  0.00    -0.140 N 
ATOM     19  N   UNL     1      39.467 -23.962 -14.751  0.00  0.00    -0.022 NA
ATOM     20  C   UNL     1      37.369 -23.527 -14.576  0.00  0.00    +0.109 C 
ATOM     21  H   UNL     1      39.632 -22.719 -16.359  0.00  0.00    +0.197 HD
ENDBRANCH  14  20
ENDBRANCH   2   8
BRANCH   3  23
ATOM     22  C   UNL     1      34.551 -19.891 -20.830  0.00  0.00    +0.139 C 
ATOM     23  C   UNL     1      33.714 -21.572 -18.767  0.00  0.00    +0.054 C 
ATOM     24  C   UNL     1      33.189 -20.080 -20.593  0.00  0.00    +0.037 C 
ATOM     25  C   UNL     1      35.494 -20.542 -20.036  0.00  0.00    +0.037 C 
ATOM     26  C   UNL     1      32.771 -20.921 -19.562  0.00  0.00    +0.008 C 
ATOM     27  C   UNL     1      35.076 -21.383 -19.004  0.00  0.00    +0.008 C 
BRANCH  22  28
ATOM     28  O   UNL     1      34.959 -19.068 -21.834  0.00  0.00    -0.475 OA
BRANCH  28  29
ATOM     29  C   UNL     1      35.652 -17.879 -21.459  0.00  0.00    +0.205 C 
BRANCH  29  30
ATOM     30  C   UNL     1      34.694 -16.971 -20.699  0.00  0.00    +0.048 C 
BRANCH  30  31
ATOM     31  C   UNL     1      34.362 -15.710 -21.496  0.00  0.00    +0.009 C 
BRANCH  31  32
ATOM     32  C   UNL     1      33.838 -14.600 -20.582  0.00  0.00    +0.026 C 
BRANCH  32  33
ATOM     33  C   UNL     1      33.256 -13.456 -21.374  0.00  0.00    -0.022 C 
ATOM     34  C   UNL     1      33.798 -13.121 -22.615  0.00  0.00    -0.004 C 
ATOM     35  C   UNL     1      32.178 -12.733 -20.866  0.00  0.00    -0.004 C 
ATOM     36  C   UNL     1      33.261 -12.063 -23.348  0.00  0.00    -0.000 C 
ATOM     37  C   UNL     1      31.640 -11.675 -21.598  0.00  0.00    -0.000 C 
ATOM     38  C   UNL     1      32.182 -11.339 -22.839  0.00  0.00    -0.000 C 
ENDBRANCH  32  33
ENDBRANCH  31  32
ENDBRANCH  30  31
ENDBRANCH  29  30
ENDBRANCH  28  29
ENDBRANCH  22  28
ENDBRANCH   3  23
TORSDOF 9
ENDMDL
MODEL 6
REMARK VINA RESULT:     -11.6      8.539     15.495
REMARK  Name = 4887
REMARK  9 active torsions:
REMARK  status: ('A' for Active; 'I' for Inactive)
REMARK    1  A    between atoms: N_2  and  C_8
REMARK    2  A    between atoms: C_3  and  C_23
REMARK    3  A    between atoms: C_14  and  C_20
REMARK    4  A    between atoms: C_22  and  O_28
REMARK    5  A    between atoms: O_28  and  C_29
REMARK    6  A    between atoms: C_29  and  C_30
REMARK    7  A    between atoms: C_30  and  C_31
REMARK    8  A    between atoms: C_31  and  C_32
REMARK    9  A    between atoms: C_32  and  C_33
REMARK                            x       y       z     vdW  Elec       q    Type
REMARK                         _______ _______ _______ _____ _____    ______ ____
ROOT
ATOM      1  O   UNL     1      30.064  -9.070 -22.500  0.00  0.00    -0.270 OA
ATOM      2  N   UNL     1      32.062  -8.128 -21.695  0.00  0.00    -0.278 N 
ATOM      3  C   UNL     1      31.259  -9.141 -22.234  0.00  0.00    +0.250 C 
ATOM      4  H   UNL     1      33.006  -8.359 -21.545  0.00  0.00    +0.155 HD
ENDROOT
BRANCH   2   8
ATOM      5  O   UNL     1      32.386  -6.056 -23.464  0.00  0.00    -0.442 OA
ATOM      6  O   UNL     1      31.325  -2.229 -22.564  0.00  0.00    -0.286 OA
ATOM      7  C   UNL     1      31.845  -5.767 -22.237  0.00  0.00    +0.163 C 
ATOM      8  C   UNL     1      31.685  -6.828 -21.345  0.00  0.00    +0.086 C 
ATOM      9  C   UNL     1      31.460  -4.481 -21.863  0.00  0.00    +0.075 C 
ATOM     10  C   UNL     1      31.140  -6.597 -20.082  0.00  0.00    +0.018 C 
ATOM     11  C   UNL     1      30.914  -4.245 -20.600  0.00  0.00    +0.006 C 
ATOM     12  C   UNL     1      31.641  -3.383 -22.823  0.00  0.00    +0.202 C 
ATOM     13  C   UNL     1      30.755  -5.309 -19.710  0.00  0.00    +0.002 C 
ATOM     14  C   UNL     1      32.563  -5.024 -24.378  0.00  0.00    +0.213 C 
ATOM     15  C   UNL     1      32.228  -3.747 -24.127  0.00  0.00    +0.090 C 
BRANCH  14  20
ATOM     16  N   UNL     1      34.392  -5.902 -25.809  0.00  0.00    -0.107 NA
ATOM     17  N   UNL     1      32.381  -5.466 -26.755  0.00  0.00    -0.084 NA
ATOM     18  N   UNL     1      34.339  -6.162 -27.123  0.00  0.00    -0.140 N 
ATOM     19  N   UNL     1      33.167  -5.918 -27.725  0.00  0.00    -0.022 NA
ATOM     20  C   UNL     1      33.143  -5.469 -25.623  0.00  0.00    +0.109 C 
ATOM     21  H   UNL     1      35.116  -6.511 -27.617  0.00  0.00    +0.197 HD
ENDBRANCH  14  20
ENDBRANCH   2   8
BRANCH   3  23
ATOM     22  C   UNL     1      33.240 -12.866 -22.930  0.00  0.00    +0.139 C 
ATOM     23  C   UNL     1      31.948 -10.436 -22.476  0.00  0.00    +0.054 C 
ATOM     24  C   UNL     1      32.370 -12.730 -21.847  0.00  0.00    +0.037 C 
ATOM     25  C   UNL     1      33.463 -11.787 -23.786  0.00  0.00    +0.037 C 
ATOM     26  C   UNL     1      31.725 -11.514 -21.620  0.00  0.00    +0.008 C 
ATOM     27  C   UNL     1      32.817 -10.572 -23.559  0.00  0.00    +0.008 C 
BRANCH  22  28
ATOM     28  O   UNL     1      33.868 -14.052 -23.153  0.00  0.00    -0.475 OA
BRANCH  28  29
ATOM     29  C   UNL     1      34.193 -14.840 -22.008  0.00  0.00    +0.205 C 
BRANCH  29  30
ATOM     30  C   UNL     1      34.573 -16.240 -22.467  0.00  0.00    +0.048 C 
BRANCH  30  31
ATOM     31  C   UNL     1      34.935 -17.141 -21.287  0.00  0.00    +0.009 C 
BRANCH  31  32
ATOM     32  C   UNL     1      35.193 -18.578 -21.746  0.00  0.00    +0.026 C 
BRANCH  32  33
ATOM     33  C   UNL     1      34.682 -19.582 -20.744  0.00  0.00    -0.022 C 
ATOM     34  C   UNL     1      35.581 -20.332 -19.987  0.00  0.00    -0.004 C 
ATOM     35  C   UNL     1      33.310 -19.762 -20.575  0.00  0.00    -0.004 C 
ATOM     36  C   UNL     1      35.109 -21.262 -19.061  0.00  0.00    -0.000 C 
ATOM     37  C   UNL     1      32.836 -20.691 -19.649  0.00  0.00    -0.000 C 
ATOM     38  C   UNL     1      33.736 -21.441 -18.892  0.00  0.00    -0.000 C 
ENDBRANCH  32  33
ENDBRANCH  31  32
ENDBRANCH  30  31
ENDBRANCH  29  30
ENDBRANCH  28  29
ENDBRANCH  22  28
ENDBRANCH   3  23
TORSDOF 9
ENDMDL
