MODEL 1
REMARK VINA RESULT:     -12.8      0.000      0.000
REMARK  Name = 448317
REMARK  6 active torsions:
REMARK  status: ('A' for Active; 'I' for Inactive)
REMARK    1  A    between atoms: C_1  and  C_18
REMARK    2  A    between atoms: C_4  and  N_24
REMARK    3  A    between atoms: C_5  and  S_25
REMARK    4  A    between atoms: S_25  and  C_26
REMARK    5  A    between atoms: C_27  and  O_32
REMARK    6  A    between atoms: O_32  and  C_33
REMARK                            x       y       z     vdW  Elec       q    Type
REMARK                         _______ _______ _______ _____ _____    ______ ____
ROOT
ATOM      1  C   UNL     1      33.611 -20.568 -19.530  0.00  0.00    +0.002 C 
ATOM      2  C   UNL     1      34.895 -20.051 -19.699  0.00  0.00    +0.025 C 
ATOM      3  C   UNL     1      32.604 -20.246 -20.440  0.00  0.00    +0.001 C 
ATOM      4  C   UNL     1      35.173 -19.212 -20.779  0.00  0.00    +0.149 C 
ATOM      5  C   UNL     1      34.166 -18.890 -21.689  0.00  0.00    +0.052 C 
ATOM      6  C   UNL     1      32.881 -19.407 -21.520  0.00  0.00    +0.008 C 
ENDROOT
BRANCH   1  18
ATOM      7  O   UNL     1      38.431 -23.429 -12.170  0.00  0.00    -0.275 OA
ATOM      8  N   UNL     1      35.111 -23.229 -15.729  0.00  0.00    -0.290 N 
ATOM      9  N   UNL     1      37.162 -24.096 -13.995  0.00  0.00    -0.276 N 
ATOM     10  N   UNL     1      32.763 -23.118 -16.248  0.00  0.00    -0.229 NA
ATOM     11  C   UNL     1      34.993 -24.538 -15.071  0.00  0.00    +0.114 C 
ATOM     12  C   UNL     1      35.944 -22.232 -15.038  0.00  0.00    +0.114 C 
ATOM     13  C   UNL     1      36.375 -25.091 -14.727  0.00  0.00    +0.115 C 
ATOM     14  C   UNL     1      37.310 -22.824 -14.699  0.00  0.00    +0.115 C 
ATOM     15  C   UNL     1      34.061 -22.759 -16.525  0.00  0.00    +0.132 C 
ATOM     16  C   UNL     1      37.759 -24.284 -12.752  0.00  0.00    +0.226 C 
ATOM     17  C   UNL     1      34.355 -21.914 -17.612  0.00  0.00    +0.034 C 
ATOM     18  C   UNL     1      33.322 -21.437 -18.411  0.00  0.00    +0.004 C 
ATOM     19  C   UNL     1      37.549 -25.628 -12.100  0.00  0.00    +0.095 C 
ATOM     20  C   UNL     1      32.010 -21.801 -18.130  0.00  0.00    +0.021 C 
ATOM     21  C   UNL     1      31.785 -22.636 -17.048  0.00  0.00    +0.100 C 
ENDBRANCH   1  18
BRANCH   4  24
ATOM     22  O   UNL     1      37.001 -18.625 -22.057  0.00  0.00    -0.126 OA
ATOM     23  O   UNL     1      37.118 -18.361 -19.880  0.00  0.00    -0.126 OA
ATOM     24  N   UNL     1      36.498 -18.707 -20.913  0.00  0.00    +0.058 N 
ENDBRANCH   4  24
BRANCH   5  25
ATOM     25  S   UNL     1      34.455 -17.820 -23.096  0.00  0.00    -0.082 S 
BRANCH  25  26
ATOM     26  C   UNL     1      34.225 -16.213 -22.354  0.00  0.00    +0.063 C 
ATOM     27  C   UNL     1      34.089 -15.063 -23.134  0.00  0.00    +0.144 C 
ATOM     28  C   UNL     1      34.182 -16.117 -20.961  0.00  0.00    +0.010 C 
ATOM     29  C   UNL     1      33.911 -13.822 -22.524  0.00  0.00    +0.037 C 
ATOM     30  C   UNL     1      34.004 -14.874 -20.352  0.00  0.00    +0.001 C 
ATOM     31  C   UNL     1      33.869 -13.727 -21.133  0.00  0.00    +0.003 C 
BRANCH  27  32
ATOM     32  O   UNL     1      34.123 -15.118 -24.496  0.00  0.00    -0.475 OA
BRANCH  32  33
ATOM     33  C   UNL     1      32.906 -14.842 -25.186  0.00  0.00    +0.206 C 
ATOM     34  C   UNL     1      32.977 -13.449 -25.773  0.00  0.00    +0.051 C 
ENDBRANCH  32  33
ENDBRANCH  27  32
ENDBRANCH  25  26
ENDBRANCH   5  25
TORSDOF 6
ENDMDL
MODEL 2
REMARK VINA RESULT:     -10.5      7.036     13.256
REMARK  Name = 448317
REMARK  6 active torsions:
REMARK  status: ('A' for Active; 'I' for Inactive)
REMARK    1  A    between atoms: C_1  and  C_18
REMARK    2  A    between atoms: C_4  and  N_24
REMARK    3  A    between atoms: C_5  and  S_25
REMARK    4  A    between atoms: S_25  and  C_26
REMARK    5  A    between atoms: C_27  and  O_32
REMARK    6  A    between atoms: O_32  and  C_33
REMARK                            x       y       z     vdW  Elec       q    Type
REMARK                         _______ _______ _______ _____ _____    ______ ____
ROOT
ATOM      1  C   UNL     1      32.547 -12.132 -22.211  0.00  0.00    +0.002 C 
ATOM      2  C   UNL     1      32.383 -12.191 -23.595  0.00  0.00    +0.025 C 
ATOM      3  C   UNL     1      33.214 -13.160 -21.544  0.00  0.00    +0.001 C 
ATOM      4  C   UNL     1      32.886 -13.276 -24.313  0.00  0.00    +0.149 C 
ATOM      5  C   UNL     1      33.552 -14.304 -23.646  0.00  0.00    +0.052 C 
ATOM      6  C   UNL     1      33.717 -14.247 -22.261  0.00  0.00    +0.008 C 
ENDROOT
BRANCH   1  18
ATOM      7  O   UNL     1      29.956  -3.543 -24.471  0.00  0.00    -0.275 OA
ATOM      8  N   UNL     1      31.483  -7.384 -21.893  0.00  0.00    -0.290 N 
ATOM      9  N   UNL     1      31.289  -4.827 -23.070  0.00  0.00    -0.276 N 
ATOM     10  N   UNL     1      31.018  -8.833 -20.028  0.00  0.00    -0.229 NA
ATOM     11  C   UNL     1      31.609  -6.190 -21.046  0.00  0.00    +0.114 C 
ATOM     12  C   UNL     1      30.713  -7.215 -23.135  0.00  0.00    +0.114 C 
ATOM     13  C   UNL     1      32.107  -5.001 -21.868  0.00  0.00    +0.115 C 
ATOM     14  C   UNL     1      31.229  -6.012 -23.921  0.00  0.00    +0.115 C 
ATOM     15  C   UNL     1      31.497  -8.653 -21.304  0.00  0.00    +0.132 C 
ATOM     16  C   UNL     1      30.623  -3.662 -23.440  0.00  0.00    +0.226 C 
ATOM     17  C   UNL     1      32.007  -9.740 -22.039  0.00  0.00    +0.034 C 
ATOM     18  C   UNL     1      32.026 -11.007 -21.467  0.00  0.00    +0.004 C 
ATOM     19  C   UNL     1      30.741  -2.490 -22.498  0.00  0.00    +0.095 C 
ATOM     20  C   UNL     1      31.541 -11.189 -20.176  0.00  0.00    +0.021 C 
ATOM     21  C   UNL     1      31.054 -10.080 -19.505  0.00  0.00    +0.100 C 
ENDBRANCH   1  18
BRANCH   4  24
ATOM     22  O   UNL     1      32.146 -12.311 -26.271  0.00  0.00    -0.126 OA
ATOM     23  O   UNL     1      33.084 -14.294 -26.372  0.00  0.00    -0.126 OA
ATOM     24  N   UNL     1      32.695 -13.294 -25.724  0.00  0.00    +0.058 N 
ENDBRANCH   4  24
BRANCH   5  25
ATOM     25  S   UNL     1      34.222 -15.726 -24.505  0.00  0.00    -0.082 S 
BRANCH  25  26
ATOM     26  C   UNL     1      34.381 -16.892 -23.163  0.00  0.00    +0.063 C 
ATOM     27  C   UNL     1      34.059 -18.240 -23.327  0.00  0.00    +0.144 C 
ATOM     28  C   UNL     1      34.836 -16.432 -21.925  0.00  0.00    +0.010 C 
ATOM     29  C   UNL     1      34.192 -19.126 -22.259  0.00  0.00    +0.037 C 
ATOM     30  C   UNL     1      34.970 -17.319 -20.856  0.00  0.00    +0.001 C 
ATOM     31  C   UNL     1      34.648 -18.666 -21.022  0.00  0.00    +0.003 C 
BRANCH  27  32
ATOM     32  O   UNL     1      33.613 -18.726 -24.521  0.00  0.00    -0.475 OA
BRANCH  32  33
ATOM     33  C   UNL     1      32.263 -19.183 -24.571  0.00  0.00    +0.206 C 
ATOM     34  C   UNL     1      31.452 -18.231 -25.423  0.00  0.00    +0.051 C 
ENDBRANCH  32  33
ENDBRANCH  27  32
ENDBRANCH  25  26
ENDBRANCH   5  25
TORSDOF 6
ENDMDL
MODEL 3
REMARK VINA RESULT:     -10.0      2.744      3.920
REMARK  Name = 448317
REMARK  6 active torsions:
REMARK  status: ('A' for Active; 'I' for Inactive)
REMARK    1  A    between atoms: C_1  and  C_18
REMARK    2  A    between atoms: C_4  and  N_24
REMARK    3  A    between atoms: C_5  and  S_25
REMARK    4  A    between atoms: S_25  and  C_26
REMARK    5  A    between atoms: C_27  and  O_32
REMARK    6  A    between atoms: O_32  and  C_33
REMARK                            x       y       z     vdW  Elec       q    Type
REMARK                         _______ _______ _______ _____ _____    ______ ____
ROOT
ATOM      1  C   UNL     1      35.309 -20.361 -19.230  0.00  0.00    +0.002 C 
ATOM      2  C   UNL     1      34.136 -20.288 -19.980  0.00  0.00    +0.025 C 
ATOM      3  C   UNL     1      36.430 -19.624 -19.614  0.00  0.00    +0.001 C 
ATOM      4  C   UNL     1      34.082 -19.477 -21.115  0.00  0.00    +0.149 C 
ATOM      5  C   UNL     1      35.202 -18.740 -21.499  0.00  0.00    +0.052 C 
ATOM      6  C   UNL     1      36.376 -18.813 -20.749  0.00  0.00    +0.008 C 
ENDROOT
BRANCH   1  18
ATOM      7  O   UNL     1      29.068 -25.321 -14.536  0.00  0.00    -0.275 OA
ATOM      8  N   UNL     1      33.074 -22.776 -15.631  0.00  0.00    -0.290 N 
ATOM      9  N   UNL     1      30.714 -23.692 -14.385  0.00  0.00    -0.276 N 
ATOM     10  N   UNL     1      35.476 -22.825 -15.782  0.00  0.00    -0.229 NA
ATOM     11  C   UNL     1      33.073 -23.020 -14.182  0.00  0.00    +0.114 C 
ATOM     12  C   UNL     1      32.092 -23.542 -16.415  0.00  0.00    +0.114 C 
ATOM     13  C   UNL     1      31.660 -22.879 -13.617  0.00  0.00    +0.115 C 
ATOM     14  C   UNL     1      30.697 -23.389 -15.814  0.00  0.00    +0.115 C 
ATOM     15  C   UNL     1      34.263 -22.400 -16.267  0.00  0.00    +0.132 C 
ATOM     16  C   UNL     1      29.866 -24.665 -13.863  0.00  0.00    +0.226 C 
ATOM     17  C   UNL     1      34.193 -21.582 -17.411  0.00  0.00    +0.034 C 
ATOM     18  C   UNL     1      35.366 -21.201 -18.054  0.00  0.00    +0.004 C 
ATOM     19  C   UNL     1      29.956 -24.911 -12.378  0.00  0.00    +0.095 C 
ATOM     20  C   UNL     1      36.593 -21.632 -17.563  0.00  0.00    +0.021 C 
ATOM     21  C   UNL     1      36.594 -22.434 -16.433  0.00  0.00    +0.100 C 
ENDBRANCH   1  18
BRANCH   4  24
ATOM     22  O   UNL     1      32.896 -19.083 -23.053  0.00  0.00    -0.126 OA
ATOM     23  O   UNL     1      31.797 -19.749 -21.272  0.00  0.00    -0.126 OA
ATOM     24  N   UNL     1      32.863 -19.434 -21.850  0.00  0.00    +0.058 N 
ENDBRANCH   4  24
BRANCH   5  25
ATOM     25  S   UNL     1      35.200 -17.681 -22.943  0.00  0.00    -0.082 S 
BRANCH  25  26
ATOM     26  C   UNL     1      34.581 -16.158 -22.247  0.00  0.00    +0.063 C 
ATOM     27  C   UNL     1      34.253 -15.069 -23.055  0.00  0.00    +0.144 C 
ATOM     28  C   UNL     1      34.428 -16.067 -20.861  0.00  0.00    +0.010 C 
ATOM     29  C   UNL     1      33.772 -13.892 -22.481  0.00  0.00    +0.037 C 
ATOM     30  C   UNL     1      33.947 -14.890 -20.288  0.00  0.00    +0.001 C 
ATOM     31  C   UNL     1      33.619 -13.802 -21.097  0.00  0.00    +0.003 C 
BRANCH  27  32
ATOM     32  O   UNL     1      34.387 -15.121 -24.411  0.00  0.00    -0.475 OA
BRANCH  32  33
ATOM     33  C   UNL     1      33.189 -15.071 -25.183  0.00  0.00    +0.206 C 
ATOM     34  C   UNL     1      32.985 -13.659 -25.686  0.00  0.00    +0.051 C 
ENDBRANCH  32  33
ENDBRANCH  27  32
ENDBRANCH  25  26
ENDBRANCH   5  25
TORSDOF 6
ENDMDL
