MODEL 1
REMARK VINA RESULT:     -12.0      0.000      0.000
REMARK  Name = 25102845
REMARK  4 active torsions:
REMARK  status: ('A' for Active; 'I' for Inactive)
REMARK    1  A    between atoms: C_5  and  C_12
REMARK    2  A    between atoms: C_9  and  C_17
REMARK    3  A    between atoms: C_17  and  C_18
REMARK    4  A    between atoms: C_18  and  N_21
REMARK                            x       y       z     vdW  Elec       q    Type
REMARK                         _______ _______ _______ _____ _____    ______ ____
ROOT
ATOM      1  F   UNL     1      30.876 -23.790 -12.982  0.00  0.00    -0.202 F 
ATOM      2  F   UNL     1      32.103 -25.395 -13.800  0.00  0.00    -0.202 F 
ATOM      3  O   UNL     1      35.155 -22.223 -16.551  0.00  0.00    -0.275 OA
ATOM      4  N   UNL     1      33.436 -23.066 -15.251  0.00  0.00    -0.267 N 
ATOM      5  C   UNL     1      34.242 -23.323 -14.065  0.00  0.00    +0.158 C 
ATOM      6  C   UNL     1      33.231 -23.506 -12.940  0.00  0.00    +0.098 C 
ATOM      7  C   UNL     1      32.009 -24.053 -13.660  0.00  0.00    +0.284 C 
ATOM      8  C   UNL     1      32.026 -23.383 -15.018  0.00  0.00    +0.160 C 
ATOM      9  C   UNL     1      33.959 -22.476 -16.391  0.00  0.00    +0.228 C 
ENDROOT
BRANCH   5  12
ATOM     10  O   UNL     1      34.628 -25.417 -15.118  0.00  0.00    -0.273 OA
ATOM     11  N   UNL     1      36.191 -24.705 -13.572  0.00  0.00    -0.278 N 
ATOM     12  C   UNL     1      35.028 -24.577 -14.310  0.00  0.00    +0.244 C 
ATOM     13  C   UNL     1      37.062 -25.865 -13.690  0.00  0.00    +0.094 C 
ATOM     14  C   UNL     1      36.721 -23.749 -12.604  0.00  0.00    +0.094 C 
ATOM     15  C   UNL     1      38.342 -25.454 -12.979  0.00  0.00    +0.023 C 
ATOM     16  C   UNL     1      37.841 -24.502 -11.901  0.00  0.00    +0.023 C 
ENDBRANCH   5  12
BRANCH   9  17
ATOM     17  C   UNL     1      32.960 -22.156 -17.475  0.00  0.00    +0.107 C 
BRANCH  17  18
ATOM     18  C   UNL     1      33.537 -22.499 -18.832  0.00  0.00    +0.111 C 
BRANCH  18  21
ATOM     19  O   UNL     1      36.310 -21.439 -19.091  0.00  0.00    -0.269 OA
ATOM     20  O   UNL     1      31.967 -20.509 -20.408  0.00  0.00    -0.269 OA
ATOM     21  N   UNL     1      33.999 -21.334 -19.537  0.00  0.00    -0.222 N 
ATOM     22  C   UNL     1      35.323 -20.933 -19.592  0.00  0.00    +0.255 C 
ATOM     23  C   UNL     1      33.173 -20.475 -20.244  0.00  0.00    +0.255 C 
ATOM     24  C   UNL     1      35.347 -19.723 -20.411  0.00  0.00    +0.058 C 
ATOM     25  C   UNL     1      34.045 -19.445 -20.806  0.00  0.00    +0.058 C 
ATOM     26  C   UNL     1      36.407 -18.923 -20.784  0.00  0.00    +0.005 C 
ATOM     27  C   UNL     1      33.738 -18.354 -21.592  0.00  0.00    +0.005 C 
ATOM     28  C   UNL     1      36.120 -17.813 -21.583  0.00  0.00    +0.000 C 
ATOM     29  C   UNL     1      34.798 -17.531 -21.983  0.00  0.00    +0.000 C 
ENDBRANCH  18  21
ENDBRANCH  17  18
ENDBRANCH   9  17
TORSDOF 4
ENDMDL
MODEL 2
REMARK VINA RESULT:     -12.0      0.059      1.635
REMARK  Name = 25102845
REMARK  4 active torsions:
REMARK  status: ('A' for Active; 'I' for Inactive)
REMARK    1  A    between atoms: C_5  and  C_12
REMARK    2  A    between atoms: C_9  and  C_17
REMARK    3  A    between atoms: C_17  and  C_18
REMARK    4  A    between atoms: C_18  and  N_21
REMARK                            x       y       z     vdW  Elec       q    Type
REMARK                         _______ _______ _______ _____ _____    ______ ____
ROOT
ATOM      1  F   UNL     1      30.912 -23.769 -12.984  0.00  0.00    -0.202 F 
ATOM      2  F   UNL     1      32.124 -25.378 -13.815  0.00  0.00    -0.202 F 
ATOM      3  O   UNL     1      35.149 -22.218 -16.610  0.00  0.00    -0.275 OA
ATOM      4  N   UNL     1      33.445 -23.055 -15.287  0.00  0.00    -0.267 N 
ATOM      5  C   UNL     1      34.265 -23.313 -14.111  0.00  0.00    +0.158 C 
ATOM      6  C   UNL     1      33.268 -23.491 -12.973  0.00  0.00    +0.098 C 
ATOM      7  C   UNL     1      32.036 -24.036 -13.677  0.00  0.00    +0.284 C 
ATOM      8  C   UNL     1      32.038 -23.367 -15.036  0.00  0.00    +0.160 C 
ATOM      9  C   UNL     1      33.956 -22.468 -16.434  0.00  0.00    +0.228 C 
ENDROOT
BRANCH   5  12
ATOM     10  O   UNL     1      34.649 -25.393 -15.189  0.00  0.00    -0.273 OA
ATOM     11  N   UNL     1      36.197 -24.716 -13.611  0.00  0.00    -0.278 N 
ATOM     12  C   UNL     1      35.045 -24.568 -14.363  0.00  0.00    +0.244 C 
ATOM     13  C   UNL     1      37.060 -25.882 -13.735  0.00  0.00    +0.094 C 
ATOM     14  C   UNL     1      36.720 -23.779 -12.623  0.00  0.00    +0.094 C 
ATOM     15  C   UNL     1      38.334 -25.491 -13.001  0.00  0.00    +0.023 C 
ATOM     16  C   UNL     1      37.825 -24.551 -11.916  0.00  0.00    +0.023 C 
ENDBRANCH   5  12
BRANCH   9  17
ATOM     17  C   UNL     1      32.944 -22.147 -17.506  0.00  0.00    +0.107 C 
BRANCH  17  18
ATOM     18  C   UNL     1      33.504 -22.490 -18.871  0.00  0.00    +0.111 C 
BRANCH  18  21
ATOM     19  O   UNL     1      31.948 -20.431 -20.363  0.00  0.00    -0.269 OA
ATOM     20  O   UNL     1      36.304 -21.515 -19.215  0.00  0.00    -0.269 OA
ATOM     21  N   UNL     1      33.979 -21.326 -19.571  0.00  0.00    -0.222 N 
ATOM     22  C   UNL     1      33.158 -20.429 -20.233  0.00  0.00    +0.255 C 
ATOM     23  C   UNL     1      35.314 -20.967 -19.664  0.00  0.00    +0.255 C 
ATOM     24  C   UNL     1      34.042 -19.405 -20.788  0.00  0.00    +0.058 C 
ATOM     25  C   UNL     1      35.347 -19.731 -20.443  0.00  0.00    +0.058 C 
ATOM     26  C   UNL     1      33.743 -18.284 -21.533  0.00  0.00    +0.005 C 
ATOM     27  C   UNL     1      36.419 -18.952 -20.826  0.00  0.00    +0.005 C 
ATOM     28  C   UNL     1      34.814 -17.478 -21.931  0.00  0.00    +0.000 C 
ATOM     29  C   UNL     1      36.139 -17.809 -21.581  0.00  0.00    +0.000 C 
ENDBRANCH  18  21
ENDBRANCH  17  18
ENDBRANCH   9  17
TORSDOF 4
ENDMDL
MODEL 3
REMARK VINA RESULT:     -11.3      9.132     14.325
REMARK  Name = 25102845
REMARK  4 active torsions:
REMARK  status: ('A' for Active; 'I' for Inactive)
REMARK    1  A    between atoms: C_5  and  C_12
REMARK    2  A    between atoms: C_9  and  C_17
REMARK    3  A    between atoms: C_17  and  C_18
REMARK    4  A    between atoms: C_18  and  N_21
REMARK                            x       y       z     vdW  Elec       q    Type
REMARK                         _______ _______ _______ _____ _____    ______ ____
ROOT
ATOM      1  F   UNL     1      30.407  -9.330 -19.244  0.00  0.00    -0.202 F 
ATOM      2  F   UNL     1      32.228  -8.456 -20.066  0.00  0.00    -0.202 F 
ATOM      3  O   UNL     1      32.219 -11.416 -24.330  0.00  0.00    -0.275 OA
ATOM      4  N   UNL     1      31.735 -10.532 -22.247  0.00  0.00    -0.267 N 
ATOM      5  C   UNL     1      31.156  -9.286 -22.731  0.00  0.00    +0.158 C 
ATOM      6  C   UNL     1      30.398  -8.721 -21.536  0.00  0.00    +0.098 C 
ATOM      7  C   UNL     1      31.176  -9.259 -20.347  0.00  0.00    +0.284 C 
ATOM      8  C   UNL     1      31.663 -10.624 -20.788  0.00  0.00    +0.160 C 
ATOM      9  C   UNL     1      32.172 -11.530 -23.104  0.00  0.00    +0.228 C 
ENDROOT
BRANCH   5  12
ATOM     10  O   UNL     1      33.451  -8.701 -22.906  0.00  0.00    -0.273 OA
ATOM     11  N   UNL     1      31.911  -7.219 -23.784  0.00  0.00    -0.278 N 
ATOM     12  C   UNL     1      32.284  -8.388 -23.144  0.00  0.00    +0.244 C 
ATOM     13  C   UNL     1      32.886  -6.240 -24.242  0.00  0.00    +0.094 C 
ATOM     14  C   UNL     1      30.551  -6.791 -24.098  0.00  0.00    +0.094 C 
ATOM     15  C   UNL     1      32.094  -5.312 -25.151  0.00  0.00    +0.023 C 
ATOM     16  C   UNL     1      30.702  -5.340 -24.535  0.00  0.00    +0.023 C 
ENDBRANCH   5  12
BRANCH   9  17
ATOM     17  C   UNL     1      32.617 -12.809 -22.440  0.00  0.00    +0.107 C 
BRANCH  17  18
ATOM     18  C   UNL     1      33.873 -13.332 -23.106  0.00  0.00    +0.111 C 
BRANCH  18  21
ATOM     19  O   UNL     1      33.874 -15.549 -25.098  0.00  0.00    -0.269 OA
ATOM     20  O   UNL     1      34.338 -14.801 -20.549  0.00  0.00    -0.269 OA
ATOM     21  N   UNL     1      34.055 -14.742 -22.891  0.00  0.00    -0.222 N 
ATOM     22  C   UNL     1      34.038 -15.690 -23.901  0.00  0.00    +0.255 C 
ATOM     23  C   UNL     1      34.268 -15.318 -21.649  0.00  0.00    +0.255 C 
ATOM     24  C   UNL     1      34.271 -16.978 -23.250  0.00  0.00    +0.058 C 
ATOM     25  C   UNL     1      34.410 -16.753 -21.888  0.00  0.00    +0.058 C 
ATOM     26  C   UNL     1      34.352 -18.244 -23.792  0.00  0.00    +0.005 C 
ATOM     27  C   UNL     1      34.637 -17.782 -20.998  0.00  0.00    +0.005 C 
ATOM     28  C   UNL     1      34.584 -19.303 -22.909  0.00  0.00    +0.000 C 
ATOM     29  C   UNL     1      34.725 -19.074 -21.525  0.00  0.00    +0.000 C 
ENDBRANCH  18  21
ENDBRANCH  17  18
ENDBRANCH   9  17
TORSDOF 4
ENDMDL
MODEL 4
REMARK VINA RESULT:     -11.3      9.133     14.292
REMARK  Name = 25102845
REMARK  4 active torsions:
REMARK  status: ('A' for Active; 'I' for Inactive)
REMARK    1  A    between atoms: C_5  and  C_12
REMARK    2  A    between atoms: C_9  and  C_17
REMARK    3  A    between atoms: C_17  and  C_18
REMARK    4  A    between atoms: C_18  and  N_21
REMARK                            x       y       z     vdW  Elec       q    Type
REMARK                         _______ _______ _______ _____ _____    ______ ____
ROOT
ATOM      1  F   UNL     1      30.428  -9.313 -19.220  0.00  0.00    -0.202 F 
ATOM      2  F   UNL     1      32.247  -8.450 -20.057  0.00  0.00    -0.202 F 
ATOM      3  O   UNL     1      32.194 -11.420 -24.314  0.00  0.00    -0.275 OA
ATOM      4  N   UNL     1      31.729 -10.529 -22.230  0.00  0.00    -0.267 N 
ATOM      5  C   UNL     1      31.153  -9.281 -22.712  0.00  0.00    +0.158 C 
ATOM      6  C   UNL     1      30.405  -8.709 -21.514  0.00  0.00    +0.098 C 
ATOM      7  C   UNL     1      31.189  -9.249 -20.329  0.00  0.00    +0.284 C 
ATOM      8  C   UNL     1      31.666 -10.617 -20.770  0.00  0.00    +0.160 C 
ATOM      9  C   UNL     1      32.156 -11.531 -23.088  0.00  0.00    +0.228 C 
ENDROOT
BRANCH   5  12
ATOM     10  O   UNL     1      33.449  -8.709 -22.907  0.00  0.00    -0.273 OA
ATOM     11  N   UNL     1      31.910  -7.220 -23.774  0.00  0.00    -0.278 N 
ATOM     12  C   UNL     1      32.282  -8.390 -23.136  0.00  0.00    +0.244 C 
ATOM     13  C   UNL     1      32.887  -6.246 -24.241  0.00  0.00    +0.094 C 
ATOM     14  C   UNL     1      30.551  -6.784 -24.078  0.00  0.00    +0.094 C 
ATOM     15  C   UNL     1      32.093  -5.315 -25.144  0.00  0.00    +0.023 C 
ATOM     16  C   UNL     1      30.705  -5.335 -24.517  0.00  0.00    +0.023 C 
ENDBRANCH   5  12
BRANCH   9  17
ATOM     17  C   UNL     1      32.599 -12.811 -22.423  0.00  0.00    +0.107 C 
BRANCH  17  18
ATOM     18  C   UNL     1      33.874 -13.316 -23.065  0.00  0.00    +0.111 C 
BRANCH  18  21
ATOM     19  O   UNL     1      34.341 -14.824 -20.537  0.00  0.00    -0.269 OA
ATOM     20  O   UNL     1      33.890 -15.501 -25.098  0.00  0.00    -0.269 OA
ATOM     21  N   UNL     1      34.055 -14.730 -22.874  0.00  0.00    -0.222 N 
ATOM     22  C   UNL     1      34.265 -15.327 -21.642  0.00  0.00    +0.255 C 
ATOM     23  C   UNL     1      34.041 -15.661 -23.900  0.00  0.00    +0.255 C 
ATOM     24  C   UNL     1      34.384 -16.760 -21.902  0.00  0.00    +0.058 C 
ATOM     25  C   UNL     1      34.249 -16.963 -23.269  0.00  0.00    +0.058 C 
ATOM     26  C   UNL     1      34.596 -17.806 -21.028  0.00  0.00    +0.005 C 
ATOM     27  C   UNL     1      34.318 -18.220 -23.831  0.00  0.00    +0.005 C 
ATOM     28  C   UNL     1      34.668 -19.091 -21.576  0.00  0.00    +0.000 C 
ATOM     29  C   UNL     1      34.531 -19.296 -22.964  0.00  0.00    +0.000 C 
ENDBRANCH  18  21
ENDBRANCH  17  18
ENDBRANCH   9  17
TORSDOF 4
ENDMDL
MODEL 5
REMARK VINA RESULT:     -10.7     10.652     15.726
REMARK  Name = 25102845
REMARK  4 active torsions:
REMARK  status: ('A' for Active; 'I' for Inactive)
REMARK    1  A    between atoms: C_5  and  C_12
REMARK    2  A    between atoms: C_9  and  C_17
REMARK    3  A    between atoms: C_17  and  C_18
REMARK    4  A    between atoms: C_18  and  N_21
REMARK                            x       y       z     vdW  Elec       q    Type
REMARK                         _______ _______ _______ _____ _____    ______ ____
ROOT
ATOM      1  F   UNL     1      31.177  -6.898 -18.803  0.00  0.00    -0.202 F 
ATOM      2  F   UNL     1      33.063  -6.644 -19.867  0.00  0.00    -0.202 F 
ATOM      3  O   UNL     1      31.576  -9.393 -24.011  0.00  0.00    -0.275 OA
ATOM      4  N   UNL     1      31.665  -8.426 -21.911  0.00  0.00    -0.267 N 
ATOM      5  C   UNL     1      31.458  -7.054 -22.356  0.00  0.00    +0.158 C 
ATOM      6  C   UNL     1      31.076  -6.290 -21.094  0.00  0.00    +0.098 C 
ATOM      7  C   UNL     1      31.783  -7.064 -19.994  0.00  0.00    +0.284 C 
ATOM      8  C   UNL     1      31.750  -8.507 -20.452  0.00  0.00    +0.160 C 
ATOM      9  C   UNL     1      31.650  -9.501 -22.786  0.00  0.00    +0.228 C 
ENDROOT
BRANCH   5  12
ATOM     10  O   UNL     1      33.801  -7.172 -22.723  0.00  0.00    -0.273 OA
ATOM     11  N   UNL     1      32.668  -5.397 -23.675  0.00  0.00    -0.278 N 
ATOM     12  C   UNL     1      32.752  -6.560 -22.930  0.00  0.00    +0.244 C 
ATOM     13  C   UNL     1      33.835  -4.786 -24.295  0.00  0.00    +0.094 C 
ATOM     14  C   UNL     1      31.461  -4.628 -23.959  0.00  0.00    +0.094 C 
ATOM     15  C   UNL     1      33.260  -3.757 -25.256  0.00  0.00    +0.023 C 
ATOM     16  C   UNL     1      31.973  -3.328 -24.565  0.00  0.00    +0.023 C 
ENDBRANCH   5  12
BRANCH   9  17
ATOM     17  C   UNL     1      31.742 -10.863 -22.145  0.00  0.00    +0.107 C 
BRANCH  17  18
ATOM     18  C   UNL     1      33.192 -11.279 -22.015  0.00  0.00    +0.111 C 
BRANCH  18  21
ATOM     19  O   UNL     1      32.737 -12.510 -24.691  0.00  0.00    -0.269 OA
ATOM     20  O   UNL     1      34.201 -13.601 -20.433  0.00  0.00    -0.269 OA
ATOM     21  N   UNL     1      33.407 -12.638 -22.436  0.00  0.00    -0.222 N 
ATOM     22  C   UNL     1      33.161 -13.103 -23.717  0.00  0.00    +0.255 C 
ATOM     23  C   UNL     1      33.886 -13.641 -21.609  0.00  0.00    +0.255 C 
ATOM     24  C   UNL     1      33.522 -14.519 -23.710  0.00  0.00    +0.058 C 
ATOM     25  C   UNL     1      33.961 -14.845 -22.434  0.00  0.00    +0.058 C 
ATOM     26  C   UNL     1      33.473 -15.452 -24.725  0.00  0.00    +0.005 C 
ATOM     27  C   UNL     1      34.373 -16.120 -22.108  0.00  0.00    +0.005 C 
ATOM     28  C   UNL     1      33.888 -16.751 -24.417  0.00  0.00    +0.000 C 
ATOM     29  C   UNL     1      34.333 -17.083 -23.122  0.00  0.00    +0.000 C 
ENDBRANCH  18  21
ENDBRANCH  17  18
ENDBRANCH   9  17
TORSDOF 4
ENDMDL
MODEL 6
REMARK VINA RESULT:     -10.7     11.398     16.496
REMARK  Name = 25102845
REMARK  4 active torsions:
REMARK  status: ('A' for Active; 'I' for Inactive)
REMARK    1  A    between atoms: C_5  and  C_12
REMARK    2  A    between atoms: C_9  and  C_17
REMARK    3  A    between atoms: C_17  and  C_18
REMARK    4  A    between atoms: C_18  and  N_21
REMARK                            x       y       z     vdW  Elec       q    Type
REMARK                         _______ _______ _______ _____ _____    ______ ____
ROOT
ATOM      1  F   UNL     1      30.084  -4.826 -20.252  0.00  0.00    -0.202 F 
ATOM      2  F   UNL     1      32.204  -4.700 -20.743  0.00  0.00    -0.202 F 
ATOM      3  O   UNL     1      32.174  -8.901 -23.792  0.00  0.00    -0.275 OA
ATOM      4  N   UNL     1      31.568  -7.259 -22.278  0.00  0.00    -0.267 N 
ATOM      5  C   UNL     1      31.484  -6.172 -23.244  0.00  0.00    +0.158 C 
ATOM      6  C   UNL     1      30.703  -5.076 -22.528  0.00  0.00    +0.098 C 
ATOM      7  C   UNL     1      31.041  -5.312 -21.065  0.00  0.00    +0.284 C 
ATOM      8  C   UNL     1      31.187  -6.814 -20.937  0.00  0.00    +0.160 C 
ATOM      9  C   UNL     1      31.856  -8.563 -22.651  0.00  0.00    +0.228 C 
ENDROOT
BRANCH   5  12
ATOM     10  O   UNL     1      33.735  -5.672 -22.676  0.00  0.00    -0.273 OA
ATOM     11  N   UNL     1      33.118  -5.414 -24.888  0.00  0.00    -0.278 N 
ATOM     12  C   UNL     1      32.882  -5.735 -23.563  0.00  0.00    +0.244 C 
ATOM     13  C   UNL     1      34.421  -4.967 -25.359  0.00  0.00    +0.094 C 
ATOM     14  C   UNL     1      32.156  -5.469 -25.985  0.00  0.00    +0.094 C 
ATOM     15  C   UNL     1      34.325  -5.044 -26.875  0.00  0.00    +0.023 C 
ATOM     16  C   UNL     1      32.852  -4.758 -27.137  0.00  0.00    +0.023 C 
ENDBRANCH   5  12
BRANCH   9  17
ATOM     17  C   UNL     1      31.770  -9.589 -21.548  0.00  0.00    +0.107 C 
BRANCH  17  18
ATOM     18  C   UNL     1      31.053 -10.827 -22.044  0.00  0.00    +0.111 C 
BRANCH  18  21
ATOM     19  O   UNL     1      31.878 -12.474 -19.700  0.00  0.00    -0.269 OA
ATOM     20  O   UNL     1      32.434 -12.221 -24.293  0.00  0.00    -0.269 OA
ATOM     21  N   UNL     1      31.895 -11.993 -22.007  0.00  0.00    -0.222 N 
ATOM     22  C   UNL     1      32.212 -12.686 -20.851  0.00  0.00    +0.255 C 
ATOM     23  C   UNL     1      32.486 -12.560 -23.124  0.00  0.00    +0.255 C 
ATOM     24  C   UNL     1      33.070 -13.795 -21.266  0.00  0.00    +0.058 C 
ATOM     25  C   UNL     1      33.236 -13.718 -22.642  0.00  0.00    +0.058 C 
ATOM     26  C   UNL     1      33.663 -14.788 -20.514  0.00  0.00    +0.005 C 
ATOM     27  C   UNL     1      34.003 -14.631 -23.336  0.00  0.00    +0.005 C 
ATOM     28  C   UNL     1      34.443 -15.725 -21.197  0.00  0.00    +0.000 C 
ATOM     29  C   UNL     1      34.612 -15.648 -22.594  0.00  0.00    +0.000 C 
ENDBRANCH  18  21
ENDBRANCH  17  18
ENDBRANCH   9  17
TORSDOF 4
ENDMDL
MODEL 7
REMARK VINA RESULT:     -10.7      2.680      5.013
REMARK  Name = 25102845
REMARK  4 active torsions:
REMARK  status: ('A' for Active; 'I' for Inactive)
REMARK    1  A    between atoms: C_5  and  C_12
REMARK    2  A    between atoms: C_9  and  C_17
REMARK    3  A    between atoms: C_17  and  C_18
REMARK    4  A    between atoms: C_18  and  N_21
REMARK                            x       y       z     vdW  Elec       q    Type
REMARK                         _______ _______ _______ _____ _____    ______ ____
ROOT
ATOM      1  F   UNL     1      32.882 -24.658 -12.586  0.00  0.00    -0.202 F 
ATOM      2  F   UNL     1      31.631 -22.876 -12.491  0.00  0.00    -0.202 F 
ATOM      3  O   UNL     1      30.998 -22.539 -17.633  0.00  0.00    -0.275 OA
ATOM      4  N   UNL     1      31.740 -23.151 -15.528  0.00  0.00    -0.267 N 
ATOM      5  C   UNL     1      30.505 -23.798 -15.103  0.00  0.00    +0.158 C 
ATOM      6  C   UNL     1      30.901 -24.633 -13.891  0.00  0.00    +0.098 C 
ATOM      7  C   UNL     1      32.072 -23.860 -13.308  0.00  0.00    +0.284 C 
ATOM      8  C   UNL     1      32.782 -23.267 -14.507  0.00  0.00    +0.160 C 
ATOM      9  C   UNL     1      31.900 -22.619 -16.797  0.00  0.00    +0.228 C 
ENDROOT
BRANCH   5  12
ATOM     10  O   UNL     1      29.719 -22.017 -13.744  0.00  0.00    -0.273 OA
ATOM     11  N   UNL     1      28.433 -22.601 -15.573  0.00  0.00    -0.278 N 
ATOM     12  C   UNL     1      29.528 -22.722 -14.736  0.00  0.00    +0.244 C 
ATOM     13  C   UNL     1      27.391 -21.609 -15.351  0.00  0.00    +0.094 C 
ATOM     14  C   UNL     1      28.150 -23.399 -16.761  0.00  0.00    +0.094 C 
ATOM     15  C   UNL     1      26.588 -21.604 -16.642  0.00  0.00    +0.023 C 
ATOM     16  C   UNL     1      26.715 -23.043 -17.126  0.00  0.00    +0.023 C 
ENDBRANCH   5  12
BRANCH   9  17
ATOM     17  C   UNL     1      33.283 -22.110 -17.119  0.00  0.00    +0.107 C 
BRANCH  17  18
ATOM     18  C   UNL     1      33.664 -22.495 -18.533  0.00  0.00    +0.111 C 
BRANCH  18  21
ATOM     19  O   UNL     1      36.399 -21.339 -18.795  0.00  0.00    -0.269 OA
ATOM     20  O   UNL     1      32.061 -20.686 -20.285  0.00  0.00    -0.269 OA
ATOM     21  N   UNL     1      34.099 -21.362 -19.306  0.00  0.00    -0.222 N 
ATOM     22  C   UNL     1      35.407 -20.911 -19.355  0.00  0.00    +0.255 C 
ATOM     23  C   UNL     1      33.259 -20.590 -20.092  0.00  0.00    +0.255 C 
ATOM     24  C   UNL     1      35.405 -19.761 -20.257  0.00  0.00    +0.058 C 
ATOM     25  C   UNL     1      34.105 -19.566 -20.703  0.00  0.00    +0.058 C 
ATOM     26  C   UNL     1      36.443 -18.945 -20.657  0.00  0.00    +0.005 C 
ATOM     27  C   UNL     1      33.777 -18.546 -21.572  0.00  0.00    +0.005 C 
ATOM     28  C   UNL     1      36.134 -17.906 -21.540  0.00  0.00    +0.000 C 
ATOM     29  C   UNL     1      34.814 -17.707 -21.992  0.00  0.00    +0.000 C 
ENDBRANCH  18  21
ENDBRANCH  17  18
ENDBRANCH   9  17
TORSDOF 4
ENDMDL
MODEL 8
REMARK VINA RESULT:     -10.7      6.692     11.832
REMARK  Name = 25102845
REMARK  4 active torsions:
REMARK  status: ('A' for Active; 'I' for Inactive)
REMARK    1  A    between atoms: C_5  and  C_12
REMARK    2  A    between atoms: C_9  and  C_17
REMARK    3  A    between atoms: C_17  and  C_18
REMARK    4  A    between atoms: C_18  and  N_21
REMARK                            x       y       z     vdW  Elec       q    Type
REMARK                         _______ _______ _______ _____ _____    ______ ____
ROOT
ATOM      1  F   UNL     1      33.086 -12.984 -26.470  0.00  0.00    -0.202 F 
ATOM      2  F   UNL     1      31.478 -12.994 -24.997  0.00  0.00    -0.202 F 
ATOM      3  O   UNL     1      34.382 -15.069 -21.227  0.00  0.00    -0.275 OA
ATOM      4  N   UNL     1      33.629 -14.312 -23.281  0.00  0.00    -0.267 N 
ATOM      5  C   UNL     1      33.654 -12.893 -22.950  0.00  0.00    +0.158 C 
ATOM      6  C   UNL     1      33.581 -12.179 -24.294  0.00  0.00    +0.098 C 
ATOM      7  C   UNL     1      32.811 -13.159 -25.163  0.00  0.00    +0.284 C 
ATOM      8  C   UNL     1      33.234 -14.528 -24.673  0.00  0.00    +0.160 C 
ATOM      9  C   UNL     1      34.056 -15.289 -22.395  0.00  0.00    +0.228 C 
ENDROOT
BRANCH   5  12
ATOM     10  O   UNL     1      31.920 -13.495 -21.443  0.00  0.00    -0.273 OA
ATOM     11  N   UNL     1      32.007 -11.291 -22.132  0.00  0.00    -0.278 N 
ATOM     12  C   UNL     1      32.452 -12.600 -22.102  0.00  0.00    +0.244 C 
ATOM     13  C   UNL     1      30.849 -10.847 -21.370  0.00  0.00    +0.094 C 
ATOM     14  C   UNL     1      32.591 -10.187 -22.886  0.00  0.00    +0.094 C 
ATOM     15  C   UNL     1      30.914  -9.329 -21.428  0.00  0.00    +0.023 C 
ATOM     16  C   UNL     1      31.564  -9.069 -22.781  0.00  0.00    +0.023 C 
ENDBRANCH   5  12
BRANCH   9  17
ATOM     17  C   UNL     1      34.093 -16.693 -22.944  0.00  0.00    +0.107 C 
BRANCH  17  18
ATOM     18  C   UNL     1      35.367 -17.388 -22.512  0.00  0.00    +0.111 C 
BRANCH  18  21
ATOM     19  O   UNL     1      37.103 -18.417 -20.318  0.00  0.00    -0.269 OA
ATOM     20  O   UNL     1      32.975 -19.159 -22.288  0.00  0.00    -0.269 OA
ATOM     21  N   UNL     1      35.115 -18.458 -21.584  0.00  0.00    -0.222 N 
ATOM     22  C   UNL     1      36.001 -18.852 -20.595  0.00  0.00    +0.255 C 
ATOM     23  C   UNL     1      33.958 -19.218 -21.571  0.00  0.00    +0.255 C 
ATOM     24  C   UNL     1      35.349 -19.951 -19.883  0.00  0.00    +0.058 C 
ATOM     25  C   UNL     1      34.112 -20.172 -20.474  0.00  0.00    +0.058 C 
ATOM     26  C   UNL     1      35.790 -20.701 -18.813  0.00  0.00    +0.005 C 
ATOM     27  C   UNL     1      33.254 -21.154 -20.025  0.00  0.00    +0.005 C 
ATOM     28  C   UNL     1      34.936 -21.701 -18.340  0.00  0.00    +0.000 C 
ATOM     29  C   UNL     1      33.681 -21.926 -18.940  0.00  0.00    +0.000 C 
ENDBRANCH  18  21
ENDBRANCH  17  18
ENDBRANCH   9  17
TORSDOF 4
ENDMDL
MODEL 9
REMARK VINA RESULT:     -10.2      2.161      2.718
REMARK  Name = 25102845
REMARK  4 active torsions:
REMARK  status: ('A' for Active; 'I' for Inactive)
REMARK    1  A    between atoms: C_5  and  C_12
REMARK    2  A    between atoms: C_9  and  C_17
REMARK    3  A    between atoms: C_17  and  C_18
REMARK    4  A    between atoms: C_18  and  N_21
REMARK                            x       y       z     vdW  Elec       q    Type
REMARK                         _______ _______ _______ _____ _____    ______ ____
ROOT
ATOM      1  F   UNL     1      37.781 -22.337 -16.051  0.00  0.00    -0.202 F 
ATOM      2  F   UNL     1      36.628 -21.667 -14.326  0.00  0.00    -0.202 F 
ATOM      3  O   UNL     1      32.147 -23.663 -16.023  0.00  0.00    -0.275 OA
ATOM      4  N   UNL     1      34.339 -22.932 -15.897  0.00  0.00    -0.267 N 
ATOM      5  C   UNL     1      34.792 -23.943 -14.950  0.00  0.00    +0.158 C 
ATOM      6  C   UNL     1      36.313 -23.899 -15.034  0.00  0.00    +0.098 C 
ATOM      7  C   UNL     1      36.595 -22.457 -15.424  0.00  0.00    +0.284 C 
ATOM      8  C   UNL     1      35.438 -22.063 -16.318  0.00  0.00    +0.160 C 
ATOM      9  C   UNL     1      33.048 -22.914 -16.402  0.00  0.00    +0.228 C 
ENDROOT
BRANCH   5  12
ATOM     10  O   UNL     1      33.220 -22.973 -13.458  0.00  0.00    -0.273 OA
ATOM     11  N   UNL     1      35.144 -23.863 -12.538  0.00  0.00    -0.278 N 
ATOM     12  C   UNL     1      34.303 -23.547 -13.589  0.00  0.00    +0.244 C 
ATOM     13  C   UNL     1      34.816 -23.541 -11.157  0.00  0.00    +0.094 C 
ATOM     14  C   UNL     1      36.433 -24.542 -12.625  0.00  0.00    +0.094 C 
ATOM     15  C   UNL     1      35.817 -24.335 -10.332  0.00  0.00    +0.023 C 
ATOM     16  C   UNL     1      37.041 -24.382 -11.239  0.00  0.00    +0.023 C 
ENDBRANCH   5  12
BRANCH   9  17
ATOM     17  C   UNL     1      32.784 -21.886 -17.474  0.00  0.00    +0.107 C 
BRANCH  17  18
ATOM     18  C   UNL     1      33.399 -22.329 -18.784  0.00  0.00    +0.111 C 
BRANCH  18  21
ATOM     19  O   UNL     1      36.218 -21.398 -19.051  0.00  0.00    -0.269 OA
ATOM     20  O   UNL     1      31.937 -20.363 -20.489  0.00  0.00    -0.269 OA
ATOM     21  N   UNL     1      33.920 -21.222 -19.542  0.00  0.00    -0.222 N 
ATOM     22  C   UNL     1      35.261 -20.880 -19.595  0.00  0.00    +0.255 C 
ATOM     23  C   UNL     1      33.141 -20.369 -20.306  0.00  0.00    +0.255 C 
ATOM     24  C   UNL     1      35.347 -19.717 -20.476  0.00  0.00    +0.058 C 
ATOM     25  C   UNL     1      34.064 -19.408 -20.907  0.00  0.00    +0.058 C 
ATOM     26  C   UNL     1      36.445 -18.982 -20.872  0.00  0.00    +0.005 C 
ATOM     27  C   UNL     1      33.814 -18.349 -21.755  0.00  0.00    +0.005 C 
ATOM     28  C   UNL     1      36.216 -17.906 -21.733  0.00  0.00    +0.000 C 
ATOM     29  C   UNL     1      34.913 -17.591 -22.170  0.00  0.00    +0.000 C 
ENDBRANCH  18  21
ENDBRANCH  17  18
ENDBRANCH   9  17
TORSDOF 4
ENDMDL
