MODEL 1
REMARK VINA RESULT:     -12.1      0.000      0.000
REMARK  Name = 56206
REMARK  4 active torsions:
REMARK  status: ('A' for Active; 'I' for Inactive)
REMARK    1  A    between atoms: N_3  and  C_22
REMARK    2  A    between atoms: C_4  and  N_13
REMARK    3  A    between atoms: C_12  and  C_29
REMARK    4  A    between atoms: C_29  and  O_30
REMARK                            x       y       z     vdW  Elec       q    Type
REMARK                         _______ _______ _______ _____ _____    ______ ____
ROOT
ATOM      1  F   UNL     1      37.557 -21.517 -16.854  0.00  0.00    -0.203 F 
ATOM      2  O   UNL     1      37.429 -23.330 -12.174  0.00  0.00    -0.286 OA
ATOM      3  N   UNL     1      33.517 -23.334 -13.415  0.00  0.00    -0.264 N 
ATOM      4  C   UNL     1      35.254 -21.919 -16.451  0.00  0.00    +0.077 C 
ATOM      5  C   UNL     1      34.243 -22.367 -15.597  0.00  0.00    +0.032 C 
ATOM      6  C   UNL     1      34.538 -22.866 -14.314  0.00  0.00    +0.060 C 
ATOM      7  C   UNL     1      36.582 -21.945 -16.040  0.00  0.00    +0.153 C 
ATOM      8  C   UNL     1      35.890 -22.856 -13.908  0.00  0.00    +0.055 C 
ATOM      9  C   UNL     1      36.903 -22.407 -14.767  0.00  0.00    +0.035 C 
ATOM     10  C   UNL     1      36.262 -23.301 -12.543  0.00  0.00    +0.204 C 
ATOM     11  C   UNL     1      33.910 -23.688 -12.125  0.00  0.00    +0.079 C 
ATOM     12  C   UNL     1      35.157 -23.700 -11.641  0.00  0.00    +0.129 C 
ENDROOT
BRANCH   4  13
ATOM     13  N   UNL     1      34.926 -21.442 -17.725  0.00  0.00    -0.310 N 
ATOM     14  N   UNL     1      34.356 -20.691 -20.421  0.00  0.00    +0.388 N 
ATOM     15  C   UNL     1      36.023 -21.146 -18.655  0.00  0.00    +0.068 C 
ATOM     16  C   UNL     1      33.659 -21.841 -18.346  0.00  0.00    +0.068 C 
ATOM     17  C   UNL     1      35.556 -20.181 -19.747  0.00  0.00    -0.056 C 
ATOM     18  C   UNL     1      33.268 -20.855 -19.450  0.00  0.00    -0.056 C 
ATOM     19  C   UNL     1      33.950 -19.789 -21.499  0.00  0.00    -0.101 C 
ATOM     20  H   UNL     1      34.570 -21.600 -20.832  0.00  0.00    -0.080 HD
ENDBRANCH   4  13
BRANCH   3  22
ATOM     21  F   UNL     1      28.168 -23.994 -14.817  0.00  0.00    -0.204 F 
ATOM     22  C   UNL     1      32.141 -23.504 -13.776  0.00  0.00    +0.056 C 
ATOM     23  C   UNL     1      31.426 -22.444 -14.345  0.00  0.00    +0.017 C 
ATOM     24  C   UNL     1      31.503 -24.729 -13.562  0.00  0.00    +0.017 C 
ATOM     25  C   UNL     1      30.086 -22.610 -14.696  0.00  0.00    +0.031 C 
ATOM     26  C   UNL     1      30.163 -24.894 -13.912  0.00  0.00    +0.031 C 
ATOM     27  C   UNL     1      29.454 -23.835 -14.480  0.00  0.00    +0.140 C 
ENDBRANCH   3  22
BRANCH  12  29
ATOM     28  O   UNL     1      34.806 -25.079  -9.737  0.00  0.00    -0.245 OA
ATOM     29  C   UNL     1      35.362 -24.127 -10.256  0.00  0.00    +0.342 C 
BRANCH  29  30
ATOM     30  O   UNL     1      36.252 -23.309  -9.656  0.00  0.00    -0.477 OA
ATOM     31  H   UNL     1      35.956 -22.657  -9.053  0.00  0.00    +0.295 HD
ENDBRANCH  29  30
ENDBRANCH  12  29
TORSDOF 4
ENDMDL
MODEL 2
REMARK VINA RESULT:     -11.5      3.897      7.161
REMARK  Name = 56206
REMARK  4 active torsions:
REMARK  status: ('A' for Active; 'I' for Inactive)
REMARK    1  A    between atoms: N_3  and  C_22
REMARK    2  A    between atoms: C_4  and  N_13
REMARK    3  A    between atoms: C_12  and  C_29
REMARK    4  A    between atoms: C_29  and  O_30
REMARK                            x       y       z     vdW  Elec       q    Type
REMARK                         _______ _______ _______ _____ _____    ______ ____
ROOT
ATOM      1  F   UNL     1      33.268 -24.965 -12.317  0.00  0.00    -0.203 F 
ATOM      2  O   UNL     1      28.797 -23.888 -14.328  0.00  0.00    -0.286 OA
ATOM      3  N   UNL     1      31.536 -22.250 -16.908  0.00  0.00    -0.264 N 
ATOM      4  C   UNL     1      33.796 -23.731 -14.274  0.00  0.00    +0.077 C 
ATOM      5  C   UNL     1      33.369 -23.050 -15.418  0.00  0.00    +0.032 C 
ATOM      6  C   UNL     1      32.003 -22.945 -15.738  0.00  0.00    +0.060 C 
ATOM      7  C   UNL     1      32.867 -24.310 -13.415  0.00  0.00    +0.153 C 
ATOM      8  C   UNL     1      31.078 -23.516 -14.836  0.00  0.00    +0.055 C 
ATOM      9  C   UNL     1      31.508 -24.200 -13.691  0.00  0.00    +0.035 C 
ATOM     10  C   UNL     1      29.621 -23.378 -15.077  0.00  0.00    +0.204 C 
ATOM     11  C   UNL     1      30.159 -22.100 -17.059  0.00  0.00    +0.079 C 
ATOM     12  C   UNL     1      29.205 -22.589 -16.259  0.00  0.00    +0.129 C 
ENDROOT
BRANCH   4  13
ATOM     13  N   UNL     1      35.163 -23.830 -13.993  0.00  0.00    -0.310 N 
ATOM     14  N   UNL     1      37.994 -23.866 -13.617  0.00  0.00    +0.388 N 
ATOM     15  C   UNL     1      36.032 -24.449 -15.001  0.00  0.00    +0.068 C 
ATOM     16  C   UNL     1      35.802 -22.829 -13.134  0.00  0.00    +0.068 C 
ATOM     17  C   UNL     1      37.331 -24.943 -14.361  0.00  0.00    -0.056 C 
ATOM     18  C   UNL     1      37.109 -23.374 -12.554  0.00  0.00    -0.056 C 
ATOM     19  C   UNL     1      39.260 -24.335 -13.055  0.00  0.00    -0.101 C 
ATOM     20  H   UNL     1      38.195 -23.099 -14.258  0.00  0.00    -0.080 HD
ENDBRANCH   4  13
BRANCH   3  22
ATOM     21  F   UNL     1      34.862 -20.308 -20.931  0.00  0.00    -0.204 F 
ATOM     22  C   UNL     1      32.392 -21.751 -17.943  0.00  0.00    +0.056 C 
ATOM     23  C   UNL     1      33.736 -22.134 -17.992  0.00  0.00    +0.017 C 
ATOM     24  C   UNL     1      31.889 -20.877 -18.912  0.00  0.00    +0.017 C 
ATOM     25  C   UNL     1      34.569 -21.647 -18.999  0.00  0.00    +0.031 C 
ATOM     26  C   UNL     1      32.722 -20.390 -19.919  0.00  0.00    +0.031 C 
ATOM     27  C   UNL     1      34.062 -20.775 -19.964  0.00  0.00    +0.140 C 
ENDBRANCH   3  22
BRANCH  12  29
ATOM     28  O   UNL     1      27.256 -21.251 -16.512  0.00  0.00    -0.245 OA
ATOM     29  C   UNL     1      27.806 -22.334 -16.607  0.00  0.00    +0.342 C 
BRANCH  29  30
ATOM     30  O   UNL     1      27.233 -23.476 -17.043  0.00  0.00    -0.477 OA
ATOM     31  H   UNL     1      26.914 -24.105 -16.427  0.00  0.00    +0.295 HD
ENDBRANCH  29  30
ENDBRANCH  12  29
TORSDOF 4
ENDMDL
MODEL 3
REMARK VINA RESULT:     -11.3      2.404      5.929
REMARK  Name = 56206
REMARK  4 active torsions:
REMARK  status: ('A' for Active; 'I' for Inactive)
REMARK    1  A    between atoms: N_3  and  C_22
REMARK    2  A    between atoms: C_4  and  N_13
REMARK    3  A    between atoms: C_12  and  C_29
REMARK    4  A    between atoms: C_29  and  O_30
REMARK                            x       y       z     vdW  Elec       q    Type
REMARK                         _______ _______ _______ _____ _____    ______ ____
ROOT
ATOM      1  F   UNL     1      30.472 -24.235 -12.560  0.00  0.00    -0.203 F 
ATOM      2  O   UNL     1      35.438 -24.718 -12.003  0.00  0.00    -0.286 OA
ATOM      3  N   UNL     1      34.952 -22.996 -15.697  0.00  0.00    -0.264 N 
ATOM      4  C   UNL     1      31.367 -23.381 -14.584  0.00  0.00    +0.077 C 
ATOM      5  C   UNL     1      32.481 -23.073 -15.372  0.00  0.00    +0.032 C 
ATOM      6  C   UNL     1      33.790 -23.303 -14.908  0.00  0.00    +0.060 C 
ATOM      7  C   UNL     1      31.535 -23.938 -13.321  0.00  0.00    +0.153 C 
ATOM      8  C   UNL     1      33.933 -23.896 -13.634  0.00  0.00    +0.055 C 
ATOM      9  C   UNL     1      32.815 -24.202 -12.846  0.00  0.00    +0.035 C 
ATOM     10  C   UNL     1      35.282 -24.231 -13.116  0.00  0.00    +0.204 C 
ATOM     11  C   UNL     1      36.193 -23.381 -15.190  0.00  0.00    +0.079 C 
ATOM     12  C   UNL     1      36.432 -23.957 -14.007  0.00  0.00    +0.129 C 
ENDROOT
BRANCH   4  13
ATOM     13  N   UNL     1      30.081 -23.126 -15.071  0.00  0.00    -0.310 N 
ATOM     14  N   UNL     1      27.364 -22.750 -15.868  0.00  0.00    +0.388 N 
ATOM     15  C   UNL     1      29.304 -24.256 -15.595  0.00  0.00    +0.068 C 
ATOM     16  C   UNL     1      29.296 -22.025 -14.505  0.00  0.00    +0.068 C 
ATOM     17  C   UNL     1      28.198 -23.761 -16.529  0.00  0.00    -0.056 C 
ATOM     18  C   UNL     1      28.188 -21.602 -15.474  0.00  0.00    -0.056 C 
ATOM     19  C   UNL     1      26.278 -22.324 -16.750  0.00  0.00    -0.101 C 
ATOM     20  H   UNL     1      26.951 -23.161 -15.031  0.00  0.00    -0.080 HD
ENDBRANCH   4  13
BRANCH   3  22
ATOM     21  F   UNL     1      34.820 -20.218 -20.522  0.00  0.00    -0.204 F 
ATOM     22  C   UNL     1      34.918 -22.281 -16.938  0.00  0.00    +0.056 C 
ATOM     23  C   UNL     1      33.764 -22.296 -17.728  0.00  0.00    +0.017 C 
ATOM     24  C   UNL     1      36.039 -21.564 -17.369  0.00  0.00    +0.017 C 
ATOM     25  C   UNL     1      33.731 -21.600 -18.937  0.00  0.00    +0.031 C 
ATOM     26  C   UNL     1      36.006 -20.869 -18.578  0.00  0.00    +0.031 C 
ATOM     27  C   UNL     1      34.852 -20.886 -19.362  0.00  0.00    +0.140 C 
ENDBRANCH   3  22
BRANCH  12  29
ATOM     28  O   UNL     1      38.519 -25.073 -14.236  0.00  0.00    -0.245 OA
ATOM     29  C   UNL     1      37.819 -24.266 -13.651  0.00  0.00    +0.342 C 
BRANCH  29  30
ATOM     30  O   UNL     1      38.190 -23.523 -12.587  0.00  0.00    -0.477 OA
ATOM     31  H   UNL     1      38.835 -22.852 -12.686  0.00  0.00    +0.295 HD
ENDBRANCH  29  30
ENDBRANCH  12  29
TORSDOF 4
ENDMDL
MODEL 4
REMARK VINA RESULT:     -10.3      3.656      6.623
REMARK  Name = 56206
REMARK  4 active torsions:
REMARK  status: ('A' for Active; 'I' for Inactive)
REMARK    1  A    between atoms: N_3  and  C_22
REMARK    2  A    between atoms: C_4  and  N_13
REMARK    3  A    between atoms: C_12  and  C_29
REMARK    4  A    between atoms: C_29  and  O_30
REMARK                            x       y       z     vdW  Elec       q    Type
REMARK                         _______ _______ _______ _____ _____    ______ ____
ROOT
ATOM      1  F   UNL     1      38.247 -22.345 -15.967  0.00  0.00    -0.203 F 
ATOM      2  O   UNL     1      35.579 -20.225 -19.653  0.00  0.00    -0.286 OA
ATOM      3  N   UNL     1      32.805 -22.122 -17.298  0.00  0.00    -0.264 N 
ATOM      4  C   UNL     1      36.008 -22.970 -15.493  0.00  0.00    +0.077 C 
ATOM      5  C   UNL     1      34.650 -22.920 -15.823  0.00  0.00    +0.032 C 
ATOM      6  C   UNL     1      34.195 -22.190 -16.936  0.00  0.00    +0.060 C 
ATOM      7  C   UNL     1      36.944 -22.303 -16.276  0.00  0.00    +0.153 C 
ATOM      8  C   UNL     1      35.167 -21.545 -17.732  0.00  0.00    +0.055 C 
ATOM      9  C   UNL     1      36.528 -21.594 -17.399  0.00  0.00    +0.035 C 
ATOM     10  C   UNL     1      34.762 -20.818 -18.960  0.00  0.00    +0.204 C 
ATOM     11  C   UNL     1      32.481 -21.475 -18.490  0.00  0.00    +0.079 C 
ATOM     12  C   UNL     1      33.325 -20.848 -19.317  0.00  0.00    +0.129 C 
ENDROOT
BRANCH   4  13
ATOM     13  N   UNL     1      36.425 -23.694 -14.371  0.00  0.00    -0.310 N 
ATOM     14  N   UNL     1      37.519 -25.139 -12.164  0.00  0.00    +0.388 N 
ATOM     15  C   UNL     1      37.057 -25.001 -14.587  0.00  0.00    +0.068 C 
ATOM     16  C   UNL     1      36.842 -22.980 -13.161  0.00  0.00    +0.068 C 
ATOM     17  C   UNL     1      36.970 -25.856 -13.321  0.00  0.00    -0.056 C 
ATOM     18  C   UNL     1      36.764 -23.900 -11.940  0.00  0.00    -0.056 C 
ATOM     19  C   UNL     1      37.480 -25.986 -10.971  0.00  0.00    -0.101 C 
ATOM     20  H   UNL     1      38.492 -24.901 -12.354  0.00  0.00    -0.080 HD
ENDBRANCH   4  13
BRANCH   3  22
ATOM     21  F   UNL     1      28.651 -24.102 -14.160  0.00  0.00    -0.204 F 
ATOM     22  C   UNL     1      31.736 -22.631 -16.490  0.00  0.00    +0.056 C 
ATOM     23  C   UNL     1      32.012 -23.460 -15.398  0.00  0.00    +0.017 C 
ATOM     24  C   UNL     1      30.410 -22.304 -16.789  0.00  0.00    +0.017 C 
ATOM     25  C   UNL     1      30.972 -23.956 -14.612  0.00  0.00    +0.031 C 
ATOM     26  C   UNL     1      29.370 -22.800 -16.004  0.00  0.00    +0.031 C 
ATOM     27  C   UNL     1      29.650 -23.626 -14.915  0.00  0.00    +0.140 C 
ENDBRANCH   3  22
BRANCH  12  29
ATOM     28  O   UNL     1      31.596 -20.182 -20.806  0.00  0.00    -0.245 OA
ATOM     29  C   UNL     1      32.779 -20.209 -20.516  0.00  0.00    +0.342 C 
BRANCH  29  30
ATOM     30  O   UNL     1      33.782 -19.665 -21.237  0.00  0.00    -0.477 OA
ATOM     31  H   UNL     1      34.486 -19.226 -20.803  0.00  0.00    +0.295 HD
ENDBRANCH  29  30
ENDBRANCH  12  29
TORSDOF 4
ENDMDL
MODEL 5
REMARK VINA RESULT:      -9.2      3.015      5.332
REMARK  Name = 56206
REMARK  4 active torsions:
REMARK  status: ('A' for Active; 'I' for Inactive)
REMARK    1  A    between atoms: N_3  and  C_22
REMARK    2  A    between atoms: C_4  and  N_13
REMARK    3  A    between atoms: C_12  and  C_29
REMARK    4  A    between atoms: C_29  and  O_30
REMARK                            x       y       z     vdW  Elec       q    Type
REMARK                         _______ _______ _______ _____ _____    ______ ____
ROOT
ATOM      1  F   UNL     1      31.487 -20.218 -19.581  0.00  0.00    -0.203 F 
ATOM      2  O   UNL     1      29.663 -23.035 -15.848  0.00  0.00    -0.286 OA
ATOM      3  N   UNL     1      33.739 -23.435 -15.578  0.00  0.00    -0.264 N 
ATOM      4  C   UNL     1      33.417 -21.144 -18.560  0.00  0.00    +0.077 C 
ATOM      5  C   UNL     1      33.983 -21.948 -17.565  0.00  0.00    +0.032 C 
ATOM      6  C   UNL     1      33.183 -22.602 -16.611  0.00  0.00    +0.060 C 
ATOM      7  C   UNL     1      32.037 -20.987 -18.632  0.00  0.00    +0.153 C 
ATOM      8  C   UNL     1      31.783 -22.450 -16.723  0.00  0.00    +0.055 C 
ATOM      9  C   UNL     1      31.217 -21.643 -17.719  0.00  0.00    +0.035 C 
ATOM     10  C   UNL     1      30.879 -23.171 -15.793  0.00  0.00    +0.204 C 
ATOM     11  C   UNL     1      32.847 -24.133 -14.766  0.00  0.00    +0.079 C 
ATOM     12  C   UNL     1      31.511 -24.069 -14.800  0.00  0.00    +0.129 C 
ENDROOT
BRANCH   4  13
ATOM     13  N   UNL     1      34.243 -20.496 -19.484  0.00  0.00    -0.310 N 
ATOM     14  N   UNL     1      35.988 -19.407 -21.466  0.00  0.00    +0.388 N 
ATOM     15  C   UNL     1      35.690 -20.732 -19.402  0.00  0.00    +0.068 C 
ATOM     16  C   UNL     1      33.728 -20.174 -20.818  0.00  0.00    +0.068 C 
ATOM     17  C   UNL     1      36.459 -19.602 -20.089  0.00  0.00    -0.056 C 
ATOM     18  C   UNL     1      34.561 -19.063 -21.461  0.00  0.00    -0.056 C 
ATOM     19  C   UNL     1      36.767 -18.362 -22.131  0.00  0.00    -0.101 C 
ATOM     20  H   UNL     1      36.115 -20.276 -21.984  0.00  0.00    -0.080 HD
ENDBRANCH   4  13
BRANCH   3  22
ATOM     21  F   UNL     1      39.187 -23.884 -14.512  0.00  0.00    -0.204 F 
ATOM     22  C   UNL     1      35.140 -23.550 -15.304  0.00  0.00    +0.056 C 
ATOM     23  C   UNL     1      35.999 -22.476 -15.560  0.00  0.00    +0.017 C 
ATOM     24  C   UNL     1      35.660 -24.737 -14.778  0.00  0.00    +0.017 C 
ATOM     25  C   UNL     1      37.363 -22.589 -15.293  0.00  0.00    +0.031 C 
ATOM     26  C   UNL     1      37.024 -24.850 -14.512  0.00  0.00    +0.031 C 
ATOM     27  C   UNL     1      37.876 -23.776 -14.769  0.00  0.00    +0.140 C 
ENDBRANCH   3  22
BRANCH  12  29
ATOM     28  O   UNL     1      30.941 -24.875 -12.638  0.00  0.00    -0.245 OA
ATOM     29  C   UNL     1      30.751 -24.873 -13.841  0.00  0.00    +0.342 C 
BRANCH  29  30
ATOM     30  O   UNL     1      29.821 -25.600 -14.495  0.00  0.00    -0.477 OA
ATOM     31  H   UNL     1      29.337 -25.218 -15.200  0.00  0.00    +0.295 HD
ENDBRANCH  29  30
ENDBRANCH  12  29
TORSDOF 4
ENDMDL
