MODEL 1
REMARK VINA RESULT:     -13.4      0.000      0.000
REMARK  Name = 51039095
REMARK  7 active torsions:
REMARK  status: ('A' for Active; 'I' for Inactive)
REMARK    1  A    between atoms: C_5  and  C_16
REMARK    2  A    between atoms: C_6  and  C_27
REMARK    3  A    between atoms: C_11  and  N_17
REMARK    4  A    between atoms: C_27  and  C_28
REMARK    5  A    between atoms: C_28  and  C_29
REMARK    6  A    between atoms: C_32  and  O_35
REMARK    7  A    between atoms: C_33  and  O_37
REMARK                            x       y       z     vdW  Elec       q    Type
REMARK                         _______ _______ _______ _____ _____    ______ ____
ROOT
ATOM      1  O   UNL     1      32.882 -13.470 -20.492  0.00  0.00    -0.270 OA
ATOM      2  N   UNL     1      33.648 -13.789 -22.686  0.00  0.00    -0.265 N 
ATOM      3  N   UNL     1      35.091 -16.900 -23.231  0.00  0.00    -0.239 N 
ATOM      4  N   UNL     1      34.731 -15.696 -23.707  0.00  0.00    -0.166 NA
ATOM      5  C   UNL     1      33.047 -13.059 -21.652  0.00  0.00    +0.251 C 
ATOM      6  C   UNL     1      34.786 -17.085 -21.913  0.00  0.00    +0.046 C 
ATOM      7  C   UNL     1      34.179 -15.102 -22.646  0.00  0.00    +0.153 C 
ATOM      8  C   UNL     1      34.186 -15.920 -21.501  0.00  0.00    +0.048 C 
ATOM      9  H   UNL     1      33.709 -13.330 -23.555  0.00  0.00    +0.157 HD
ATOM     10  H   UNL     1      35.532 -17.585 -23.782  0.00  0.00    +0.174 HD
ENDROOT
BRANCH   5  16
ATOM     11  C   UNL     1      31.797  -9.126 -22.645  0.00  0.00    +0.048 C 
ATOM     12  C   UNL     1      31.236  -9.781 -21.548  0.00  0.00    +0.015 C 
ATOM     13  C   UNL     1      32.770  -9.764 -23.415  0.00  0.00    +0.015 C 
ATOM     14  C   UNL     1      31.647 -11.072 -21.222  0.00  0.00    +0.006 C 
ATOM     15  C   UNL     1      33.181 -11.056 -23.088  0.00  0.00    +0.006 C 
ATOM     16  C   UNL     1      32.620 -11.711 -21.992  0.00  0.00    +0.054 C 
BRANCH  11  17
ATOM     17  N   UNL     1      31.386  -7.830 -22.974  0.00  0.00    -0.312 N 
ATOM     18  N   UNL     1      30.770  -5.121 -23.613  0.00  0.00    +0.389 N 
ATOM     19  C   UNL     1      30.121  -5.774 -22.471  0.00  0.00    -0.042 C 
ATOM     20  C   UNL     1      31.025  -6.090 -24.685  0.00  0.00    -0.042 C 
ATOM     21  C   UNL     1      31.007  -6.895 -21.908  0.00  0.00    +0.069 C 
ATOM     22  C   UNL     1      31.940  -7.219 -24.190  0.00  0.00    +0.069 C 
ATOM     23  C   UNL     1      31.657  -5.366 -25.872  0.00  0.00    -0.022 C 
ATOM     24  C   UNL     1      29.833  -4.728 -21.395  0.00  0.00    -0.022 C 
ATOM     25  H   UNL     1      31.657  -4.718 -23.309  0.00  0.00    -0.084 HD
ATOM     26  H   UNL     1      30.153  -4.391 -23.968  0.00  0.00    -0.084 HD
ENDBRANCH  11  17
ENDBRANCH   5  16
BRANCH   6  27
ATOM     27  C   UNL     1      35.098 -18.336 -21.205  0.00  0.00    +0.047 C 
BRANCH  27  28
ATOM     28  C   UNL     1      33.980 -19.407 -21.258  0.00  0.00    +0.033 C 
BRANCH  28  29
ATOM     29  C   UNL     1      33.979 -20.318 -20.054  0.00  0.00    -0.016 C 
ATOM     30  C   UNL     1      35.185 -20.694 -19.462  0.00  0.00    +0.033 C 
ATOM     31  C   UNL     1      32.772 -20.782 -19.532  0.00  0.00    +0.033 C 
ATOM     32  C   UNL     1      32.770 -21.623 -18.419  0.00  0.00    +0.141 C 
ATOM     33  C   UNL     1      35.184 -21.534 -18.349  0.00  0.00    +0.141 C 
ATOM     34  C   UNL     1      33.977 -21.999 -17.827  0.00  0.00    +0.074 C 
BRANCH  32  35
ATOM     35  O   UNL     1      31.592 -22.076 -17.909  0.00  0.00    -0.471 OA
ATOM     36  C   UNL     1      31.628 -22.639 -16.598  0.00  0.00    +0.252 C 
ENDBRANCH  32  35
BRANCH  33  37
ATOM     37  O   UNL     1      36.360 -21.901 -17.771  0.00  0.00    -0.471 OA
ATOM     38  C   UNL     1      36.651 -21.350 -16.487  0.00  0.00    +0.252 C 
ENDBRANCH  33  37
ENDBRANCH  28  29
ENDBRANCH  27  28
ENDBRANCH   6  27
TORSDOF 7
ENDMDL
MODEL 2
REMARK VINA RESULT:     -13.3      0.094      2.094
REMARK  Name = 51039095
REMARK  7 active torsions:
REMARK  status: ('A' for Active; 'I' for Inactive)
REMARK    1  A    between atoms: C_5  and  C_16
REMARK    2  A    between atoms: C_6  and  C_27
REMARK    3  A    between atoms: C_11  and  N_17
REMARK    4  A    between atoms: C_27  and  C_28
REMARK    5  A    between atoms: C_28  and  C_29
REMARK    6  A    between atoms: C_32  and  O_35
REMARK    7  A    between atoms: C_33  and  O_37
REMARK                            x       y       z     vdW  Elec       q    Type
REMARK                         _______ _______ _______ _____ _____    ______ ____
ROOT
ATOM      1  O   UNL     1      32.978 -13.459 -20.438  0.00  0.00    -0.270 OA
ATOM      2  N   UNL     1      33.641 -13.839 -22.657  0.00  0.00    -0.265 N 
ATOM      3  N   UNL     1      35.045 -16.970 -23.187  0.00  0.00    -0.239 N 
ATOM      4  N   UNL     1      34.668 -15.777 -23.677  0.00  0.00    -0.166 NA
ATOM      5  C   UNL     1      33.091 -13.079 -21.615  0.00  0.00    +0.251 C 
ATOM      6  C   UNL     1      34.800 -17.119 -21.853  0.00  0.00    +0.046 C 
ATOM      7  C   UNL     1      34.168 -15.153 -22.608  0.00  0.00    +0.153 C 
ATOM      8  C   UNL     1      34.224 -15.941 -21.443  0.00  0.00    +0.048 C 
ATOM      9  H   UNL     1      33.664 -13.402 -23.539  0.00  0.00    +0.157 HD
ATOM     10  H   UNL     1      35.458 -17.672 -23.740  0.00  0.00    +0.174 HD
ENDROOT
BRANCH   5  16
ATOM     11  C   UNL     1      31.821  -9.164 -22.649  0.00  0.00    +0.048 C 
ATOM     12  C   UNL     1      32.827  -9.789 -23.387  0.00  0.00    +0.015 C 
ATOM     13  C   UNL     1      31.232  -9.825 -21.572  0.00  0.00    +0.015 C 
ATOM     14  C   UNL     1      33.244 -11.075 -23.047  0.00  0.00    +0.006 C 
ATOM     15  C   UNL     1      31.650 -11.113 -21.233  0.00  0.00    +0.006 C 
ATOM     16  C   UNL     1      32.654 -11.738 -21.970  0.00  0.00    +0.054 C 
BRANCH  11  17
ATOM     17  N   UNL     1      31.402  -7.873 -22.990  0.00  0.00    -0.312 N 
ATOM     18  N   UNL     1      30.767  -5.174 -23.651  0.00  0.00    +0.389 N 
ATOM     19  C   UNL     1      30.115  -5.824 -22.509  0.00  0.00    -0.042 C 
ATOM     20  C   UNL     1      31.038  -6.147 -24.714  0.00  0.00    -0.042 C 
ATOM     21  C   UNL     1      31.006  -6.935 -21.933  0.00  0.00    +0.069 C 
ATOM     22  C   UNL     1      31.959  -7.265 -24.205  0.00  0.00    +0.069 C 
ATOM     23  C   UNL     1      31.673  -5.426 -25.901  0.00  0.00    -0.022 C 
ATOM     24  C   UNL     1      29.810  -4.774 -21.442  0.00  0.00    -0.022 C 
ATOM     25  H   UNL     1      31.648  -4.761 -23.343  0.00  0.00    -0.084 HD
ATOM     26  H   UNL     1      30.147  -4.452 -24.016  0.00  0.00    -0.084 HD
ENDBRANCH  11  17
ENDBRANCH   5  16
BRANCH   6  27
ATOM     27  C   UNL     1      35.139 -18.353 -21.127  0.00  0.00    +0.047 C 
BRANCH  27  28
ATOM     28  C   UNL     1      34.088 -19.485 -21.246  0.00  0.00    +0.033 C 
BRANCH  28  29
ATOM     29  C   UNL     1      34.033 -20.369 -20.022  0.00  0.00    -0.016 C 
ATOM     30  C   UNL     1      32.803 -20.813 -19.536  0.00  0.00    +0.033 C 
ATOM     31  C   UNL     1      35.212 -20.742 -19.380  0.00  0.00    +0.033 C 
ATOM     32  C   UNL     1      35.164 -21.559 -18.250  0.00  0.00    +0.141 C 
ATOM     33  C   UNL     1      32.754 -21.630 -18.407  0.00  0.00    +0.141 C 
ATOM     34  C   UNL     1      33.933 -22.002 -17.763  0.00  0.00    +0.074 C 
BRANCH  32  35
ATOM     35  O   UNL     1      36.315 -21.924 -17.622  0.00  0.00    -0.471 OA
ATOM     36  C   UNL     1      36.777 -21.076 -16.571  0.00  0.00    +0.252 C 
ENDBRANCH  32  35
BRANCH  33  37
ATOM     37  O   UNL     1      31.554 -22.064 -17.932  0.00  0.00    -0.471 OA
ATOM     38  C   UNL     1      31.530 -22.579 -16.602  0.00  0.00    +0.252 C 
ENDBRANCH  33  37
ENDBRANCH  28  29
ENDBRANCH  27  28
ENDBRANCH   6  27
TORSDOF 7
ENDMDL
MODEL 3
REMARK VINA RESULT:     -13.0      1.312      2.730
REMARK  Name = 51039095
REMARK  7 active torsions:
REMARK  status: ('A' for Active; 'I' for Inactive)
REMARK    1  A    between atoms: C_5  and  C_16
REMARK    2  A    between atoms: C_6  and  C_27
REMARK    3  A    between atoms: C_11  and  N_17
REMARK    4  A    between atoms: C_27  and  C_28
REMARK    5  A    between atoms: C_28  and  C_29
REMARK    6  A    between atoms: C_32  and  O_35
REMARK    7  A    between atoms: C_33  and  O_37
REMARK                            x       y       z     vdW  Elec       q    Type
REMARK                         _______ _______ _______ _____ _____    ______ ____
ROOT
ATOM      1  O   UNL     1      33.499 -13.243 -24.194  0.00  0.00    -0.270 OA
ATOM      2  N   UNL     1      33.637 -13.251 -21.852  0.00  0.00    -0.265 N 
ATOM      3  N   UNL     1      34.490 -16.336 -20.507  0.00  0.00    -0.239 N 
ATOM      4  N   UNL     1      34.176 -15.042 -20.319  0.00  0.00    -0.166 NA
ATOM      5  C   UNL     1      33.416 -12.657 -23.103  0.00  0.00    +0.251 C 
ATOM      6  C   UNL     1      34.510 -16.714 -21.818  0.00  0.00    +0.046 C 
ATOM      7  C   UNL     1      33.991 -14.592 -21.562  0.00  0.00    +0.153 C 
ATOM      8  C   UNL     1      34.185 -15.589 -22.537  0.00  0.00    +0.048 C 
ATOM      9  H   UNL     1      33.533 -12.659 -21.073  0.00  0.00    +0.157 HD
ATOM     10  H   UNL     1      34.689 -16.953 -19.766  0.00  0.00    +0.174 HD
ENDROOT
BRANCH   5  16
ATOM     11  C   UNL     1      32.300  -8.563 -23.039  0.00  0.00    +0.048 C 
ATOM     12  C   UNL     1      31.459  -9.524 -22.478  0.00  0.00    +0.015 C 
ATOM     13  C   UNL     1      33.509  -8.947 -23.621  0.00  0.00    +0.015 C 
ATOM     14  C   UNL     1      31.826 -10.869 -22.498  0.00  0.00    +0.006 C 
ATOM     15  C   UNL     1      33.875 -10.293 -23.641  0.00  0.00    +0.006 C 
ATOM     16  C   UNL     1      33.035 -11.254 -23.080  0.00  0.00    +0.054 C 
BRANCH  11  17
ATOM     17  N   UNL     1      31.934  -7.213 -23.019  0.00  0.00    -0.312 N 
ATOM     18  N   UNL     1      30.966  -4.532 -22.999  0.00  0.00    +0.389 N 
ATOM     19  C   UNL     1      31.898  -4.970 -24.044  0.00  0.00    -0.042 C 
ATOM     20  C   UNL     1      31.245  -5.222 -21.736  0.00  0.00    -0.042 C 
ATOM     21  C   UNL     1      31.778  -6.482 -24.282  0.00  0.00    +0.069 C 
ATOM     22  C   UNL     1      31.102  -6.741 -21.904  0.00  0.00    +0.069 C 
ATOM     23  C   UNL     1      30.286  -4.707 -20.664  0.00  0.00    -0.022 C 
ATOM     24  C   UNL     1      31.606  -4.200 -25.330  0.00  0.00    -0.022 C 
ATOM     25  H   UNL     1      30.012  -4.743 -23.293  0.00  0.00    -0.084 HD
ATOM     26  H   UNL     1      31.078  -3.528 -22.858  0.00  0.00    -0.084 HD
ENDBRANCH  11  17
ENDBRANCH   5  16
BRANCH   6  27
ATOM     27  C   UNL     1      34.831 -18.088 -22.233  0.00  0.00    +0.047 C 
BRANCH  27  28
ATOM     28  C   UNL     1      33.675 -19.105 -22.060  0.00  0.00    +0.033 C 
BRANCH  28  29
ATOM     29  C   UNL     1      33.795 -19.922 -20.795  0.00  0.00    -0.016 C 
ATOM     30  C   UNL     1      32.647 -20.388 -20.154  0.00  0.00    +0.033 C 
ATOM     31  C   UNL     1      35.053 -20.211 -20.270  0.00  0.00    +0.033 C 
ATOM     32  C   UNL     1      35.166 -20.966 -19.102  0.00  0.00    +0.141 C 
ATOM     33  C   UNL     1      32.758 -21.143 -18.987  0.00  0.00    +0.141 C 
ATOM     34  C   UNL     1      34.017 -21.432 -18.460  0.00  0.00    +0.074 C 
BRANCH  32  35
ATOM     35  O   UNL     1      36.394 -21.250 -18.588  0.00  0.00    -0.471 OA
ATOM     36  C   UNL     1      36.496 -21.342 -17.168  0.00  0.00    +0.252 C 
ENDBRANCH  32  35
BRANCH  33  37
ATOM     37  O   UNL     1      31.639 -21.599 -18.362  0.00  0.00    -0.471 OA
ATOM     38  C   UNL     1      31.825 -22.336 -17.154  0.00  0.00    +0.252 C 
ENDBRANCH  33  37
ENDBRANCH  28  29
ENDBRANCH  27  28
ENDBRANCH   6  27
TORSDOF 7
ENDMDL
MODEL 4
REMARK VINA RESULT:     -13.0      1.312      2.148
REMARK  Name = 51039095
REMARK  7 active torsions:
REMARK  status: ('A' for Active; 'I' for Inactive)
REMARK    1  A    between atoms: C_5  and  C_16
REMARK    2  A    between atoms: C_6  and  C_27
REMARK    3  A    between atoms: C_11  and  N_17
REMARK    4  A    between atoms: C_27  and  C_28
REMARK    5  A    between atoms: C_28  and  C_29
REMARK    6  A    between atoms: C_32  and  O_35
REMARK    7  A    between atoms: C_33  and  O_37
REMARK                            x       y       z     vdW  Elec       q    Type
REMARK                         _______ _______ _______ _____ _____    ______ ____
ROOT
ATOM      1  O   UNL     1      33.497 -13.211 -24.180  0.00  0.00    -0.270 OA
ATOM      2  N   UNL     1      33.603 -13.216 -21.836  0.00  0.00    -0.265 N 
ATOM      3  N   UNL     1      34.454 -16.294 -20.474  0.00  0.00    -0.239 N 
ATOM      4  N   UNL     1      34.130 -15.002 -20.293  0.00  0.00    -0.166 NA
ATOM      5  C   UNL     1      33.396 -12.625 -23.090  0.00  0.00    +0.251 C 
ATOM      6  C   UNL     1      34.493 -16.674 -21.784  0.00  0.00    +0.046 C 
ATOM      7  C   UNL     1      33.960 -14.554 -21.539  0.00  0.00    +0.153 C 
ATOM      8  C   UNL     1      34.172 -15.552 -22.509  0.00  0.00    +0.048 C 
ATOM      9  H   UNL     1      33.485 -12.623 -21.059  0.00  0.00    +0.157 HD
ATOM     10  H   UNL     1      34.645 -16.909 -19.730  0.00  0.00    +0.174 HD
ENDROOT
BRANCH   5  16
ATOM     11  C   UNL     1      32.265  -8.534 -23.042  0.00  0.00    +0.048 C 
ATOM     12  C   UNL     1      33.470  -8.918 -23.632  0.00  0.00    +0.015 C 
ATOM     13  C   UNL     1      31.431  -9.494 -22.470  0.00  0.00    +0.015 C 
ATOM     14  C   UNL     1      33.841 -10.263 -23.647  0.00  0.00    +0.006 C 
ATOM     15  C   UNL     1      31.803 -10.839 -22.486  0.00  0.00    +0.006 C 
ATOM     16  C   UNL     1      33.007 -11.223 -23.075  0.00  0.00    +0.054 C 
BRANCH  11  17
ATOM     17  N   UNL     1      31.892  -7.186 -23.026  0.00  0.00    -0.312 N 
ATOM     18  N   UNL     1      30.910  -4.510 -23.022  0.00  0.00    +0.389 N 
ATOM     19  C   UNL     1      31.876  -4.938 -24.040  0.00  0.00    -0.042 C 
ATOM     20  C   UNL     1      31.154  -5.205 -21.754  0.00  0.00    -0.042 C 
ATOM     21  C   UNL     1      31.771  -6.450 -24.290  0.00  0.00    +0.069 C 
ATOM     22  C   UNL     1      31.024  -6.725 -21.934  0.00  0.00    +0.069 C 
ATOM     23  C   UNL     1      30.160  -4.701 -20.709  0.00  0.00    -0.022 C 
ATOM     24  C   UNL     1      31.618  -4.163 -25.331  0.00  0.00    -0.022 C 
ATOM     25  H   UNL     1      29.966  -4.725 -23.346  0.00  0.00    -0.084 HD
ATOM     26  H   UNL     1      31.013  -3.507 -22.873  0.00  0.00    -0.084 HD
ENDBRANCH  11  17
ENDBRANCH   5  16
BRANCH   6  27
ATOM     27  C   UNL     1      34.827 -18.047 -22.193  0.00  0.00    +0.047 C 
BRANCH  27  28
ATOM     28  C   UNL     1      33.674 -19.069 -22.036  0.00  0.00    +0.033 C 
BRANCH  28  29
ATOM     29  C   UNL     1      33.794 -19.905 -20.784  0.00  0.00    -0.016 C 
ATOM     30  C   UNL     1      35.053 -20.204 -20.263  0.00  0.00    +0.033 C 
ATOM     31  C   UNL     1      32.646 -20.376 -20.148  0.00  0.00    +0.033 C 
ATOM     32  C   UNL     1      32.755 -21.148 -18.992  0.00  0.00    +0.141 C 
ATOM     33  C   UNL     1      35.163 -20.975 -19.106  0.00  0.00    +0.141 C 
ATOM     34  C   UNL     1      34.015 -21.448 -18.470  0.00  0.00    +0.074 C 
BRANCH  32  35
ATOM     35  O   UNL     1      31.635 -21.608 -18.370  0.00  0.00    -0.471 OA
ATOM     36  C   UNL     1      31.821 -22.336 -17.157  0.00  0.00    +0.252 C 
ENDBRANCH  32  35
BRANCH  33  37
ATOM     37  O   UNL     1      36.391 -21.267 -18.597  0.00  0.00    -0.471 OA
ATOM     38  C   UNL     1      36.494 -21.384 -17.178  0.00  0.00    +0.252 C 
ENDBRANCH  33  37
ENDBRANCH  28  29
ENDBRANCH  27  28
ENDBRANCH   6  27
TORSDOF 7
ENDMDL
MODEL 5
REMARK VINA RESULT:     -12.9      4.013     13.396
REMARK  Name = 51039095
REMARK  7 active torsions:
REMARK  status: ('A' for Active; 'I' for Inactive)
REMARK    1  A    between atoms: C_5  and  C_16
REMARK    2  A    between atoms: C_6  and  C_27
REMARK    3  A    between atoms: C_11  and  N_17
REMARK    4  A    between atoms: C_27  and  C_28
REMARK    5  A    between atoms: C_28  and  C_29
REMARK    6  A    between atoms: C_32  and  O_35
REMARK    7  A    between atoms: C_33  and  O_37
REMARK                            x       y       z     vdW  Elec       q    Type
REMARK                         _______ _______ _______ _____ _____    ______ ____
ROOT
ATOM      1  O   UNL     1      33.468 -20.857 -19.680  0.00  0.00    -0.270 OA
ATOM      2  N   UNL     1      35.572 -19.831 -19.845  0.00  0.00    -0.265 N 
ATOM      3  N   UNL     1      35.885 -17.699 -22.568  0.00  0.00    -0.239 N 
ATOM      4  N   UNL     1      36.429 -18.265 -21.477  0.00  0.00    -0.166 NA
ATOM      5  C   UNL     1      34.620 -20.674 -19.255  0.00  0.00    +0.251 C 
ATOM      6  C   UNL     1      34.595 -18.081 -22.801  0.00  0.00    +0.046 C 
ATOM      7  C   UNL     1      35.443 -19.033 -21.009  0.00  0.00    +0.153 C 
ATOM      8  C   UNL     1      34.276 -18.959 -21.793  0.00  0.00    +0.048 C 
ATOM      9  H   UNL     1      36.445 -19.789 -19.393  0.00  0.00    +0.157 HD
ATOM     10  H   UNL     1      36.370 -17.066 -23.144  0.00  0.00    +0.174 HD
ENDROOT
BRANCH   5  16
ATOM     11  C   UNL     1      35.897 -22.770 -15.792  0.00  0.00    +0.048 C 
ATOM     12  C   UNL     1      34.579 -22.891 -16.234  0.00  0.00    +0.015 C 
ATOM     13  C   UNL     1      36.796 -21.962 -16.488  0.00  0.00    +0.015 C 
ATOM     14  C   UNL     1      34.160 -22.202 -17.372  0.00  0.00    +0.006 C 
ATOM     15  C   UNL     1      36.375 -21.273 -17.626  0.00  0.00    +0.006 C 
ATOM     16  C   UNL     1      35.058 -21.393 -18.069  0.00  0.00    +0.054 C 
BRANCH  11  17
ATOM     17  N   UNL     1      36.319 -23.461 -14.651  0.00  0.00    -0.312 N 
ATOM     18  N   UNL     1      37.248 -24.663 -12.240  0.00  0.00    +0.389 N 
ATOM     19  C   UNL     1      37.824 -25.060 -13.529  0.00  0.00    -0.042 C 
ATOM     20  C   UNL     1      35.830 -24.321 -12.391  0.00  0.00    -0.042 C 
ATOM     21  C   UNL     1      37.709 -23.919 -14.551  0.00  0.00    +0.069 C 
ATOM     22  C   UNL     1      35.656 -23.156 -13.376  0.00  0.00    +0.069 C 
ATOM     23  C   UNL     1      35.256 -23.958 -11.023  0.00  0.00    -0.022 C 
ATOM     24  C   UNL     1      39.287 -25.450 -13.324  0.00  0.00    -0.022 C 
ATOM     25  H   UNL     1      37.753 -23.851 -11.883  0.00  0.00    -0.084 HD
ATOM     26  H   UNL     1      37.331 -25.444 -11.589  0.00  0.00    -0.084 HD
ENDBRANCH  11  17
ENDBRANCH   5  16
BRANCH   6  27
ATOM     27  C   UNL     1      33.822 -17.573 -23.945  0.00  0.00    +0.047 C 
BRANCH  27  28
ATOM     28  C   UNL     1      34.302 -16.207 -24.497  0.00  0.00    +0.033 C 
BRANCH  28  29
ATOM     29  C   UNL     1      33.835 -15.039 -23.663  0.00  0.00    -0.016 C 
ATOM     30  C   UNL     1      33.762 -15.157 -22.275  0.00  0.00    +0.033 C 
ATOM     31  C   UNL     1      33.479 -13.840 -24.280  0.00  0.00    +0.033 C 
ATOM     32  C   UNL     1      33.048 -12.760 -23.511  0.00  0.00    +0.141 C 
ATOM     33  C   UNL     1      33.332 -14.076 -21.505  0.00  0.00    +0.141 C 
ATOM     34  C   UNL     1      32.974 -12.878 -22.122  0.00  0.00    +0.074 C 
BRANCH  32  35
ATOM     35  O   UNL     1      32.700 -11.589 -24.113  0.00  0.00    -0.471 OA
ATOM     36  C   UNL     1      32.442 -10.474 -23.261  0.00  0.00    +0.252 C 
ENDBRANCH  32  35
BRANCH  33  37
ATOM     37  O   UNL     1      33.262 -14.191 -20.150  0.00  0.00    -0.471 OA
ATOM     38  C   UNL     1      31.959 -14.200 -19.567  0.00  0.00    +0.252 C 
ENDBRANCH  33  37
ENDBRANCH  28  29
ENDBRANCH  27  28
ENDBRANCH   6  27
TORSDOF 7
ENDMDL
MODEL 6
REMARK VINA RESULT:     -12.9      4.008     13.391
REMARK  Name = 51039095
REMARK  7 active torsions:
REMARK  status: ('A' for Active; 'I' for Inactive)
REMARK    1  A    between atoms: C_5  and  C_16
REMARK    2  A    between atoms: C_6  and  C_27
REMARK    3  A    between atoms: C_11  and  N_17
REMARK    4  A    between atoms: C_27  and  C_28
REMARK    5  A    between atoms: C_28  and  C_29
REMARK    6  A    between atoms: C_32  and  O_35
REMARK    7  A    between atoms: C_33  and  O_37
REMARK                            x       y       z     vdW  Elec       q    Type
REMARK                         _______ _______ _______ _____ _____    ______ ____
ROOT
ATOM      1  O   UNL     1      33.422 -20.837 -19.673  0.00  0.00    -0.270 OA
ATOM      2  N   UNL     1      35.537 -19.838 -19.861  0.00  0.00    -0.265 N 
ATOM      3  N   UNL     1      35.848 -17.713 -22.590  0.00  0.00    -0.239 N 
ATOM      4  N   UNL     1      36.397 -18.285 -21.504  0.00  0.00    -0.166 NA
ATOM      5  C   UNL     1      34.581 -20.668 -19.260  0.00  0.00    +0.251 C 
ATOM      6  C   UNL     1      34.552 -18.079 -22.809  0.00  0.00    +0.046 C 
ATOM      7  C   UNL     1      35.406 -19.040 -21.024  0.00  0.00    +0.153 C 
ATOM      8  C   UNL     1      34.232 -18.951 -21.797  0.00  0.00    +0.048 C 
ATOM      9  H   UNL     1      36.416 -19.806 -19.418  0.00  0.00    +0.157 HD
ATOM     10  H   UNL     1      36.336 -17.087 -23.172  0.00  0.00    +0.174 HD
ENDROOT
BRANCH   5  16
ATOM     11  C   UNL     1      35.867 -22.776 -15.808  0.00  0.00    +0.048 C 
ATOM     12  C   UNL     1      34.556 -22.919 -16.264  0.00  0.00    +0.015 C 
ATOM     13  C   UNL     1      36.756 -21.942 -16.486  0.00  0.00    +0.015 C 
ATOM     14  C   UNL     1      34.134 -22.226 -17.398  0.00  0.00    +0.006 C 
ATOM     15  C   UNL     1      36.333 -21.250 -17.621  0.00  0.00    +0.006 C 
ATOM     16  C   UNL     1      35.023 -21.391 -18.078  0.00  0.00    +0.054 C 
BRANCH  11  17
ATOM     17  N   UNL     1      36.292 -23.471 -14.670  0.00  0.00    -0.312 N 
ATOM     18  N   UNL     1      37.222 -24.681 -12.263  0.00  0.00    +0.389 N 
ATOM     19  C   UNL     1      37.825 -25.045 -13.549  0.00  0.00    -0.042 C 
ATOM     20  C   UNL     1      35.797 -24.374 -12.429  0.00  0.00    -0.042 C 
ATOM     21  C   UNL     1      37.693 -23.894 -14.558  0.00  0.00    +0.069 C 
ATOM     22  C   UNL     1      35.604 -23.201 -13.401  0.00  0.00    +0.069 C 
ATOM     23  C   UNL     1      35.195 -24.046 -11.064  0.00  0.00    -0.022 C 
ATOM     24  C   UNL     1      39.295 -25.399 -13.330  0.00  0.00    -0.022 C 
ATOM     25  H   UNL     1      37.700 -23.861 -11.889  0.00  0.00    -0.084 HD
ATOM     26  H   UNL     1      37.316 -25.468 -11.621  0.00  0.00    -0.084 HD
ENDBRANCH  11  17
ENDBRANCH   5  16
BRANCH   6  27
ATOM     27  C   UNL     1      33.773 -17.563 -23.945  0.00  0.00    +0.047 C 
BRANCH  27  28
ATOM     28  C   UNL     1      34.267 -16.206 -24.507  0.00  0.00    +0.033 C 
BRANCH  28  29
ATOM     29  C   UNL     1      33.818 -15.027 -23.676  0.00  0.00    -0.016 C 
ATOM     30  C   UNL     1      33.454 -13.833 -24.299  0.00  0.00    +0.033 C 
ATOM     31  C   UNL     1      33.765 -15.134 -22.287  0.00  0.00    +0.033 C 
ATOM     32  C   UNL     1      33.349 -14.046 -21.519  0.00  0.00    +0.141 C 
ATOM     33  C   UNL     1      33.038 -12.745 -23.531  0.00  0.00    +0.141 C 
ATOM     34  C   UNL     1      32.986 -12.851 -22.142  0.00  0.00    +0.074 C 
BRANCH  32  35
ATOM     35  O   UNL     1      33.297 -14.149 -20.163  0.00  0.00    -0.471 OA
ATOM     36  C   UNL     1      32.002 -14.187 -19.566  0.00  0.00    +0.252 C 
ENDBRANCH  32  35
BRANCH  33  37
ATOM     37  O   UNL     1      32.682 -11.580 -24.138  0.00  0.00    -0.471 OA
ATOM     38  C   UNL     1      32.462 -10.450 -23.294  0.00  0.00    +0.252 C 
ENDBRANCH  33  37
ENDBRANCH  28  29
ENDBRANCH  27  28
ENDBRANCH   6  27
TORSDOF 7
ENDMDL
MODEL 7
REMARK VINA RESULT:     -12.7      4.698     13.655
REMARK  Name = 51039095
REMARK  7 active torsions:
REMARK  status: ('A' for Active; 'I' for Inactive)
REMARK    1  A    between atoms: C_5  and  C_16
REMARK    2  A    between atoms: C_6  and  C_27
REMARK    3  A    between atoms: C_11  and  N_17
REMARK    4  A    between atoms: C_27  and  C_28
REMARK    5  A    between atoms: C_28  and  C_29
REMARK    6  A    between atoms: C_32  and  O_35
REMARK    7  A    between atoms: C_33  and  O_37
REMARK                            x       y       z     vdW  Elec       q    Type
REMARK                         _______ _______ _______ _____ _____    ______ ____
ROOT
ATOM      1  O   UNL     1      33.648 -21.176 -19.331  0.00  0.00    -0.270 OA
ATOM      2  N   UNL     1      35.669 -19.997 -19.512  0.00  0.00    -0.265 N 
ATOM      3  N   UNL     1      35.831 -17.905 -22.279  0.00  0.00    -0.239 N 
ATOM      4  N   UNL     1      36.412 -18.405 -21.175  0.00  0.00    -0.166 NA
ATOM      5  C   UNL     1      34.781 -20.897 -18.906  0.00  0.00    +0.251 C 
ATOM      6  C   UNL     1      34.576 -18.389 -22.508  0.00  0.00    +0.046 C 
ATOM      7  C   UNL     1      35.485 -19.236 -20.693  0.00  0.00    +0.153 C 
ATOM      8  C   UNL     1      34.319 -19.266 -21.482  0.00  0.00    +0.048 C 
ATOM      9  H   UNL     1      36.534 -19.879 -19.059  0.00  0.00    +0.157 HD
ATOM     10  H   UNL     1      36.270 -17.250 -22.867  0.00  0.00    +0.174 HD
ENDROOT
BRANCH   5  16
ATOM     11  C   UNL     1      36.203 -22.822 -15.401  0.00  0.00    +0.048 C 
ATOM     12  C   UNL     1      37.062 -22.022 -16.156  0.00  0.00    +0.015 C 
ATOM     13  C   UNL     1      34.876 -22.988 -15.798  0.00  0.00    +0.015 C 
ATOM     14  C   UNL     1      36.594 -21.390 -17.307  0.00  0.00    +0.006 C 
ATOM     15  C   UNL     1      34.409 -22.355 -16.950  0.00  0.00    +0.006 C 
ATOM     16  C   UNL     1      35.267 -21.556 -17.704  0.00  0.00    +0.054 C 
BRANCH  11  17
ATOM     17  N   UNL     1      36.670 -23.457 -14.246  0.00  0.00    -0.312 N 
ATOM     18  N   UNL     1      37.540 -24.950 -11.979  0.00  0.00    +0.389 N 
ATOM     19  C   UNL     1      36.577 -23.856 -11.814  0.00  0.00    -0.042 C 
ATOM     20  C   UNL     1      38.477 -24.654 -13.067  0.00  0.00    -0.042 C 
ATOM     21  C   UNL     1      35.769 -23.641 -13.102  0.00  0.00    +0.069 C 
ATOM     22  C   UNL     1      37.727 -24.467 -14.394  0.00  0.00    +0.069 C 
ATOM     23  C   UNL     1      39.490 -25.792 -13.178  0.00  0.00    -0.022 C 
ATOM     24  C   UNL     1      35.647 -24.179 -10.646  0.00  0.00    -0.022 C 
ATOM     25  H   UNL     1      37.035 -25.810 -12.196  0.00  0.00    -0.084 HD
ATOM     26  H   UNL     1      38.066 -25.058 -11.112  0.00  0.00    -0.084 HD
ENDBRANCH  11  17
ENDBRANCH   5  16
BRANCH   6  27
ATOM     27  C   UNL     1      33.771 -17.965 -23.664  0.00  0.00    +0.047 C 
BRANCH  27  28
ATOM     28  C   UNL     1      34.383 -16.806 -24.490  0.00  0.00    +0.033 C 
BRANCH  28  29
ATOM     29  C   UNL     1      33.843 -15.452 -24.093  0.00  0.00    -0.016 C 
ATOM     30  C   UNL     1      33.939 -15.022 -22.770  0.00  0.00    +0.033 C 
ATOM     31  C   UNL     1      33.249 -14.632 -25.052  0.00  0.00    +0.033 C 
ATOM     32  C   UNL     1      32.750 -13.381 -24.688  0.00  0.00    +0.141 C 
ATOM     33  C   UNL     1      33.441 -13.772 -22.405  0.00  0.00    +0.141 C 
ATOM     34  C   UNL     1      32.846 -12.951 -23.363  0.00  0.00    +0.074 C 
BRANCH  32  35
ATOM     35  O   UNL     1      32.170 -12.579 -25.622  0.00  0.00    -0.471 OA
ATOM     36  C   UNL     1      32.727 -12.609 -26.936  0.00  0.00    +0.252 C 
ENDBRANCH  32  35
BRANCH  33  37
ATOM     37  O   UNL     1      33.536 -13.351 -21.114  0.00  0.00    -0.471 OA
ATOM     38  C   UNL     1      32.360 -12.800 -20.524  0.00  0.00    +0.252 C 
ENDBRANCH  33  37
ENDBRANCH  28  29
ENDBRANCH  27  28
ENDBRANCH   6  27
TORSDOF 7
ENDMDL
MODEL 8
REMARK VINA RESULT:     -12.5      4.082     13.335
REMARK  Name = 51039095
REMARK  7 active torsions:
REMARK  status: ('A' for Active; 'I' for Inactive)
REMARK    1  A    between atoms: C_5  and  C_16
REMARK    2  A    between atoms: C_6  and  C_27
REMARK    3  A    between atoms: C_11  and  N_17
REMARK    4  A    between atoms: C_27  and  C_28
REMARK    5  A    between atoms: C_28  and  C_29
REMARK    6  A    between atoms: C_32  and  O_35
REMARK    7  A    between atoms: C_33  and  O_37
REMARK                            x       y       z     vdW  Elec       q    Type
REMARK                         _______ _______ _______ _____ _____    ______ ____
ROOT
ATOM      1  O   UNL     1      33.425 -21.008 -19.652  0.00  0.00    -0.270 OA
ATOM      2  N   UNL     1      35.472 -19.877 -19.841  0.00  0.00    -0.265 N 
ATOM      3  N   UNL     1      35.679 -17.802 -22.617  0.00  0.00    -0.239 N 
ATOM      4  N   UNL     1      36.250 -18.311 -21.512  0.00  0.00    -0.166 NA
ATOM      5  C   UNL     1      34.564 -20.753 -19.230  0.00  0.00    +0.251 C 
ATOM      6  C   UNL     1      34.413 -18.257 -22.842  0.00  0.00    +0.046 C 
ATOM      7  C   UNL     1      35.304 -19.117 -21.025  0.00  0.00    +0.153 C 
ATOM      8  C   UNL     1      34.137 -19.124 -21.813  0.00  0.00    +0.048 C 
ATOM      9  H   UNL     1      36.341 -19.777 -19.389  0.00  0.00    +0.157 HD
ATOM     10  H   UNL     1      36.133 -17.160 -23.209  0.00  0.00    +0.174 HD
ENDROOT
BRANCH   5  16
ATOM     11  C   UNL     1      35.940 -22.690 -15.713  0.00  0.00    +0.048 C 
ATOM     12  C   UNL     1      34.620 -22.858 -16.131  0.00  0.00    +0.015 C 
ATOM     13  C   UNL     1      36.809 -21.886 -16.452  0.00  0.00    +0.015 C 
ATOM     14  C   UNL     1      34.168 -22.222 -17.287  0.00  0.00    +0.006 C 
ATOM     15  C   UNL     1      36.356 -21.250 -17.608  0.00  0.00    +0.006 C 
ATOM     16  C   UNL     1      35.037 -21.418 -18.026  0.00  0.00    +0.054 C 
BRANCH  11  17
ATOM     17  N   UNL     1      36.395 -23.328 -14.554  0.00  0.00    -0.312 N 
ATOM     18  N   UNL     1      37.257 -24.830 -12.290  0.00  0.00    +0.389 N 
ATOM     19  C   UNL     1      36.215 -23.808 -12.142  0.00  0.00    -0.042 C 
ATOM     20  C   UNL     1      38.223 -24.437 -13.322  0.00  0.00    -0.042 C 
ATOM     21  C   UNL     1      35.456 -23.609 -13.462  0.00  0.00    +0.069 C 
ATOM     22  C   UNL     1      37.525 -24.260 -14.678  0.00  0.00    +0.069 C 
ATOM     23  C   UNL     1      39.315 -25.501 -13.415  0.00  0.00    -0.022 C 
ATOM     24  C   UNL     1      35.255 -24.231 -11.031  0.00  0.00    -0.022 C 
ATOM     25  H   UNL     1      36.824 -25.714 -12.556  0.00  0.00    -0.084 HD
ATOM     26  H   UNL     1      37.748 -24.930 -11.402  0.00  0.00    -0.084 HD
ENDBRANCH  11  17
ENDBRANCH   5  16
BRANCH   6  27
ATOM     27  C   UNL     1      33.617 -17.820 -24.000  0.00  0.00    +0.047 C 
BRANCH  27  28
ATOM     28  C   UNL     1      34.121 -16.523 -24.681  0.00  0.00    +0.033 C 
BRANCH  28  29
ATOM     29  C   UNL     1      33.844 -15.284 -23.865  0.00  0.00    -0.016 C 
ATOM     30  C   UNL     1      33.342 -14.138 -24.483  0.00  0.00    +0.033 C 
ATOM     31  C   UNL     1      34.087 -15.285 -22.492  0.00  0.00    +0.033 C 
ATOM     32  C   UNL     1      33.831 -14.141 -21.736  0.00  0.00    +0.141 C 
ATOM     33  C   UNL     1      33.085 -12.994 -23.728  0.00  0.00    +0.141 C 
ATOM     34  C   UNL     1      33.330 -12.995 -22.355  0.00  0.00    +0.074 C 
BRANCH  32  35
ATOM     35  O   UNL     1      34.068 -14.142 -20.396  0.00  0.00    -0.471 OA
ATOM     36  C   UNL     1      33.094 -14.773 -19.566  0.00  0.00    +0.252 C 
ENDBRANCH  32  35
BRANCH  33  37
ATOM     37  O   UNL     1      32.595 -11.876 -24.330  0.00  0.00    -0.471 OA
ATOM     38  C   UNL     1      32.461 -10.709 -23.521  0.00  0.00    +0.252 C 
ENDBRANCH  33  37
ENDBRANCH  28  29
ENDBRANCH  27  28
ENDBRANCH   6  27
TORSDOF 7
ENDMDL
MODEL 9
REMARK VINA RESULT:     -12.4      1.166      2.171
REMARK  Name = 51039095
REMARK  7 active torsions:
REMARK  status: ('A' for Active; 'I' for Inactive)
REMARK    1  A    between atoms: C_5  and  C_16
REMARK    2  A    between atoms: C_6  and  C_27
REMARK    3  A    between atoms: C_11  and  N_17
REMARK    4  A    between atoms: C_27  and  C_28
REMARK    5  A    between atoms: C_28  and  C_29
REMARK    6  A    between atoms: C_32  and  O_35
REMARK    7  A    between atoms: C_33  and  O_37
REMARK                            x       y       z     vdW  Elec       q    Type
REMARK                         _______ _______ _______ _____ _____    ______ ____
ROOT
ATOM      1  O   UNL     1      33.393 -14.653 -19.940  0.00  0.00    -0.270 OA
ATOM      2  N   UNL     1      33.956 -15.030 -22.186  0.00  0.00    -0.265 N 
ATOM      3  N   UNL     1      35.286 -18.180 -22.790  0.00  0.00    -0.239 N 
ATOM      4  N   UNL     1      34.909 -16.978 -23.258  0.00  0.00    -0.166 NA
ATOM      5  C   UNL     1      33.463 -14.268 -21.118  0.00  0.00    +0.251 C 
ATOM      6  C   UNL     1      35.095 -18.333 -21.447  0.00  0.00    +0.046 C 
ATOM      7  C   UNL     1      34.464 -16.352 -22.165  0.00  0.00    +0.153 C 
ATOM      8  C   UNL     1      34.556 -17.148 -21.008  0.00  0.00    +0.048 C 
ATOM      9  H   UNL     1      33.950 -14.588 -23.066  0.00  0.00    +0.157 HD
ATOM     10  H   UNL     1      35.665 -18.885 -23.363  0.00  0.00    +0.174 HD
ENDROOT
BRANCH   5  16
ATOM     11  C   UNL     1      32.215 -10.326 -22.079  0.00  0.00    +0.048 C 
ATOM     12  C   UNL     1      33.086 -11.009 -22.928  0.00  0.00    +0.015 C 
ATOM     13  C   UNL     1      31.752 -10.939 -20.914  0.00  0.00    +0.015 C 
ATOM     14  C   UNL     1      33.496 -12.304 -22.612  0.00  0.00    +0.006 C 
ATOM     15  C   UNL     1      32.163 -12.235 -20.599  0.00  0.00    +0.006 C 
ATOM     16  C   UNL     1      33.034 -12.917 -21.447  0.00  0.00    +0.054 C 
BRANCH  11  17
ATOM     17  N   UNL     1      31.802  -9.027 -22.394  0.00  0.00    -0.312 N 
ATOM     18  N   UNL     1      30.750  -6.440 -22.961  0.00  0.00    +0.389 N 
ATOM     19  C   UNL     1      31.309  -7.259 -24.041  0.00  0.00    -0.042 C 
ATOM     20  C   UNL     1      31.467  -6.683 -21.705  0.00  0.00    -0.042 C 
ATOM     21  C   UNL     1      31.200  -8.754 -23.704  0.00  0.00    +0.069 C 
ATOM     22  C   UNL     1      31.360  -8.158 -21.295  0.00  0.00    +0.069 C 
ATOM     23  C   UNL     1      30.888  -5.779 -20.617  0.00  0.00    -0.022 C 
ATOM     24  C   UNL     1      30.567  -6.948 -25.340  0.00  0.00    -0.022 C 
ATOM     25  H   UNL     1      29.766  -6.677 -22.836  0.00  0.00    -0.084 HD
ATOM     26  H   UNL     1      30.848  -5.456 -23.211  0.00  0.00    -0.084 HD
ENDBRANCH  11  17
ENDBRANCH   5  16
BRANCH   6  27
ATOM     27  C   UNL     1      35.444 -19.577 -20.743  0.00  0.00    +0.047 C 
BRANCH  27  28
ATOM     28  C   UNL     1      34.236 -20.475 -20.376  0.00  0.00    +0.033 C 
BRANCH  28  29
ATOM     29  C   UNL     1      34.403 -21.171 -19.046  0.00  0.00    -0.016 C 
ATOM     30  C   UNL     1      35.642 -21.166 -18.406  0.00  0.00    +0.033 C 
ATOM     31  C   UNL     1      33.317 -21.818 -18.458  0.00  0.00    +0.033 C 
ATOM     32  C   UNL     1      33.468 -22.461 -17.230  0.00  0.00    +0.141 C 
ATOM     33  C   UNL     1      35.794 -21.807 -17.177  0.00  0.00    +0.141 C 
ATOM     34  C   UNL     1      34.708 -22.456 -16.589  0.00  0.00    +0.074 C 
BRANCH  32  35
ATOM     35  O   UNL     1      32.408 -23.092 -16.654  0.00  0.00    -0.471 OA
ATOM     36  C   UNL     1      31.161 -22.400 -16.660  0.00  0.00    +0.252 C 
ENDBRANCH  32  35
BRANCH  33  37
ATOM     37  O   UNL     1      37.003 -21.802 -16.551  0.00  0.00    -0.471 OA
ATOM     38  C   UNL     1      37.103 -22.530 -15.328  0.00  0.00    +0.252 C 
ENDBRANCH  33  37
ENDBRANCH  28  29
ENDBRANCH  27  28
ENDBRANCH   6  27
TORSDOF 7
ENDMDL
