MODEL 1
REMARK VINA RESULT:     -11.8      0.000      0.000
REMARK  Name = 10343454
REMARK  6 active torsions:
REMARK  status: ('A' for Active; 'I' for Inactive)
REMARK    1  A    between atoms: C_2  and  N_17
REMARK    2  A    between atoms: C_3  and  C_9
REMARK    3  A    between atoms: C_9  and  C_12
REMARK    4  A    between atoms: N_17  and  S_19
REMARK    5  A    between atoms: S_19  and  C_25
REMARK    6  A    between atoms: C_22  and  C_28
REMARK                            x       y       z     vdW  Elec       q    Type
REMARK                         _______ _______ _______ _____ _____    ______ ____
ROOT
ATOM      1 CL   UNL     1      36.590 -25.687 -12.848  0.00  0.00    -0.082 Cl
ATOM      2  C   UNL     1      33.971 -22.914 -15.241  0.00  0.00    +0.068 C 
ATOM      3  C   UNL     1      33.513 -23.420 -14.028  0.00  0.00    +0.054 C 
ATOM      4  C   UNL     1      35.231 -23.258 -15.721  0.00  0.00    +0.017 C 
ATOM      5  C   UNL     1      34.324 -24.278 -13.287  0.00  0.00    +0.016 C 
ATOM      6  C   UNL     1      36.042 -24.117 -14.978  0.00  0.00    +0.013 C 
ATOM      7  C   UNL     1      35.589 -24.627 -13.762  0.00  0.00    +0.058 C 
ENDROOT
BRANCH   3   9
ATOM      8  O   UNL     1      32.091 -22.543 -12.392  0.00  0.00    -0.287 OA
ATOM      9  C   UNL     1      32.198 -23.073 -13.506  0.00  0.00    +0.197 C 
BRANCH   9  12
ATOM     10  O   UNL     1      27.554 -24.039 -16.324  0.00  0.00    -0.163 OA
ATOM     11  N   UNL     1      28.627 -23.816 -15.674  0.00  0.00    -0.127 N 
ATOM     12  C   UNL     1      30.942 -23.335 -14.270  0.00  0.00    +0.042 C 
ATOM     13  C   UNL     1      30.710 -24.602 -14.741  0.00  0.00    +0.025 C 
ATOM     14  C   UNL     1      30.067 -22.298 -14.470  0.00  0.00    +0.025 C 
ATOM     15  C   UNL     1      29.536 -24.832 -15.450  0.00  0.00    +0.121 C 
ATOM     16  C   UNL     1      28.900 -22.554 -15.182  0.00  0.00    +0.121 C 
ENDBRANCH   9  12
ENDBRANCH   3   9
BRANCH   2  17
ATOM     17  N   UNL     1      33.152 -22.026 -16.023  0.00  0.00    -0.215 N 
ATOM     18  H   UNL     1      32.926 -21.126 -15.695  0.00  0.00    +0.174 HD
BRANCH  17  19
ATOM     19  S   UNL     1      32.579 -22.585 -17.548  0.00  0.00    +0.074 S 
ATOM     20  O   UNL     1      33.157 -23.902 -17.794  0.00  0.00    -0.150 OA
ATOM     21  O   UNL     1      31.132 -22.430 -17.613  0.00  0.00    -0.150 OA
BRANCH  19  25
ATOM     22  C   UNL     1      34.463 -19.708 -20.434  0.00  0.00    -0.023 C 
ATOM     23  C   UNL     1      35.287 -20.490 -19.664  0.00  0.00    -0.003 C 
ATOM     24  C   UNL     1      33.093 -19.760 -20.368  0.00  0.00    -0.003 C 
ATOM     25  C   UNL     1      33.312 -21.466 -18.671  0.00  0.00    +0.125 C 
ATOM     26  C   UNL     1      34.701 -21.384 -18.767  0.00  0.00    +0.020 C 
ATOM     27  C   UNL     1      32.508 -20.655 -19.471  0.00  0.00    +0.020 C 
BRANCH  22  28
ATOM     28  C   UNL     1      35.108 -18.724 -21.424  0.00  0.00    +0.019 C 
ATOM     29  C   UNL     1      34.681 -17.281 -21.074  0.00  0.00    +0.004 C 
ATOM     30  C   UNL     1      34.649 -19.054 -22.861  0.00  0.00    +0.004 C 
ATOM     31  C   UNL     1      36.653 -18.756 -21.420  0.00  0.00    +0.004 C 
ENDBRANCH  22  28
ENDBRANCH  19  25
ENDBRANCH  17  19
ENDBRANCH   2  17
TORSDOF 6
ENDMDL
MODEL 2
REMARK VINA RESULT:     -11.5      2.482      4.757
REMARK  Name = 10343454
REMARK  6 active torsions:
REMARK  status: ('A' for Active; 'I' for Inactive)
REMARK    1  A    between atoms: C_2  and  N_17
REMARK    2  A    between atoms: C_3  and  C_9
REMARK    3  A    between atoms: C_9  and  C_12
REMARK    4  A    between atoms: N_17  and  S_19
REMARK    5  A    between atoms: S_19  and  C_25
REMARK    6  A    between atoms: C_22  and  C_28
REMARK                            x       y       z     vdW  Elec       q    Type
REMARK                         _______ _______ _______ _____ _____    ______ ____
ROOT
ATOM      1 CL   UNL     1      30.772 -24.369 -12.353  0.00  0.00    -0.082 Cl
ATOM      2  C   UNL     1      33.013 -22.809 -15.934  0.00  0.00    +0.068 C 
ATOM      3  C   UNL     1      33.694 -23.048 -14.745  0.00  0.00    +0.054 C 
ATOM      4  C   UNL     1      31.645 -23.048 -16.026  0.00  0.00    +0.017 C 
ATOM      5  C   UNL     1      33.001 -23.532 -13.636  0.00  0.00    +0.016 C 
ATOM      6  C   UNL     1      30.952 -23.532 -14.917  0.00  0.00    +0.013 C 
ATOM      7  C   UNL     1      31.629 -23.773 -13.721  0.00  0.00    +0.058 C 
ENDROOT
BRANCH   3   9
ATOM      8  O   UNL     1      35.560 -21.648 -14.591  0.00  0.00    -0.287 OA
ATOM      9  C   UNL     1      35.126 -22.807 -14.624  0.00  0.00    +0.197 C 
BRANCH   9  12
ATOM     10  O   UNL     1      38.792 -26.916 -14.300  0.00  0.00    -0.163 OA
ATOM     11  N   UNL     1      37.946 -25.967 -14.376  0.00  0.00    -0.127 N 
ATOM     12  C   UNL     1      36.119 -23.919 -14.538  0.00  0.00    +0.042 C 
ATOM     13  C   UNL     1      37.396 -23.629 -14.132  0.00  0.00    +0.025 C 
ATOM     14  C   UNL     1      35.715 -25.187 -14.866  0.00  0.00    +0.025 C 
ATOM     15  C   UNL     1      38.311 -24.674 -14.054  0.00  0.00    +0.121 C 
ATOM     16  C   UNL     1      36.648 -26.214 -14.781  0.00  0.00    +0.121 C 
ENDBRANCH   9  12
ENDBRANCH   3   9
BRANCH   2  17
ATOM     17  N   UNL     1      33.707 -22.312 -17.091  0.00  0.00    -0.215 N 
ATOM     18  H   UNL     1      34.590 -21.883 -17.007  0.00  0.00    +0.174 HD
BRANCH  17  19
ATOM     19  S   UNL     1      32.950 -22.489 -18.629  0.00  0.00    +0.074 S 
ATOM     20  O   UNL     1      33.421 -23.733 -19.224  0.00  0.00    -0.150 OA
ATOM     21  O   UNL     1      31.514 -22.274 -18.493  0.00  0.00    -0.150 OA
BRANCH  19  25
ATOM     22  C   UNL     1      34.695 -19.095 -20.994  0.00  0.00    -0.023 C 
ATOM     23  C   UNL     1      33.335 -19.279 -21.026  0.00  0.00    -0.003 C 
ATOM     24  C   UNL     1      35.548 -19.894 -20.275  0.00  0.00    -0.003 C 
ATOM     25  C   UNL     1      33.628 -21.168 -19.549  0.00  0.00    +0.125 C 
ATOM     26  C   UNL     1      32.793 -20.335 -20.292  0.00  0.00    +0.020 C 
ATOM     27  C   UNL     1      35.005 -20.949 -19.540  0.00  0.00    +0.020 C 
BRANCH  22  28
ATOM     28  C   UNL     1      35.292 -17.932 -21.802  0.00  0.00    +0.019 C 
ATOM     29  C   UNL     1      36.833 -18.031 -21.794  0.00  0.00    +0.004 C 
ATOM     30  C   UNL     1      34.867 -16.588 -21.174  0.00  0.00    +0.004 C 
ATOM     31  C   UNL     1      34.845 -17.905 -23.282  0.00  0.00    +0.004 C 
ENDBRANCH  22  28
ENDBRANCH  19  25
ENDBRANCH  17  19
ENDBRANCH   2  17
TORSDOF 6
ENDMDL
MODEL 3
REMARK VINA RESULT:     -11.5      2.356      4.675
REMARK  Name = 10343454
REMARK  6 active torsions:
REMARK  status: ('A' for Active; 'I' for Inactive)
REMARK    1  A    between atoms: C_2  and  N_17
REMARK    2  A    between atoms: C_3  and  C_9
REMARK    3  A    between atoms: C_9  and  C_12
REMARK    4  A    between atoms: N_17  and  S_19
REMARK    5  A    between atoms: S_19  and  C_25
REMARK    6  A    between atoms: C_22  and  C_28
REMARK                            x       y       z     vdW  Elec       q    Type
REMARK                         _______ _______ _______ _____ _____    ______ ____
ROOT
ATOM      1 CL   UNL     1      30.155 -24.171 -11.919  0.00  0.00    -0.082 Cl
ATOM      2  C   UNL     1      32.619 -22.810 -15.433  0.00  0.00    +0.068 C 
ATOM      3  C   UNL     1      33.132 -23.763 -14.560  0.00  0.00    +0.054 C 
ATOM      4  C   UNL     1      31.351 -22.273 -15.231  0.00  0.00    +0.017 C 
ATOM      5  C   UNL     1      32.369 -24.185 -13.472  0.00  0.00    +0.016 C 
ATOM      6  C   UNL     1      30.588 -22.696 -14.142  0.00  0.00    +0.013 C 
ATOM      7  C   UNL     1      31.096 -23.651 -13.262  0.00  0.00    +0.058 C 
ENDROOT
BRANCH   3   9
ATOM      8  O   UNL     1      34.667 -25.113 -15.695  0.00  0.00    -0.287 OA
ATOM      9  C   UNL     1      34.456 -24.339 -14.752  0.00  0.00    +0.197 C 
BRANCH   9  12
ATOM     10  O   UNL     1      38.678 -23.210 -11.384  0.00  0.00    -0.163 OA
ATOM     11  N   UNL     1      37.703 -23.470 -12.162  0.00  0.00    -0.127 N 
ATOM     12  C   UNL     1      35.599 -24.033 -13.841  0.00  0.00    +0.042 C 
ATOM     13  C   UNL     1      35.657 -22.796 -13.251  0.00  0.00    +0.025 C 
ATOM     14  C   UNL     1      36.548 -25.001 -13.628  0.00  0.00    +0.025 C 
ATOM     15  C   UNL     1      36.727 -22.524 -12.405  0.00  0.00    +0.121 C 
ATOM     16  C   UNL     1      37.607 -24.704 -12.778  0.00  0.00    +0.121 C 
ENDBRANCH   9  12
ENDBRANCH   3   9
BRANCH   2  17
ATOM     17  N   UNL     1      33.388 -22.360 -16.563  0.00  0.00    -0.215 N 
ATOM     18  H   UNL     1      34.244 -21.891 -16.439  0.00  0.00    +0.174 HD
BRANCH  17  19
ATOM     19  S   UNL     1      32.765 -22.667 -18.140  0.00  0.00    +0.074 S 
ATOM     20  O   UNL     1      33.294 -23.947 -18.594  0.00  0.00    -0.150 OA
ATOM     21  O   UNL     1      31.321 -22.462 -18.143  0.00  0.00    -0.150 OA
BRANCH  19  25
ATOM     22  C   UNL     1      34.679 -19.444 -20.611  0.00  0.00    -0.023 C 
ATOM     23  C   UNL     1      35.493 -20.277 -19.885  0.00  0.00    -0.003 C 
ATOM     24  C   UNL     1      33.310 -19.545 -20.620  0.00  0.00    -0.003 C 
ATOM     25  C   UNL     1      33.509 -21.413 -19.101  0.00  0.00    +0.125 C 
ATOM     26  C   UNL     1      34.898 -21.278 -19.117  0.00  0.00    +0.020 C 
ATOM     27  C   UNL     1      32.715 -20.547 -19.852  0.00  0.00    +0.020 C 
BRANCH  22  28
ATOM     28  C   UNL     1      35.334 -18.341 -21.458  0.00  0.00    +0.019 C 
ATOM     29  C   UNL     1      34.838 -16.958 -20.985  0.00  0.00    +0.004 C 
ATOM     30  C   UNL     1      34.958 -18.534 -22.944  0.00  0.00    +0.004 C 
ATOM     31  C   UNL     1      36.878 -18.325 -21.377  0.00  0.00    +0.004 C 
ENDBRANCH  22  28
ENDBRANCH  19  25
ENDBRANCH  17  19
ENDBRANCH   2  17
TORSDOF 6
ENDMDL
MODEL 4
REMARK VINA RESULT:     -10.6      0.857      1.544
REMARK  Name = 10343454
REMARK  6 active torsions:
REMARK  status: ('A' for Active; 'I' for Inactive)
REMARK    1  A    between atoms: C_2  and  N_17
REMARK    2  A    between atoms: C_3  and  C_9
REMARK    3  A    between atoms: C_9  and  C_12
REMARK    4  A    between atoms: N_17  and  S_19
REMARK    5  A    between atoms: S_19  and  C_25
REMARK    6  A    between atoms: C_22  and  C_28
REMARK                            x       y       z     vdW  Elec       q    Type
REMARK                         _______ _______ _______ _____ _____    ______ ____
ROOT
ATOM      1 CL   UNL     1      38.353 -24.266 -13.679  0.00  0.00    -0.082 Cl
ATOM      2  C   UNL     1      34.519 -22.563 -15.314  0.00  0.00    +0.068 C 
ATOM      3  C   UNL     1      34.534 -23.133 -14.046  0.00  0.00    +0.054 C 
ATOM      4  C   UNL     1      35.678 -22.513 -16.082  0.00  0.00    +0.017 C 
ATOM      5  C   UNL     1      35.721 -23.661 -13.539  0.00  0.00    +0.016 C 
ATOM      6  C   UNL     1      36.866 -23.041 -15.574  0.00  0.00    +0.013 C 
ATOM      7  C   UNL     1      36.888 -23.615 -14.303  0.00  0.00    +0.058 C 
ENDROOT
BRANCH   3   9
ATOM      8  O   UNL     1      33.413 -23.070 -11.995  0.00  0.00    -0.287 OA
ATOM      9  C   UNL     1      33.333 -23.196 -13.223  0.00  0.00    +0.197 C 
BRANCH   9  12
ATOM     10  O   UNL     1      28.317 -23.987 -15.379  0.00  0.00    -0.163 OA
ATOM     11  N   UNL     1      29.475 -23.805 -14.883  0.00  0.00    -0.127 N 
ATOM     12  C   UNL     1      31.975 -23.410 -13.808  0.00  0.00    +0.042 C 
ATOM     13  C   UNL     1      31.630 -24.671 -14.223  0.00  0.00    +0.025 C 
ATOM     14  C   UNL     1      31.126 -22.338 -13.907  0.00  0.00    +0.025 C 
ATOM     15  C   UNL     1      30.362 -24.857 -14.765  0.00  0.00    +0.121 C 
ATOM     16  C   UNL     1      29.865 -22.551 -14.453  0.00  0.00    +0.121 C 
ENDBRANCH   9  12
ENDBRANCH   3   9
BRANCH   2  17
ATOM     17  N   UNL     1      33.306 -22.011 -15.857  0.00  0.00    -0.215 N 
ATOM     18  H   UNL     1      32.823 -21.292 -15.390  0.00  0.00    +0.174 HD
BRANCH  17  19
ATOM     19  S   UNL     1      32.725 -22.647 -17.350  0.00  0.00    +0.074 S 
ATOM     20  O   UNL     1      33.349 -23.948 -17.561  0.00  0.00    -0.150 OA
ATOM     21  O   UNL     1      31.271 -22.551 -17.388  0.00  0.00    -0.150 OA
BRANCH  19  25
ATOM     22  C   UNL     1      34.434 -19.804 -20.375  0.00  0.00    -0.023 C 
ATOM     23  C   UNL     1      33.070 -19.868 -20.241  0.00  0.00    -0.003 C 
ATOM     24  C   UNL     1      35.303 -20.564 -19.632  0.00  0.00    -0.003 C 
ATOM     25  C   UNL     1      33.390 -21.541 -18.527  0.00  0.00    +0.125 C 
ATOM     26  C   UNL     1      32.539 -20.753 -19.301  0.00  0.00    +0.020 C 
ATOM     27  C   UNL     1      34.771 -21.448 -18.692  0.00  0.00    +0.020 C 
BRANCH  22  28
ATOM     28  C   UNL     1      35.020 -18.830 -21.410  0.00  0.00    +0.019 C 
ATOM     29  C   UNL     1      36.560 -18.933 -21.407  0.00  0.00    +0.004 C 
ATOM     30  C   UNL     1      34.607 -17.385 -21.057  0.00  0.00    +0.004 C 
ATOM     31  C   UNL     1      34.548 -19.097 -22.858  0.00  0.00    +0.004 C 
ENDBRANCH  22  28
ENDBRANCH  19  25
ENDBRANCH  17  19
ENDBRANCH   2  17
TORSDOF 6
ENDMDL
MODEL 5
REMARK VINA RESULT:      -9.3      3.001      6.506
REMARK  Name = 10343454
REMARK  6 active torsions:
REMARK  status: ('A' for Active; 'I' for Inactive)
REMARK    1  A    between atoms: C_2  and  N_17
REMARK    2  A    between atoms: C_3  and  C_9
REMARK    3  A    between atoms: C_9  and  C_12
REMARK    4  A    between atoms: N_17  and  S_19
REMARK    5  A    between atoms: S_19  and  C_25
REMARK    6  A    between atoms: C_22  and  C_28
REMARK                            x       y       z     vdW  Elec       q    Type
REMARK                         _______ _______ _______ _____ _____    ______ ____
ROOT
ATOM      1 CL   UNL     1      40.410 -25.486 -15.078  0.00  0.00    -0.082 Cl
ATOM      2  C   UNL     1      36.614 -23.415 -13.823  0.00  0.00    +0.068 C 
ATOM      3  C   UNL     1      37.312 -22.959 -14.937  0.00  0.00    +0.054 C 
ATOM      4  C   UNL     1      37.078 -24.506 -13.094  0.00  0.00    +0.017 C 
ATOM      5  C   UNL     1      38.487 -23.600 -15.326  0.00  0.00    +0.016 C 
ATOM      6  C   UNL     1      38.254 -25.147 -13.484  0.00  0.00    +0.013 C 
ATOM      7  C   UNL     1      38.959 -24.695 -14.599  0.00  0.00    +0.058 C 
ENDROOT
BRANCH   3   9
ATOM      8  O   UNL     1      37.366 -20.708 -15.564  0.00  0.00    -0.287 OA
ATOM      9  C   UNL     1      36.845 -21.820 -15.716  0.00  0.00    +0.197 C 
BRANCH   9  12
ATOM     10  O   UNL     1      32.760 -22.240 -19.400  0.00  0.00    -0.163 OA
ATOM     11  N   UNL     1      33.703 -22.144 -18.549  0.00  0.00    -0.127 N 
ATOM     12  C   UNL     1      35.740 -21.935 -16.713  0.00  0.00    +0.042 C 
ATOM     13  C   UNL     1      34.575 -22.552 -16.335  0.00  0.00    +0.025 C 
ATOM     14  C   UNL     1      35.931 -21.418 -17.969  0.00  0.00    +0.025 C 
ATOM     15  C   UNL     1      33.553 -22.652 -17.274  0.00  0.00    +0.121 C 
ATOM     16  C   UNL     1      34.894 -21.531 -18.888  0.00  0.00    +0.121 C 
ENDBRANCH   9  12
ENDBRANCH   3   9
BRANCH   2  17
ATOM     17  N   UNL     1      35.398 -22.771 -13.404  0.00  0.00    -0.215 N 
ATOM     18  H   UNL     1      35.190 -21.850 -13.683  0.00  0.00    +0.174 HD
BRANCH  17  19
ATOM     19  S   UNL     1      34.316 -23.658 -12.398  0.00  0.00    +0.074 S 
ATOM     20  O   UNL     1      34.683 -25.067 -12.473  0.00  0.00    -0.150 OA
ATOM     21  O   UNL     1      34.234 -23.022 -11.089  0.00  0.00    -0.150 OA
BRANCH  19  25
ATOM     22  C   UNL     1      30.375 -23.156 -14.488  0.00  0.00    -0.023 C 
ATOM     23  C   UNL     1      30.701 -24.398 -14.004  0.00  0.00    -0.003 C 
ATOM     24  C   UNL     1      31.192 -22.060 -14.367  0.00  0.00    -0.003 C 
ATOM     25  C   UNL     1      32.783 -23.463 -13.211  0.00  0.00    +0.125 C 
ATOM     26  C   UNL     1      31.926 -24.554 -13.355  0.00  0.00    +0.020 C 
ATOM     27  C   UNL     1      32.417 -22.216 -13.717  0.00  0.00    +0.020 C 
BRANCH  22  28
ATOM     28  C   UNL     1      29.025 -22.983 -15.203  0.00  0.00    +0.019 C 
ATOM     29  C   UNL     1      28.244 -24.315 -15.167  0.00  0.00    +0.004 C 
ATOM     30  C   UNL     1      29.263 -22.575 -16.673  0.00  0.00    +0.004 C 
ATOM     31  C   UNL     1      28.117 -21.904 -14.572  0.00  0.00    +0.004 C 
ENDBRANCH  22  28
ENDBRANCH  19  25
ENDBRANCH  17  19
ENDBRANCH   2  17
TORSDOF 6
ENDMDL
MODEL 6
REMARK VINA RESULT:      -9.3      9.788     13.810
REMARK  Name = 10343454
REMARK  6 active torsions:
REMARK  status: ('A' for Active; 'I' for Inactive)
REMARK    1  A    between atoms: C_2  and  N_17
REMARK    2  A    between atoms: C_3  and  C_9
REMARK    3  A    between atoms: C_9  and  C_12
REMARK    4  A    between atoms: N_17  and  S_19
REMARK    5  A    between atoms: S_19  and  C_25
REMARK    6  A    between atoms: C_22  and  C_28
REMARK                            x       y       z     vdW  Elec       q    Type
REMARK                         _______ _______ _______ _____ _____    ______ ____
ROOT
ATOM      1 CL   UNL     1      31.505  -9.647 -17.974  0.00  0.00    -0.082 Cl
ATOM      2  C   UNL     1      31.586 -11.684 -21.989  0.00  0.00    +0.068 C 
ATOM      3  C   UNL     1      31.540 -10.296 -21.921  0.00  0.00    +0.054 C 
ATOM      4  C   UNL     1      31.607 -12.450 -20.827  0.00  0.00    +0.017 C 
ATOM      5  C   UNL     1      31.516  -9.665 -20.678  0.00  0.00    +0.016 C 
ATOM      6  C   UNL     1      31.582 -11.818 -19.583  0.00  0.00    +0.013 C 
ATOM      7  C   UNL     1      31.536 -10.426 -19.508  0.00  0.00    +0.058 C 
ENDROOT
BRANCH   3   9
ATOM      8  O   UNL     1      31.401 -10.004 -24.237  0.00  0.00    -0.287 OA
ATOM      9  C   UNL     1      31.518  -9.474 -23.124  0.00  0.00    +0.197 C 
BRANCH   9  12
ATOM     10  O   UNL     1      31.944  -3.977 -22.943  0.00  0.00    -0.163 OA
ATOM     11  N   UNL     1      31.845  -5.246 -22.986  0.00  0.00    -0.127 N 
ATOM     12  C   UNL     1      31.633  -7.986 -23.076  0.00  0.00    +0.042 C 
ATOM     13  C   UNL     1      30.488  -7.236 -23.154  0.00  0.00    +0.025 C 
ATOM     14  C   UNL     1      32.879  -7.427 -22.956  0.00  0.00    +0.025 C 
ATOM     15  C   UNL     1      30.609  -5.851 -23.108  0.00  0.00    +0.121 C 
ATOM     16  C   UNL     1      32.973  -6.040 -22.912  0.00  0.00    +0.121 C 
ENDBRANCH   9  12
ENDBRANCH   3   9
BRANCH   2  17
ATOM     17  N   UNL     1      31.613 -12.358 -23.260  0.00  0.00    -0.215 N 
ATOM     18  H   UNL     1      30.785 -12.695 -23.672  0.00  0.00    +0.174 HD
BRANCH  17  19
ATOM     19  S   UNL     1      33.137 -12.556 -24.039  0.00  0.00    +0.074 S 
ATOM     20  O   UNL     1      32.907 -12.598 -25.478  0.00  0.00    -0.150 OA
ATOM     21  O   UNL     1      34.087 -11.586 -23.508  0.00  0.00    -0.150 OA
BRANCH  19  25
ATOM     22  C   UNL     1      34.394 -16.664 -22.735  0.00  0.00    -0.023 C 
ATOM     23  C   UNL     1      34.434 -15.648 -21.813  0.00  0.00    -0.003 C 
ATOM     24  C   UNL     1      33.990 -16.488 -24.035  0.00  0.00    -0.003 C 
ATOM     25  C   UNL     1      33.626 -14.154 -23.532  0.00  0.00    +0.125 C 
ATOM     26  C   UNL     1      34.044 -14.371 -22.219  0.00  0.00    +0.020 C 
ATOM     27  C   UNL     1      33.600 -15.211 -24.440  0.00  0.00    +0.020 C 
BRANCH  22  28
ATOM     28  C   UNL     1      34.823 -18.071 -22.289  0.00  0.00    +0.019 C 
ATOM     29  C   UNL     1      36.346 -18.093 -22.032  0.00  0.00    +0.004 C 
ATOM     30  C   UNL     1      34.480 -19.095 -23.392  0.00  0.00    +0.004 C 
ATOM     31  C   UNL     1      34.135 -18.552 -20.991  0.00  0.00    +0.004 C 
ENDBRANCH  22  28
ENDBRANCH  19  25
ENDBRANCH  17  19
ENDBRANCH   2  17
TORSDOF 6
ENDMDL
MODEL 7
REMARK VINA RESULT:      -9.3      9.796     13.817
REMARK  Name = 10343454
REMARK  6 active torsions:
REMARK  status: ('A' for Active; 'I' for Inactive)
REMARK    1  A    between atoms: C_2  and  N_17
REMARK    2  A    between atoms: C_3  and  C_9
REMARK    3  A    between atoms: C_9  and  C_12
REMARK    4  A    between atoms: N_17  and  S_19
REMARK    5  A    between atoms: S_19  and  C_25
REMARK    6  A    between atoms: C_22  and  C_28
REMARK                            x       y       z     vdW  Elec       q    Type
REMARK                         _______ _______ _______ _____ _____    ______ ____
ROOT
ATOM      1 CL   UNL     1      31.517  -9.645 -17.978  0.00  0.00    -0.082 Cl
ATOM      2  C   UNL     1      31.572 -11.680 -21.994  0.00  0.00    +0.068 C 
ATOM      3  C   UNL     1      31.531 -10.291 -21.926  0.00  0.00    +0.054 C 
ATOM      4  C   UNL     1      31.597 -12.446 -20.832  0.00  0.00    +0.017 C 
ATOM      5  C   UNL     1      31.514  -9.661 -20.682  0.00  0.00    +0.016 C 
ATOM      6  C   UNL     1      31.581 -11.814 -19.589  0.00  0.00    +0.013 C 
ATOM      7  C   UNL     1      31.539 -10.422 -19.513  0.00  0.00    +0.058 C 
ENDROOT
BRANCH   3   9
ATOM      8  O   UNL     1      31.385  -9.998 -24.241  0.00  0.00    -0.287 OA
ATOM      9  C   UNL     1      31.505  -9.469 -23.128  0.00  0.00    +0.197 C 
BRANCH   9  12
ATOM     10  O   UNL     1      31.926  -3.971 -22.955  0.00  0.00    -0.163 OA
ATOM     11  N   UNL     1      31.829  -5.241 -22.994  0.00  0.00    -0.127 N 
ATOM     12  C   UNL     1      31.619  -7.981 -23.080  0.00  0.00    +0.042 C 
ATOM     13  C   UNL     1      32.867  -7.420 -22.990  0.00  0.00    +0.025 C 
ATOM     14  C   UNL     1      30.471  -7.232 -23.128  0.00  0.00    +0.025 C 
ATOM     15  C   UNL     1      32.959  -6.033 -22.947  0.00  0.00    +0.121 C 
ATOM     16  C   UNL     1      30.591  -5.847 -23.083  0.00  0.00    +0.121 C 
ENDBRANCH   9  12
ENDBRANCH   3   9
BRANCH   2  17
ATOM     17  N   UNL     1      31.591 -12.353 -23.266  0.00  0.00    -0.215 N 
ATOM     18  H   UNL     1      30.760 -12.689 -23.673  0.00  0.00    +0.174 HD
BRANCH  17  19
ATOM     19  S   UNL     1      33.110 -12.553 -24.053  0.00  0.00    +0.074 S 
ATOM     20  O   UNL     1      32.872 -12.591 -25.492  0.00  0.00    -0.150 OA
ATOM     21  O   UNL     1      34.065 -11.587 -23.525  0.00  0.00    -0.150 OA
BRANCH  19  25
ATOM     22  C   UNL     1      34.366 -16.666 -22.765  0.00  0.00    -0.023 C 
ATOM     23  C   UNL     1      33.911 -16.497 -24.049  0.00  0.00    -0.003 C 
ATOM     24  C   UNL     1      34.456 -15.643 -21.855  0.00  0.00    -0.003 C 
ATOM     25  C   UNL     1      33.599 -14.153 -23.552  0.00  0.00    +0.125 C 
ATOM     26  C   UNL     1      33.520 -15.219 -24.449  0.00  0.00    +0.020 C 
ATOM     27  C   UNL     1      34.066 -14.364 -22.256  0.00  0.00    +0.020 C 
BRANCH  22  28
ATOM     28  C   UNL     1      34.797 -18.074 -22.324  0.00  0.00    +0.019 C 
ATOM     29  C   UNL     1      36.317 -18.091 -22.051  0.00  0.00    +0.004 C 
ATOM     30  C   UNL     1      34.471 -19.092 -23.439  0.00  0.00    +0.004 C 
ATOM     31  C   UNL     1      34.097 -18.569 -21.037  0.00  0.00    +0.004 C 
ENDBRANCH  22  28
ENDBRANCH  19  25
ENDBRANCH  17  19
ENDBRANCH   2  17
TORSDOF 6
ENDMDL
MODEL 8
REMARK VINA RESULT:      -8.9      2.953      4.816
REMARK  Name = 10343454
REMARK  6 active torsions:
REMARK  status: ('A' for Active; 'I' for Inactive)
REMARK    1  A    between atoms: C_2  and  N_17
REMARK    2  A    between atoms: C_3  and  C_9
REMARK    3  A    between atoms: C_9  and  C_12
REMARK    4  A    between atoms: N_17  and  S_19
REMARK    5  A    between atoms: S_19  and  C_25
REMARK    6  A    between atoms: C_22  and  C_28
REMARK                            x       y       z     vdW  Elec       q    Type
REMARK                         _______ _______ _______ _____ _____    ______ ____
ROOT
ATOM      1 CL   UNL     1      29.580 -22.957 -13.811  0.00  0.00    -0.082 Cl
ATOM      2  C   UNL     1      33.245 -23.034 -16.425  0.00  0.00    +0.068 C 
ATOM      3  C   UNL     1      33.307 -23.552 -15.136  0.00  0.00    +0.054 C 
ATOM      4  C   UNL     1      32.061 -22.492 -16.914  0.00  0.00    +0.017 C 
ATOM      5  C   UNL     1      32.172 -23.529 -14.326  0.00  0.00    +0.016 C 
ATOM      6  C   UNL     1      30.925 -22.469 -16.104  0.00  0.00    +0.013 C 
ATOM      7  C   UNL     1      30.980 -22.987 -14.810  0.00  0.00    +0.058 C 
ENDROOT
BRANCH   3   9
ATOM      8  O   UNL     1      35.225 -24.879 -15.302  0.00  0.00    -0.287 OA
ATOM      9  C   UNL     1      34.536 -24.126 -14.603  0.00  0.00    +0.197 C 
BRANCH   9  12
ATOM     10  O   UNL     1      36.300 -23.065  -9.485  0.00  0.00    -0.163 OA
ATOM     11  N   UNL     1      35.894 -23.310 -10.666  0.00  0.00    -0.127 N 
ATOM     12  C   UNL     1      35.014 -23.839 -13.218  0.00  0.00    +0.042 C 
ATOM     13  C   UNL     1      35.968 -22.870 -13.039  0.00  0.00    +0.025 C 
ATOM     14  C   UNL     1      34.482 -24.556 -12.177  0.00  0.00    +0.025 C 
ATOM     15  C   UNL     1      36.404 -22.612 -11.744  0.00  0.00    +0.121 C 
ATOM     16  C   UNL     1      34.935 -24.279 -10.892  0.00  0.00    +0.121 C 
ENDBRANCH   9  12
ENDBRANCH   3   9
BRANCH   2  17
ATOM     17  N   UNL     1      34.403 -23.048 -17.279  0.00  0.00    -0.215 N 
ATOM     18  H   UNL     1      34.504 -23.728 -17.984  0.00  0.00    +0.174 HD
BRANCH  17  19
ATOM     19  S   UNL     1      35.607 -21.840 -17.032  0.00  0.00    +0.074 S 
ATOM     20  O   UNL     1      35.212 -21.038 -15.880  0.00  0.00    -0.150 OA
ATOM     21  O   UNL     1      36.927 -22.458 -17.039  0.00  0.00    -0.150 OA
BRANCH  19  25
ATOM     22  C   UNL     1      35.204 -19.270 -20.690  0.00  0.00    -0.023 C 
ATOM     23  C   UNL     1      34.149 -20.075 -20.342  0.00  0.00    -0.003 C 
ATOM     24  C   UNL     1      36.375 -19.209 -19.978  0.00  0.00    -0.003 C 
ATOM     25  C   UNL     1      35.450 -20.840 -18.455  0.00  0.00    +0.125 C 
ATOM     26  C   UNL     1      34.274 -20.875 -19.205  0.00  0.00    +0.020 C 
ATOM     27  C   UNL     1      36.500 -20.009 -18.841  0.00  0.00    +0.020 C 
BRANCH  22  28
ATOM     28  C   UNL     1      35.065 -18.388 -21.942  0.00  0.00    +0.019 C 
ATOM     29  C   UNL     1      36.437 -18.255 -22.638  0.00  0.00    +0.004 C 
ATOM     30  C   UNL     1      34.563 -16.985 -21.538  0.00  0.00    +0.004 C 
ATOM     31  C   UNL     1      34.074 -18.942 -22.991  0.00  0.00    +0.004 C 
ENDBRANCH  22  28
ENDBRANCH  19  25
ENDBRANCH  17  19
ENDBRANCH   2  17
TORSDOF 6
ENDMDL
