MODEL 1
REMARK VINA RESULT:     -12.6      0.000      0.000
REMARK  Name = 25155578
REMARK  5 active torsions:
REMARK  status: ('A' for Active; 'I' for Inactive)
REMARK    1  A    between atoms: N_2  and  C_18
REMARK    2  A    between atoms: C_7  and  C_12
REMARK    3  A    between atoms: C_18  and  C_19
REMARK    4  A    between atoms: C_19  and  C_26
REMARK    5  A    between atoms: C_22  and  C_29
REMARK                            x       y       z     vdW  Elec       q    Type
REMARK                         _______ _______ _______ _____ _____    ______ ____
ROOT
ATOM      1  O   UNL     1      34.690 -22.244 -17.411  0.00  0.00    -0.267 OA
ATOM      2  N   UNL     1      32.394 -22.336 -17.012  0.00  0.00    -0.265 N 
ATOM      3  N   UNL     1      33.073 -23.668 -14.618  0.00  0.00    -0.400 NA
ATOM      4  C   UNL     1      31.372 -22.695 -16.091  0.00  0.00    +0.150 C 
ATOM      5  C   UNL     1      33.733 -22.597 -16.731  0.00  0.00    +0.279 C 
ATOM      6  C   UNL     1      31.744 -23.338 -14.905  0.00  0.00    +0.131 C 
ATOM      7  C   UNL     1      34.012 -23.360 -15.454  0.00  0.00    +0.184 C 
ATOM      8  C   UNL     1      30.015 -22.417 -16.323  0.00  0.00    +0.000 C 
ATOM      9  C   UNL     1      30.761 -23.691 -13.969  0.00  0.00    +0.030 C 
ATOM     10  C   UNL     1      29.045 -22.774 -15.384  0.00  0.00    -0.002 C 
ATOM     11  C   UNL     1      29.418 -23.410 -14.207  0.00  0.00    +0.002 C 
ENDROOT
BRANCH   7  12
ATOM     12  C   UNL     1      35.400 -23.766 -15.132  0.00  0.00    +0.034 C 
ATOM     13  C   UNL     1      35.689 -25.104 -14.864  0.00  0.00    +0.003 C 
ATOM     14  C   UNL     1      36.415 -22.812 -15.096  0.00  0.00    +0.003 C 
ATOM     15  C   UNL     1      36.996 -25.488 -14.562  0.00  0.00    +0.000 C 
ATOM     16  C   UNL     1      37.723 -23.195 -14.793  0.00  0.00    +0.000 C 
ATOM     17  C   UNL     1      38.012 -24.533 -14.526  0.00  0.00    +0.000 C 
ENDBRANCH   7  12
BRANCH   2  18
ATOM     18  C   UNL     1      32.043 -21.644 -18.247  0.00  0.00    +0.104 C 
BRANCH  18  19
ATOM     19  C   UNL     1      33.213 -21.550 -19.203  0.00  0.00    +0.107 C 
BRANCH  19  26
ATOM     20  O   UNL     1      32.079 -19.723 -20.224  0.00  0.00    -0.275 OA
ATOM     21  N   UNL     1      34.391 -19.719 -20.325  0.00  0.00    -0.273 N 
ATOM     22  C   UNL     1      34.530 -18.394 -20.914  0.00  0.00    +0.152 C 
ATOM     23  C   UNL     1      36.000 -18.038 -20.724  0.00  0.00    +0.031 C 
ATOM     24  C   UNL     1      36.697 -19.396 -20.729  0.00  0.00    +0.024 C 
ATOM     25  C   UNL     1      35.697 -20.305 -20.032  0.00  0.00    +0.094 C 
ATOM     26  C   UNL     1      33.162 -20.246 -19.959  0.00  0.00    +0.228 C 
BRANCH  22  29
ATOM     27  O   UNL     1      33.972 -19.623 -22.867  0.00  0.00    -0.273 OA
ATOM     28  N   UNL     1      34.088 -17.324 -23.061  0.00  0.00    -0.278 N 
ATOM     29  C   UNL     1      34.169 -18.516 -22.364  0.00  0.00    +0.244 C 
ATOM     30  C   UNL     1      33.754 -17.272 -24.477  0.00  0.00    +0.094 C 
ATOM     31  C   UNL     1      34.305 -15.984 -22.525  0.00  0.00    +0.094 C 
ATOM     32  C   UNL     1      33.456 -15.806 -24.745  0.00  0.00    +0.023 C 
ATOM     33  C   UNL     1      34.367 -15.090 -23.756  0.00  0.00    +0.023 C 
ENDBRANCH  22  29
ENDBRANCH  19  26
ENDBRANCH  18  19
ENDBRANCH   2  18
TORSDOF 5
ENDMDL
MODEL 2
REMARK VINA RESULT:     -12.4      2.048      3.128
REMARK  Name = 25155578
REMARK  5 active torsions:
REMARK  status: ('A' for Active; 'I' for Inactive)
REMARK    1  A    between atoms: N_2  and  C_18
REMARK    2  A    between atoms: C_7  and  C_12
REMARK    3  A    between atoms: C_18  and  C_19
REMARK    4  A    between atoms: C_19  and  C_26
REMARK    5  A    between atoms: C_22  and  C_29
REMARK                            x       y       z     vdW  Elec       q    Type
REMARK                         _______ _______ _______ _____ _____    ______ ____
ROOT
ATOM      1  O   UNL     1      37.840 -21.749 -16.081  0.00  0.00    -0.267 OA
ATOM      2  N   UNL     1      35.893 -21.495 -17.339  0.00  0.00    -0.265 N 
ATOM      3  N   UNL     1      34.714 -23.272 -15.490  0.00  0.00    -0.400 NA
ATOM      4  C   UNL     1      34.509 -21.805 -17.443  0.00  0.00    +0.150 C 
ATOM      5  C   UNL     1      36.669 -22.027 -16.311  0.00  0.00    +0.279 C 
ATOM      6  C   UNL     1      33.952 -22.675 -16.500  0.00  0.00    +0.131 C 
ATOM      7  C   UNL     1      35.977 -23.011 -15.392  0.00  0.00    +0.184 C 
ATOM      8  C   UNL     1      33.688 -21.261 -18.444  0.00  0.00    +0.000 C 
ATOM      9  C   UNL     1      32.586 -22.987 -16.566  0.00  0.00    +0.030 C 
ATOM     10  C   UNL     1      32.329 -21.579 -18.500  0.00  0.00    -0.002 C 
ATOM     11  C   UNL     1      31.778 -22.442 -17.561  0.00  0.00    +0.002 C 
ENDROOT
BRANCH   7  12
ATOM     12  C   UNL     1      36.757 -23.699 -14.337  0.00  0.00    +0.034 C 
ATOM     13  C   UNL     1      36.705 -23.238 -13.021  0.00  0.00    +0.003 C 
ATOM     14  C   UNL     1      37.542 -24.805 -14.658  0.00  0.00    +0.003 C 
ATOM     15  C   UNL     1      37.438 -23.886 -12.026  0.00  0.00    +0.000 C 
ATOM     16  C   UNL     1      38.276 -25.453 -13.663  0.00  0.00    +0.000 C 
ATOM     17  C   UNL     1      38.224 -24.992 -12.347  0.00  0.00    +0.000 C 
ENDBRANCH   7  12
BRANCH   2  18
ATOM     18  C   UNL     1      36.501 -20.574 -18.292  0.00  0.00    +0.104 C 
BRANCH  18  19
ATOM     19  C   UNL     1      35.772 -20.558 -19.618  0.00  0.00    +0.107 C 
BRANCH  19  26
ATOM     20  O   UNL     1      36.905 -18.493 -19.962  0.00  0.00    -0.275 OA
ATOM     21  N   UNL     1      35.106 -18.952 -21.343  0.00  0.00    -0.273 N 
ATOM     22  C   UNL     1      35.274 -17.803 -22.223  0.00  0.00    +0.152 C 
ATOM     23  C   UNL     1      34.407 -18.115 -23.437  0.00  0.00    +0.031 C 
ATOM     24  C   UNL     1      33.297 -18.993 -22.864  0.00  0.00    +0.024 C 
ATOM     25  C   UNL     1      34.012 -19.808 -21.797  0.00  0.00    +0.094 C 
ATOM     26  C   UNL     1      35.993 -19.240 -20.317  0.00  0.00    +0.228 C 
BRANCH  22  29
ATOM     27  O   UNL     1      34.780 -16.585 -20.246  0.00  0.00    -0.273 OA
ATOM     28  N   UNL     1      34.330 -15.555 -22.264  0.00  0.00    -0.278 N 
ATOM     29  C   UNL     1      34.779 -16.600 -21.478  0.00  0.00    +0.244 C 
ATOM     30  C   UNL     1      33.812 -14.320 -21.694  0.00  0.00    +0.094 C 
ATOM     31  C   UNL     1      34.304 -15.508 -23.722  0.00  0.00    +0.094 C 
ATOM     32  C   UNL     1      33.750 -13.354 -22.866  0.00  0.00    +0.023 C 
ATOM     33  C   UNL     1      33.473 -14.275 -24.048  0.00  0.00    +0.023 C 
ENDBRANCH  22  29
ENDBRANCH  19  26
ENDBRANCH  18  19
ENDBRANCH   2  18
TORSDOF 5
ENDMDL
MODEL 3
REMARK VINA RESULT:     -12.2      1.141      4.221
REMARK  Name = 25155578
REMARK  5 active torsions:
REMARK  status: ('A' for Active; 'I' for Inactive)
REMARK    1  A    between atoms: N_2  and  C_18
REMARK    2  A    between atoms: C_7  and  C_12
REMARK    3  A    between atoms: C_18  and  C_19
REMARK    4  A    between atoms: C_19  and  C_26
REMARK    5  A    between atoms: C_22  and  C_29
REMARK                            x       y       z     vdW  Elec       q    Type
REMARK                         _______ _______ _______ _____ _____    ______ ____
ROOT
ATOM      1  O   UNL     1      31.802 -22.319 -18.046  0.00  0.00    -0.267 OA
ATOM      2  N   UNL     1      33.990 -22.103 -17.269  0.00  0.00    -0.265 N 
ATOM      3  N   UNL     1      33.027 -23.218 -14.862  0.00  0.00    -0.400 NA
ATOM      4  C   UNL     1      34.894 -22.370 -16.204  0.00  0.00    +0.150 C 
ATOM      5  C   UNL     1      32.639 -22.422 -17.156  0.00  0.00    +0.279 C 
ATOM      6  C   UNL     1      34.387 -22.940 -15.031  0.00  0.00    +0.131 C 
ATOM      7  C   UNL     1      32.190 -22.967 -15.817  0.00  0.00    +0.184 C 
ATOM      8  C   UNL     1      36.268 -22.096 -16.294  0.00  0.00    +0.000 C 
ATOM      9  C   UNL     1      35.255 -23.230 -13.969  0.00  0.00    +0.030 C 
ATOM     10  C   UNL     1      37.124 -22.389 -15.230  0.00  0.00    -0.002 C 
ATOM     11  C   UNL     1      36.618 -22.957 -14.067  0.00  0.00    +0.002 C 
ENDROOT
BRANCH   7  12
ATOM     12  C   UNL     1      30.752 -23.235 -15.580  0.00  0.00    +0.034 C 
ATOM     13  C   UNL     1      29.789 -22.367 -16.093  0.00  0.00    +0.003 C 
ATOM     14  C   UNL     1      30.363 -24.354 -14.846  0.00  0.00    +0.003 C 
ATOM     15  C   UNL     1      28.434 -22.619 -15.872  0.00  0.00    +0.000 C 
ATOM     16  C   UNL     1      29.009 -24.607 -14.624  0.00  0.00    +0.000 C 
ATOM     17  C   UNL     1      28.045 -23.739 -15.137  0.00  0.00    +0.000 C 
ENDBRANCH   7  12
BRANCH   2  18
ATOM     18  C   UNL     1      34.490 -21.531 -18.514  0.00  0.00    +0.104 C 
BRANCH  18  19
ATOM     19  C   UNL     1      33.472 -21.615 -19.632  0.00  0.00    +0.107 C 
BRANCH  19  26
ATOM     20  O   UNL     1      32.179 -19.816 -20.505  0.00  0.00    -0.275 OA
ATOM     21  N   UNL     1      34.482 -19.607 -20.607  0.00  0.00    -0.273 N 
ATOM     22  C   UNL     1      34.503 -18.234 -21.091  0.00  0.00    +0.152 C 
ATOM     23  C   UNL     1      35.939 -17.770 -20.875  0.00  0.00    +0.031 C 
ATOM     24  C   UNL     1      36.749 -19.059 -20.987  0.00  0.00    +0.024 C 
ATOM     25  C   UNL     1      35.835 -20.101 -20.362  0.00  0.00    +0.094 C 
ATOM     26  C   UNL     1      33.304 -20.265 -20.283  0.00  0.00    +0.228 C 
BRANCH  22  29
ATOM     27  O   UNL     1      33.960 -19.350 -23.115  0.00  0.00    -0.273 OA
ATOM     28  N   UNL     1      34.045 -17.042 -23.169  0.00  0.00    -0.278 N 
ATOM     29  C   UNL     1      34.142 -18.272 -22.546  0.00  0.00    +0.244 C 
ATOM     30  C   UNL     1      33.709 -16.909 -24.579  0.00  0.00    +0.094 C 
ATOM     31  C   UNL     1      34.244 -15.734 -22.553  0.00  0.00    +0.094 C 
ATOM     32  C   UNL     1      33.391 -15.433 -24.758  0.00  0.00    +0.023 C 
ATOM     33  C   UNL     1      34.293 -14.766 -23.727  0.00  0.00    +0.023 C 
ENDBRANCH  22  29
ENDBRANCH  19  26
ENDBRANCH  18  19
ENDBRANCH   2  18
TORSDOF 5
ENDMDL
MODEL 4
REMARK VINA RESULT:     -12.0      5.905     10.414
REMARK  Name = 25155578
REMARK  5 active torsions:
REMARK  status: ('A' for Active; 'I' for Inactive)
REMARK    1  A    between atoms: N_2  and  C_18
REMARK    2  A    between atoms: C_7  and  C_12
REMARK    3  A    between atoms: C_18  and  C_19
REMARK    4  A    between atoms: C_19  and  C_26
REMARK    5  A    between atoms: C_22  and  C_29
REMARK                            x       y       z     vdW  Elec       q    Type
REMARK                         _______ _______ _______ _____ _____    ______ ____
ROOT
ATOM      1  O   UNL     1      34.054 -15.454 -19.818  0.00  0.00    -0.267 OA
ATOM      2  N   UNL     1      33.617 -14.086 -21.656  0.00  0.00    -0.265 N 
ATOM      3  N   UNL     1      34.099 -16.385 -23.221  0.00  0.00    -0.400 NA
ATOM      4  C   UNL     1      33.450 -14.026 -23.066  0.00  0.00    +0.150 C 
ATOM      5  C   UNL     1      33.978 -15.276 -21.029  0.00  0.00    +0.279 C 
ATOM      6  C   UNL     1      33.679 -15.188 -23.811  0.00  0.00    +0.131 C 
ATOM      7  C   UNL     1      34.269 -16.450 -21.940  0.00  0.00    +0.184 C 
ATOM      8  C   UNL     1      33.053 -12.854 -23.730  0.00  0.00    +0.000 C 
ATOM      9  C   UNL     1      33.507 -15.166 -25.203  0.00  0.00    +0.030 C 
ATOM     10  C   UNL     1      32.886 -12.843 -25.117  0.00  0.00    -0.002 C 
ATOM     11  C   UNL     1      33.112 -13.999 -25.853  0.00  0.00    +0.002 C 
ENDROOT
BRANCH   7  12
ATOM     12  C   UNL     1      34.757 -17.723 -21.360  0.00  0.00    +0.034 C 
ATOM     13  C   UNL     1      33.846 -18.709 -20.981  0.00  0.00    +0.003 C 
ATOM     14  C   UNL     1      36.124 -17.935 -21.193  0.00  0.00    +0.003 C 
ATOM     15  C   UNL     1      34.304 -19.909 -20.435  0.00  0.00    +0.000 C 
ATOM     16  C   UNL     1      36.583 -19.135 -20.647  0.00  0.00    +0.000 C 
ATOM     17  C   UNL     1      35.672 -20.121 -20.268  0.00  0.00    +0.000 C 
ENDBRANCH   7  12
BRANCH   2  18
ATOM     18  C   UNL     1      33.364 -12.899 -20.847  0.00  0.00    +0.104 C 
BRANCH  18  19
ATOM     19  C   UNL     1      31.890 -12.698 -20.570  0.00  0.00    +0.107 C 
BRANCH  19  26
ATOM     20  O   UNL     1      30.894 -11.642 -22.456  0.00  0.00    -0.275 OA
ATOM     21  N   UNL     1      31.501 -10.283 -20.684  0.00  0.00    -0.273 N 
ATOM     22  C   UNL     1      30.913  -9.056 -21.205  0.00  0.00    +0.152 C 
ATOM     23  C   UNL     1      30.877  -8.107 -20.013  0.00  0.00    +0.031 C 
ATOM     24  C   UNL     1      32.057  -8.564 -19.160  0.00  0.00    +0.024 C 
ATOM     25  C   UNL     1      32.065 -10.072 -19.352  0.00  0.00    +0.094 C 
ATOM     26  C   UNL     1      31.376 -11.502 -21.332  0.00  0.00    +0.228 C 
BRANCH  22  29
ATOM     27  O   UNL     1      32.858  -9.163 -22.562  0.00  0.00    -0.273 OA
ATOM     28  N   UNL     1      31.412  -7.397 -22.921  0.00  0.00    -0.278 N 
ATOM     29  C   UNL     1      31.821  -8.557 -22.288  0.00  0.00    +0.244 C 
ATOM     30  C   UNL     1      32.186  -6.781 -23.990  0.00  0.00    +0.094 C 
ATOM     31  C   UNL     1      30.198  -6.635 -22.648  0.00  0.00    +0.094 C 
ATOM     32  C   UNL     1      31.242  -5.759 -24.603  0.00  0.00    +0.023 C 
ATOM     33  C   UNL     1      30.386  -5.334 -23.416  0.00  0.00    +0.023 C 
ENDBRANCH  22  29
ENDBRANCH  19  26
ENDBRANCH  18  19
ENDBRANCH   2  18
TORSDOF 5
ENDMDL
MODEL 5
REMARK VINA RESULT:     -11.8      1.752      4.655
REMARK  Name = 25155578
REMARK  5 active torsions:
REMARK  status: ('A' for Active; 'I' for Inactive)
REMARK    1  A    between atoms: N_2  and  C_18
REMARK    2  A    between atoms: C_7  and  C_12
REMARK    3  A    between atoms: C_18  and  C_19
REMARK    4  A    between atoms: C_19  and  C_26
REMARK    5  A    between atoms: C_22  and  C_29
REMARK                            x       y       z     vdW  Elec       q    Type
REMARK                         _______ _______ _______ _____ _____    ______ ____
ROOT
ATOM      1  O   UNL     1      31.667 -21.902 -18.473  0.00  0.00    -0.267 OA
ATOM      2  N   UNL     1      33.931 -21.521 -18.066  0.00  0.00    -0.265 N 
ATOM      3  N   UNL     1      33.519 -22.908 -15.644  0.00  0.00    -0.400 NA
ATOM      4  C   UNL     1      35.032 -21.773 -17.202  0.00  0.00    +0.150 C 
ATOM      5  C   UNL     1      32.656 -21.985 -17.753  0.00  0.00    +0.279 C 
ATOM      6  C   UNL     1      34.796 -22.479 -16.017  0.00  0.00    +0.131 C 
ATOM      7  C   UNL     1      32.505 -22.673 -16.414  0.00  0.00    +0.184 C 
ATOM      8  C   UNL     1      36.338 -21.353 -17.501  0.00  0.00    +0.000 C 
ATOM      9  C   UNL     1      35.864 -22.757 -15.151  0.00  0.00    +0.030 C 
ATOM     10  C   UNL     1      37.394 -21.635 -16.630  0.00  0.00    -0.002 C 
ATOM     11  C   UNL     1      37.156 -22.338 -15.456  0.00  0.00    +0.002 C 
ENDROOT
BRANCH   7  12
ATOM     12  C   UNL     1      31.163 -23.105 -15.960  0.00  0.00    +0.034 C 
ATOM     13  C   UNL     1      30.030 -22.400 -16.365  0.00  0.00    +0.003 C 
ATOM     14  C   UNL     1      31.032 -24.217 -15.128  0.00  0.00    +0.003 C 
ATOM     15  C   UNL     1      28.765 -22.807 -15.939  0.00  0.00    +0.000 C 
ATOM     16  C   UNL     1      29.767 -24.624 -14.702  0.00  0.00    +0.000 C 
ATOM     17  C   UNL     1      28.634 -23.918 -15.107  0.00  0.00    +0.000 C 
ENDBRANCH   7  12
BRANCH   2  18
ATOM     18  C   UNL     1      34.147 -20.808 -19.320  0.00  0.00    +0.104 C 
BRANCH  18  19
ATOM     19  C   UNL     1      35.615 -20.695 -19.670  0.00  0.00    +0.107 C 
BRANCH  19  26
ATOM     20  O   UNL     1      36.781 -18.623 -19.795  0.00  0.00    -0.275 OA
ATOM     21  N   UNL     1      35.115 -18.992 -21.358  0.00  0.00    -0.273 N 
ATOM     22  C   UNL     1      35.366 -17.798 -22.154  0.00  0.00    +0.152 C 
ATOM     23  C   UNL     1      34.612 -18.036 -23.458  0.00  0.00    +0.031 C 
ATOM     24  C   UNL     1      33.452 -18.936 -23.038  0.00  0.00    +0.024 C 
ATOM     25  C   UNL     1      34.064 -19.813 -21.956  0.00  0.00    +0.094 C 
ATOM     26  C   UNL     1      35.903 -19.342 -20.272  0.00  0.00    +0.228 C 
BRANCH  22  29
ATOM     27  O   UNL     1      34.746 -16.665 -20.162  0.00  0.00    -0.273 OA
ATOM     28  N   UNL     1      34.378 -15.568 -22.162  0.00  0.00    -0.278 N 
ATOM     29  C   UNL     1      34.808 -16.634 -21.392  0.00  0.00    +0.244 C 
ATOM     30  C   UNL     1      33.806 -14.366 -21.574  0.00  0.00    +0.094 C 
ATOM     31  C   UNL     1      34.426 -15.468 -23.617  0.00  0.00    +0.094 C 
ATOM     32  C   UNL     1      33.784 -13.358 -22.713  0.00  0.00    +0.023 C 
ATOM     33  C   UNL     1      33.587 -14.239 -23.940  0.00  0.00    +0.023 C 
ENDBRANCH  22  29
ENDBRANCH  19  26
ENDBRANCH  18  19
ENDBRANCH   2  18
TORSDOF 5
ENDMDL
MODEL 6
REMARK VINA RESULT:     -11.6      2.652      8.301
REMARK  Name = 25155578
REMARK  5 active torsions:
REMARK  status: ('A' for Active; 'I' for Inactive)
REMARK    1  A    between atoms: N_2  and  C_18
REMARK    2  A    between atoms: C_7  and  C_12
REMARK    3  A    between atoms: C_18  and  C_19
REMARK    4  A    between atoms: C_19  and  C_26
REMARK    5  A    between atoms: C_22  and  C_29
REMARK                            x       y       z     vdW  Elec       q    Type
REMARK                         _______ _______ _______ _____ _____    ______ ____
ROOT
ATOM      1  O   UNL     1      32.971 -21.194 -19.471  0.00  0.00    -0.267 OA
ATOM      2  N   UNL     1      34.047 -22.195 -17.661  0.00  0.00    -0.265 N 
ATOM      3  N   UNL     1      36.263 -20.592 -18.356  0.00  0.00    -0.400 NA
ATOM      4  C   UNL     1      35.217 -22.221 -16.853  0.00  0.00    +0.150 C 
ATOM      5  C   UNL     1      33.964 -21.358 -18.771  0.00  0.00    +0.279 C 
ATOM      6  C   UNL     1      36.291 -21.400 -17.216  0.00  0.00    +0.131 C 
ATOM      7  C   UNL     1      35.211 -20.569 -19.109  0.00  0.00    +0.184 C 
ATOM      8  C   UNL     1      35.325 -23.024 -15.707  0.00  0.00    +0.000 C 
ATOM      9  C   UNL     1      37.453 -21.391 -16.430  0.00  0.00    +0.030 C 
ATOM     10  C   UNL     1      36.488 -23.008 -14.932  0.00  0.00    -0.002 C 
ATOM     11  C   UNL     1      37.551 -22.190 -15.294  0.00  0.00    +0.002 C 
ENDROOT
BRANCH   7  12
ATOM     12  C   UNL     1      35.239 -19.733 -20.332  0.00  0.00    +0.034 C 
ATOM     13  C   UNL     1      36.351 -18.937 -20.605  0.00  0.00    +0.003 C 
ATOM     14  C   UNL     1      34.155 -19.742 -21.209  0.00  0.00    +0.003 C 
ATOM     15  C   UNL     1      36.379 -18.150 -21.757  0.00  0.00    +0.000 C 
ATOM     16  C   UNL     1      34.183 -18.955 -22.361  0.00  0.00    +0.000 C 
ATOM     17  C   UNL     1      35.294 -18.159 -22.634  0.00  0.00    +0.000 C 
ENDBRANCH   7  12
BRANCH   2  18
ATOM     18  C   UNL     1      32.901 -23.020 -17.298  0.00  0.00    +0.104 C 
BRANCH  18  19
ATOM     19  C   UNL     1      32.085 -22.408 -16.179  0.00  0.00    +0.107 C 
BRANCH  19  26
ATOM     20  O   UNL     1      30.054 -22.055 -17.369  0.00  0.00    -0.275 OA
ATOM     21  N   UNL     1      29.974 -23.473 -15.542  0.00  0.00    -0.273 N 
ATOM     22  C   UNL     1      28.599 -23.915 -15.734  0.00  0.00    +0.152 C 
ATOM     23  C   UNL     1      28.460 -25.145 -14.844  0.00  0.00    +0.031 C 
ATOM     24  C   UNL     1      29.453 -24.880 -13.715  0.00  0.00    +0.024 C 
ATOM     25  C   UNL     1      30.598 -24.167 -14.418  0.00  0.00    +0.094 C 
ATOM     26  C   UNL     1      30.614 -22.623 -16.431  0.00  0.00    +0.228 C 
BRANCH  22  29
ATOM     27  O   UNL     1      27.710 -22.434 -14.105  0.00  0.00    -0.273 OA
ATOM     28  N   UNL     1      26.911 -22.236 -16.264  0.00  0.00    -0.278 N 
ATOM     29  C   UNL     1      27.709 -22.796 -15.282  0.00  0.00    +0.244 C 
ATOM     30  C   UNL     1      25.988 -21.146 -15.986  0.00  0.00    +0.094 C 
ATOM     31  C   UNL     1      26.864 -22.616 -17.672  0.00  0.00    +0.094 C 
ATOM     32  C   UNL     1      25.578 -20.634 -17.358  0.00  0.00    +0.023 C 
ATOM     33  C   UNL     1      25.644 -21.888 -18.220  0.00  0.00    +0.023 C 
ENDBRANCH  22  29
ENDBRANCH  19  26
ENDBRANCH  18  19
ENDBRANCH   2  18
TORSDOF 5
ENDMDL
MODEL 7
REMARK VINA RESULT:     -11.3      8.628     15.852
REMARK  Name = 25155578
REMARK  5 active torsions:
REMARK  status: ('A' for Active; 'I' for Inactive)
REMARK    1  A    between atoms: N_2  and  C_18
REMARK    2  A    between atoms: C_7  and  C_12
REMARK    3  A    between atoms: C_18  and  C_19
REMARK    4  A    between atoms: C_19  and  C_26
REMARK    5  A    between atoms: C_22  and  C_29
REMARK                            x       y       z     vdW  Elec       q    Type
REMARK                         _______ _______ _______ _____ _____    ______ ____
ROOT
ATOM      1  O   UNL     1      34.246  -7.427 -24.752  0.00  0.00    -0.267 OA
ATOM      2  N   UNL     1      32.774  -6.796 -23.057  0.00  0.00    -0.265 N 
ATOM      3  N   UNL     1      32.551  -4.348 -24.443  0.00  0.00    -0.400 NA
ATOM      4  C   UNL     1      31.875  -5.799 -22.588  0.00  0.00    +0.150 C 
ATOM      5  C   UNL     1      33.520  -6.597 -24.216  0.00  0.00    +0.279 C 
ATOM      6  C   UNL     1      31.776  -4.604 -23.308  0.00  0.00    +0.131 C 
ATOM      7  C   UNL     1      33.385  -5.241 -24.873  0.00  0.00    +0.184 C 
ATOM      8  C   UNL     1      31.081  -5.978 -21.443  0.00  0.00    +0.000 C 
ATOM      9  C   UNL     1      30.886  -3.608 -22.881  0.00  0.00    +0.030 C 
ATOM     10  C   UNL     1      30.199  -4.978 -21.026  0.00  0.00    -0.002 C 
ATOM     11  C   UNL     1      30.101  -3.793 -21.745  0.00  0.00    +0.002 C 
ENDROOT
BRANCH   7  12
ATOM     12  C   UNL     1      34.219  -4.912 -26.053  0.00  0.00    +0.034 C 
ATOM     13  C   UNL     1      33.740  -5.167 -27.337  0.00  0.00    +0.003 C 
ATOM     14  C   UNL     1      35.482  -4.349 -25.878  0.00  0.00    +0.003 C 
ATOM     15  C   UNL     1      34.525  -4.857 -28.449  0.00  0.00    +0.000 C 
ATOM     16  C   UNL     1      36.268  -4.039 -26.989  0.00  0.00    +0.000 C 
ATOM     17  C   UNL     1      35.789  -4.294 -28.274  0.00  0.00    +0.000 C 
ENDBRANCH   7  12
BRANCH   2  18
ATOM     18  C   UNL     1      32.886  -8.063 -22.341  0.00  0.00    +0.104 C 
BRANCH  18  19
ATOM     19  C   UNL     1      32.070  -9.160 -22.990  0.00  0.00    +0.107 C 
BRANCH  19  26
ATOM     20  O   UNL     1      33.792 -10.461 -23.994  0.00  0.00    -0.275 OA
ATOM     21  N   UNL     1      32.588 -11.447 -22.281  0.00  0.00    -0.273 N 
ATOM     22  C   UNL     1      33.395 -12.655 -22.184  0.00  0.00    +0.152 C 
ATOM     23  C   UNL     1      32.993 -13.284 -20.854  0.00  0.00    +0.031 C 
ATOM     24  C   UNL     1      31.548 -12.828 -20.669  0.00  0.00    +0.024 C 
ATOM     25  C   UNL     1      31.546 -11.425 -21.257  0.00  0.00    +0.094 C 
ATOM     26  C   UNL     1      32.904 -10.407 -23.142  0.00  0.00    +0.228 C 
BRANCH  22  29
ATOM     27  O   UNL     1      32.282 -13.103 -24.232  0.00  0.00    -0.273 OA
ATOM     28  N   UNL     1      33.567 -14.800 -23.333  0.00  0.00    -0.278 N 
ATOM     29  C   UNL     1      33.026 -13.527 -23.346  0.00  0.00    +0.244 C 
ATOM     30  C   UNL     1      33.300 -15.769 -24.386  0.00  0.00    +0.094 C 
ATOM     31  C   UNL     1      34.455 -15.360 -22.319  0.00  0.00    +0.094 C 
ATOM     32  C   UNL     1      34.321 -16.872 -24.156  0.00  0.00    +0.023 C 
ATOM     33  C   UNL     1      34.512 -16.846 -22.645  0.00  0.00    +0.023 C 
ENDBRANCH  22  29
ENDBRANCH  19  26
ENDBRANCH  18  19
ENDBRANCH   2  18
TORSDOF 5
ENDMDL
MODEL 8
REMARK VINA RESULT:     -11.0      3.480      9.079
REMARK  Name = 25155578
REMARK  5 active torsions:
REMARK  status: ('A' for Active; 'I' for Inactive)
REMARK    1  A    between atoms: N_2  and  C_18
REMARK    2  A    between atoms: C_7  and  C_12
REMARK    3  A    between atoms: C_18  and  C_19
REMARK    4  A    between atoms: C_19  and  C_26
REMARK    5  A    between atoms: C_22  and  C_29
REMARK                            x       y       z     vdW  Elec       q    Type
REMARK                         _______ _______ _______ _____ _____    ______ ____
ROOT
ATOM      1  O   UNL     1      32.547 -23.308 -15.017  0.00  0.00    -0.267 OA
ATOM      2  N   UNL     1      33.802 -22.425 -16.773  0.00  0.00    -0.265 N 
ATOM      3  N   UNL     1      31.321 -21.755 -17.938  0.00  0.00    -0.400 NA
ATOM      4  C   UNL     1      33.771 -21.703 -17.997  0.00  0.00    +0.150 C 
ATOM      5  C   UNL     1      32.624 -22.773 -16.117  0.00  0.00    +0.279 C 
ATOM      6  C   UNL     1      32.524 -21.371 -18.539  0.00  0.00    +0.131 C 
ATOM      7  C   UNL     1      31.335 -22.425 -16.830  0.00  0.00    +0.184 C 
ATOM      8  C   UNL     1      34.938 -21.305 -18.669  0.00  0.00    +0.000 C 
ATOM      9  C   UNL     1      32.459 -20.646 -19.738  0.00  0.00    +0.030 C 
ATOM     10  C   UNL     1      34.861 -20.583 -19.863  0.00  0.00    -0.002 C 
ATOM     11  C   UNL     1      33.621 -20.253 -20.397  0.00  0.00    +0.002 C 
ENDROOT
BRANCH   7  12
ATOM     12  C   UNL     1      30.039 -22.850 -16.250  0.00  0.00    +0.034 C 
ATOM     13  C   UNL     1      29.955 -24.047 -15.539  0.00  0.00    +0.003 C 
ATOM     14  C   UNL     1      28.907 -22.054 -16.415  0.00  0.00    +0.003 C 
ATOM     15  C   UNL     1      28.735 -24.447 -14.991  0.00  0.00    +0.000 C 
ATOM     16  C   UNL     1      27.687 -22.455 -15.867  0.00  0.00    +0.000 C 
ATOM     17  C   UNL     1      27.602 -23.651 -15.156  0.00  0.00    +0.000 C 
ENDBRANCH   7  12
BRANCH   2  18
ATOM     18  C   UNL     1      35.086 -22.767 -16.169  0.00  0.00    +0.104 C 
BRANCH  18  19
ATOM     19  C   UNL     1      35.330 -22.016 -14.878  0.00  0.00    +0.107 C 
BRANCH  19  26
ATOM     20  O   UNL     1      37.584 -22.707 -14.548  0.00  0.00    -0.275 OA
ATOM     21  N   UNL     1      36.067 -23.226 -12.880  0.00  0.00    -0.273 N 
ATOM     22  C   UNL     1      37.037 -23.754 -11.930  0.00  0.00    +0.152 C 
ATOM     23  C   UNL     1      36.287 -23.814 -10.604  0.00  0.00    +0.031 C 
ATOM     24  C   UNL     1      34.836 -24.024 -11.026  0.00  0.00    +0.024 C 
ATOM     25  C   UNL     1      34.723 -23.209 -12.306  0.00  0.00    +0.094 C 
ATOM     26  C   UNL     1      36.439 -22.674 -14.096  0.00  0.00    +0.228 C 
BRANCH  22  29
ATOM     27  O   UNL     1      36.747 -26.102 -12.120  0.00  0.00    -0.273 OA
ATOM     28  N   UNL     1      38.581 -25.173 -13.174  0.00  0.00    -0.278 N 
ATOM     29  C   UNL     1      37.429 -25.118 -12.412  0.00  0.00    +0.244 C 
ATOM     30  C   UNL     1      39.099 -26.423 -13.711  0.00  0.00    +0.094 C 
ATOM     31  C   UNL     1      39.429 -24.049 -13.556  0.00  0.00    +0.094 C 
ATOM     32  C   UNL     1      40.149 -25.997 -14.725  0.00  0.00    +0.023 C 
ATOM     33  C   UNL     1      40.679 -24.697 -14.136  0.00  0.00    +0.023 C 
ENDBRANCH  22  29
ENDBRANCH  19  26
ENDBRANCH  18  19
ENDBRANCH   2  18
TORSDOF 5
ENDMDL
MODEL 9
REMARK VINA RESULT:     -10.6      8.286     15.178
REMARK  Name = 25155578
REMARK  5 active torsions:
REMARK  status: ('A' for Active; 'I' for Inactive)
REMARK    1  A    between atoms: N_2  and  C_18
REMARK    2  A    between atoms: C_7  and  C_12
REMARK    3  A    between atoms: C_18  and  C_19
REMARK    4  A    between atoms: C_19  and  C_26
REMARK    5  A    between atoms: C_22  and  C_29
REMARK                            x       y       z     vdW  Elec       q    Type
REMARK                         _______ _______ _______ _____ _____    ______ ____
ROOT
ATOM      1  O   UNL     1      32.214  -6.900 -25.356  0.00  0.00    -0.267 OA
ATOM      2  N   UNL     1      31.896  -7.703 -23.190  0.00  0.00    -0.265 N 
ATOM      3  N   UNL     1      32.551  -5.091 -22.345  0.00  0.00    -0.400 NA
ATOM      4  C   UNL     1      31.841  -7.375 -21.807  0.00  0.00    +0.150 C 
ATOM      5  C   UNL     1      32.231  -6.742 -24.140  0.00  0.00    +0.279 C 
ATOM      6  C   UNL     1      32.154  -6.066 -21.424  0.00  0.00    +0.131 C 
ATOM      7  C   UNL     1      32.619  -5.380 -23.605  0.00  0.00    +0.184 C 
ATOM      8  C   UNL     1      31.474  -8.307 -20.824  0.00  0.00    +0.000 C 
ATOM      9  C   UNL     1      32.094  -5.706 -20.070  0.00  0.00    +0.030 C 
ATOM     10  C   UNL     1      31.417  -7.938 -19.478  0.00  0.00    -0.002 C 
ATOM     11  C   UNL     1      31.727  -6.637 -19.101  0.00  0.00    +0.002 C 
ENDROOT
BRANCH   7  12
ATOM     12  C   UNL     1      33.086  -4.332 -24.542  0.00  0.00    +0.034 C 
ATOM     13  C   UNL     1      32.312  -3.190 -24.752  0.00  0.00    +0.003 C 
ATOM     14  C   UNL     1      34.298  -4.486 -25.214  0.00  0.00    +0.003 C 
ATOM     15  C   UNL     1      32.751  -2.202 -25.633  0.00  0.00    +0.000 C 
ATOM     16  C   UNL     1      34.738  -3.498 -26.096  0.00  0.00    +0.000 C 
ATOM     17  C   UNL     1      33.964  -2.356 -26.305  0.00  0.00    +0.000 C 
ENDBRANCH   7  12
BRANCH   2  18
ATOM     18  C   UNL     1      31.553  -9.052 -23.625  0.00  0.00    +0.104 C 
BRANCH  18  19
ATOM     19  C   UNL     1      31.628 -10.056 -22.495  0.00  0.00    +0.107 C 
BRANCH  19  26
ATOM     20  O   UNL     1      33.424 -10.972 -23.761  0.00  0.00    -0.275 OA
ATOM     21  N   UNL     1      32.665 -12.210 -21.959  0.00  0.00    -0.273 N 
ATOM     22  C   UNL     1      33.695 -13.238 -22.016  0.00  0.00    +0.152 C 
ATOM     23  C   UNL     1      33.597 -13.960 -20.677  0.00  0.00    +0.031 C 
ATOM     24  C   UNL     1      32.127 -13.801 -20.296  0.00  0.00    +0.024 C 
ATOM     25  C   UNL     1      31.779 -12.414 -20.814  0.00  0.00    +0.094 C 
ATOM     26  C   UNL     1      32.661 -11.111 -22.805  0.00  0.00    +0.228 C 
BRANCH  22  29
ATOM     27  O   UNL     1      32.671 -13.727 -24.102  0.00  0.00    -0.273 OA
ATOM     28  N   UNL     1      33.845 -15.431 -23.074  0.00  0.00    -0.278 N 
ATOM     29  C   UNL     1      33.353 -14.141 -23.163  0.00  0.00    +0.244 C 
ATOM     30  C   UNL     1      33.597 -16.430 -24.102  0.00  0.00    +0.094 C 
ATOM     31  C   UNL     1      34.659 -15.981 -21.995  0.00  0.00    +0.094 C 
ATOM     32  C   UNL     1      34.563 -17.559 -23.779  0.00  0.00    +0.023 C 
ATOM     33  C   UNL     1      34.679 -17.480 -22.262  0.00  0.00    +0.023 C 
ENDBRANCH  22  29
ENDBRANCH  19  26
ENDBRANCH  18  19
ENDBRANCH   2  18
TORSDOF 5
ENDMDL
