MODEL 1
REMARK VINA RESULT:     -12.3      0.000      0.000
REMARK  Name = 448642
REMARK  5 active torsions:
REMARK  status: ('A' for Active; 'I' for Inactive)
REMARK    1  A    between atoms: N_1  and  C_28
REMARK    2  A    between atoms: C_4  and  C_13
REMARK    3  A    between atoms: C_14  and  C_19
REMARK    4  A    between atoms: C_28  and  C_29
REMARK    5  A    between atoms: C_29  and  C_31
REMARK                            x       y       z     vdW  Elec       q    Type
REMARK                         _______ _______ _______ _____ _____    ______ ____
ROOT
ATOM      1  N   UNL     1      34.003 -21.945 -18.474  0.00  0.00    -0.286 N 
ATOM      2  C   UNL     1      35.062 -21.675 -17.648  0.00  0.00    +0.052 C 
ATOM      3  C   UNL     1      32.978 -22.517 -17.784  0.00  0.00    +0.066 C 
ATOM      4  C   UNL     1      33.373 -22.627 -16.471  0.00  0.00    +0.021 C 
ATOM      5  C   UNL     1      34.690 -22.099 -16.370  0.00  0.00    +0.015 C 
ATOM      6  C   UNL     1      36.307 -21.097 -17.921  0.00  0.00    +0.015 C 
ATOM      7  C   UNL     1      35.606 -21.938 -15.310  0.00  0.00    +0.001 C 
ATOM      8  C   UNL     1      37.198 -20.949 -16.853  0.00  0.00    +0.001 C 
ATOM      9  C   UNL     1      36.855 -21.362 -15.568  0.00  0.00    +0.000 C 
ENDROOT
BRANCH   4  13
ATOM     10  O   UNL     1      30.450 -22.235 -16.083  0.00  0.00    -0.270 OA
ATOM     11  O   UNL     1      31.656 -24.940 -12.593  0.00  0.00    -0.270 OA
ATOM     12  N   UNL     1      30.680 -23.592 -14.213  0.00  0.00    -0.248 N 
ATOM     13  C   UNL     1      32.567 -23.183 -15.429  0.00  0.00    +0.059 C 
ATOM     14  C   UNL     1      32.923 -23.968 -14.396  0.00  0.00    +0.059 C 
ATOM     15  C   UNL     1      31.107 -22.924 -15.322  0.00  0.00    +0.252 C 
ATOM     16  C   UNL     1      31.704 -24.247 -13.595  0.00  0.00    +0.252 C 
ATOM     17  H   UNL     1      29.747 -23.599 -13.896  0.00  0.00    +0.158 HD
BRANCH  14  19
ATOM     18  N   UNL     1      36.050 -25.740 -14.170  0.00  0.00    -0.312 N 
ATOM     19  C   UNL     1      34.205 -24.505 -14.062  0.00  0.00    +0.020 C 
ATOM     20  C   UNL     1      35.041 -24.161 -12.960  0.00  0.00    +0.015 C 
ATOM     21  C   UNL     1      34.855 -25.480 -14.786  0.00  0.00    +0.062 C 
ATOM     22  C   UNL     1      36.190 -24.949 -13.052  0.00  0.00    +0.048 C 
ATOM     23  C   UNL     1      34.927 -23.250 -11.891  0.00  0.00    +0.001 C 
ATOM     24  C   UNL     1      37.235 -24.872 -12.125  0.00  0.00    +0.015 C 
ATOM     25  C   UNL     1      35.964 -23.162 -10.955  0.00  0.00    +0.000 C 
ATOM     26  C   UNL     1      37.099 -23.961 -11.073  0.00  0.00    +0.001 C 
ATOM     27  H   UNL     1      36.713 -26.398 -14.482  0.00  0.00    +0.152 HD
ENDBRANCH  14  19
ENDBRANCH   4  13
BRANCH   1  28
ATOM     28  C   UNL     1      33.962 -21.660 -19.905  0.00  0.00    +0.093 C 
BRANCH  28  29
ATOM     29  C   UNL     1      33.811 -20.169 -20.186  0.00  0.00    +0.001 C 
BRANCH  29  31
ATOM     30  N   UNL     1      34.385 -18.549 -22.004  0.00  0.00    +0.387 N 
ATOM     31  C   UNL     1      34.842 -19.691 -21.201  0.00  0.00    -0.057 C 
ATOM     32  C   UNL     1      36.098 -19.143 -20.518  0.00  0.00    -0.023 C 
ATOM     33  C   UNL     1      36.591 -18.019 -21.424  0.00  0.00    -0.025 C 
ATOM     34  C   UNL     1      35.606 -17.981 -22.581  0.00  0.00    -0.077 C 
ATOM     35  C   UNL     1      33.428 -18.918 -23.039  0.00  0.00    -0.101 C 
ATOM     36  H   UNL     1      33.879 -17.880 -21.425  0.00  0.00    -0.080 HD
ENDBRANCH  29  31
ENDBRANCH  28  29
ENDBRANCH   1  28
TORSDOF 5
ENDMDL
MODEL 2
REMARK VINA RESULT:      -9.6     11.544     17.375
REMARK  Name = 448642
REMARK  5 active torsions:
REMARK  status: ('A' for Active; 'I' for Inactive)
REMARK    1  A    between atoms: N_1  and  C_28
REMARK    2  A    between atoms: C_4  and  C_13
REMARK    3  A    between atoms: C_14  and  C_19
REMARK    4  A    between atoms: C_28  and  C_29
REMARK    5  A    between atoms: C_29  and  C_31
REMARK                            x       y       z     vdW  Elec       q    Type
REMARK                         _______ _______ _______ _____ _____    ______ ____
ROOT
ATOM      1  N   UNL     1      31.942  -9.691 -22.755  0.00  0.00    -0.286 N 
ATOM      2  C   UNL     1      31.720  -9.790 -21.406  0.00  0.00    +0.052 C 
ATOM      3  C   UNL     1      31.971  -8.388 -23.151  0.00  0.00    +0.066 C 
ATOM      4  C   UNL     1      31.761  -7.611 -22.035  0.00  0.00    +0.021 C 
ATOM      5  C   UNL     1      31.601  -8.485 -20.923  0.00  0.00    +0.015 C 
ATOM      6  C   UNL     1      31.615 -10.915 -20.581  0.00  0.00    +0.015 C 
ATOM      7  C   UNL     1      31.365  -8.291 -19.546  0.00  0.00    +0.001 C 
ATOM      8  C   UNL     1      31.381 -10.698 -19.219  0.00  0.00    +0.001 C 
ATOM      9  C   UNL     1      31.258  -9.407 -18.709  0.00  0.00    +0.000 C 
ENDROOT
BRANCH   4  13
ATOM     10  O   UNL     1      31.386  -5.832 -19.681  0.00  0.00    -0.270 OA
ATOM     11  O   UNL     1      31.748  -2.922 -23.197  0.00  0.00    -0.270 OA
ATOM     12  N   UNL     1      31.524  -4.074 -21.192  0.00  0.00    -0.248 N 
ATOM     13  C   UNL     1      31.721  -6.182 -22.041  0.00  0.00    +0.059 C 
ATOM     14  C   UNL     1      31.815  -5.327 -23.076  0.00  0.00    +0.059 C 
ATOM     15  C   UNL     1      31.526  -5.381 -20.805  0.00  0.00    +0.252 C 
ATOM     16  C   UNL     1      31.692  -3.947 -22.539  0.00  0.00    +0.252 C 
ATOM     17  H   UNL     1      31.413  -3.314 -20.575  0.00  0.00    +0.158 HD
BRANCH  14  19
ATOM     18  N   UNL     1      31.653  -6.335 -26.530  0.00  0.00    -0.312 N 
ATOM     19  C   UNL     1      32.020  -5.598 -24.465  0.00  0.00    +0.020 C 
ATOM     20  C   UNL     1      33.145  -5.256 -25.270  0.00  0.00    +0.015 C 
ATOM     21  C   UNL     1      31.121  -6.262 -25.270  0.00  0.00    +0.062 C 
ATOM     22  C   UNL     1      32.889  -5.729 -26.559  0.00  0.00    +0.048 C 
ATOM     23  C   UNL     1      34.359  -4.585 -25.022  0.00  0.00    +0.001 C 
ATOM     24  C   UNL     1      33.789  -5.564 -27.617  0.00  0.00    +0.015 C 
ATOM     25  C   UNL     1      35.271  -4.413 -26.070  0.00  0.00    +0.000 C 
ATOM     26  C   UNL     1      34.988  -4.896 -27.347  0.00  0.00    +0.001 C 
ATOM     27  H   UNL     1      31.215  -6.760 -27.303  0.00  0.00    +0.152 HD
ENDBRANCH  14  19
ENDBRANCH   4  13
BRANCH   1  28
ATOM     28  C   UNL     1      32.128 -10.820 -23.660  0.00  0.00    +0.093 C 
BRANCH  28  29
ATOM     29  C   UNL     1      33.416 -11.583 -23.364  0.00  0.00    +0.001 C 
BRANCH  29  31
ATOM     30  N   UNL     1      33.738 -13.973 -24.028  0.00  0.00    +0.387 N 
ATOM     31  C   UNL     1      33.132 -13.048 -23.060  0.00  0.00    -0.057 C 
ATOM     32  C   UNL     1      33.762 -13.486 -21.736  0.00  0.00    -0.023 C 
ATOM     33  C   UNL     1      34.158 -14.944 -21.940  0.00  0.00    -0.025 C 
ATOM     34  C   UNL     1      33.730 -15.276 -23.360  0.00  0.00    -0.077 C 
ATOM     35  C   UNL     1      33.029 -14.022 -25.301  0.00  0.00    -0.101 C 
ATOM     36  H   UNL     1      34.677 -13.668 -24.279  0.00  0.00    -0.080 HD
ENDBRANCH  29  31
ENDBRANCH  28  29
ENDBRANCH   1  28
TORSDOF 5
ENDMDL
MODEL 3
REMARK VINA RESULT:      -9.4      2.056      3.740
REMARK  Name = 448642
REMARK  5 active torsions:
REMARK  status: ('A' for Active; 'I' for Inactive)
REMARK    1  A    between atoms: N_1  and  C_28
REMARK    2  A    between atoms: C_4  and  C_13
REMARK    3  A    between atoms: C_14  and  C_19
REMARK    4  A    between atoms: C_28  and  C_29
REMARK    5  A    between atoms: C_29  and  C_31
REMARK                            x       y       z     vdW  Elec       q    Type
REMARK                         _______ _______ _______ _____ _____    ______ ____
ROOT
ATOM      1  N   UNL     1      33.431 -22.829 -16.652  0.00  0.00    -0.286 N 
ATOM      2  C   UNL     1      32.140 -22.768 -16.197  0.00  0.00    +0.052 C 
ATOM      3  C   UNL     1      34.292 -23.131 -15.641  0.00  0.00    +0.066 C 
ATOM      4  C   UNL     1      33.548 -23.270 -14.492  0.00  0.00    +0.021 C 
ATOM      5  C   UNL     1      32.185 -23.043 -14.828  0.00  0.00    +0.015 C 
ATOM      6  C   UNL     1      30.947 -22.493 -16.875  0.00  0.00    +0.015 C 
ATOM      7  C   UNL     1      30.978 -23.046 -14.098  0.00  0.00    +0.001 C 
ATOM      8  C   UNL     1      29.764 -22.501 -16.130  0.00  0.00    +0.001 C 
ATOM      9  C   UNL     1      29.778 -22.773 -14.764  0.00  0.00    +0.000 C 
ENDROOT
BRANCH   4  13
ATOM     10  O   UNL     1      32.511 -22.389 -11.847  0.00  0.00    -0.270 OA
ATOM     11  O   UNL     1      36.191 -24.898 -10.790  0.00  0.00    -0.270 OA
ATOM     12  N   UNL     1      34.286 -23.576 -10.936  0.00  0.00    -0.248 N 
ATOM     13  C   UNL     1      34.095 -23.588 -13.210  0.00  0.00    +0.059 C 
ATOM     14  C   UNL     1      35.184 -24.316 -12.899  0.00  0.00    +0.059 C 
ATOM     15  C   UNL     1      33.500 -23.095 -11.941  0.00  0.00    +0.252 C 
ATOM     16  C   UNL     1      35.321 -24.321 -11.420  0.00  0.00    +0.252 C 
ATOM     17  H   UNL     1      34.127 -23.407  -9.979  0.00  0.00    +0.158 HD
BRANCH  14  19
ATOM     18  N   UNL     1      36.838 -26.398 -15.328  0.00  0.00    -0.312 N 
ATOM     19  C   UNL     1      36.089 -25.012 -13.759  0.00  0.00    +0.020 C 
ATOM     20  C   UNL     1      37.507 -24.891 -13.825  0.00  0.00    +0.015 C 
ATOM     21  C   UNL     1      35.709 -25.948 -14.696  0.00  0.00    +0.062 C 
ATOM     22  C   UNL     1      37.950 -25.769 -14.816  0.00  0.00    +0.048 C 
ATOM     23  C   UNL     1      38.456 -24.112 -13.134  0.00  0.00    +0.001 C 
ATOM     24  C   UNL     1      39.302 -25.909 -15.152  0.00  0.00    +0.015 C 
ATOM     25  C   UNL     1      39.812 -24.242 -13.458  0.00  0.00    +0.000 C 
ATOM     26  C   UNL     1      40.225 -25.127 -14.451  0.00  0.00    +0.001 C 
ATOM     27  H   UNL     1      36.852 -27.074 -16.044  0.00  0.00    +0.152 HD
ENDBRANCH  14  19
ENDBRANCH   4  13
BRANCH   1  28
ATOM     28  C   UNL     1      33.845 -22.606 -18.034  0.00  0.00    +0.093 C 
BRANCH  28  29
ATOM     29  C   UNL     1      34.747 -21.383 -18.170  0.00  0.00    +0.001 C 
BRANCH  29  31
ATOM     30  N   UNL     1      33.755 -19.857 -19.887  0.00  0.00    +0.387 N 
ATOM     31  C   UNL     1      34.776 -20.876 -19.606  0.00  0.00    -0.057 C 
ATOM     32  C   UNL     1      36.081 -20.142 -19.923  0.00  0.00    -0.023 C 
ATOM     33  C   UNL     1      35.697 -19.044 -20.910  0.00  0.00    -0.025 C 
ATOM     34  C   UNL     1      34.201 -19.206 -21.121  0.00  0.00    -0.077 C 
ATOM     35  C   UNL     1      32.413 -20.410 -20.030  0.00  0.00    -0.101 C 
ATOM     36  H   UNL     1      33.673 -19.205 -19.108  0.00  0.00    -0.080 HD
ENDBRANCH  29  31
ENDBRANCH  28  29
ENDBRANCH   1  28
TORSDOF 5
ENDMDL
MODEL 4
REMARK VINA RESULT:      -9.3     13.317     19.155
REMARK  Name = 448642
REMARK  5 active torsions:
REMARK  status: ('A' for Active; 'I' for Inactive)
REMARK    1  A    between atoms: N_1  and  C_28
REMARK    2  A    between atoms: C_4  and  C_13
REMARK    3  A    between atoms: C_14  and  C_19
REMARK    4  A    between atoms: C_28  and  C_29
REMARK    5  A    between atoms: C_29  and  C_31
REMARK                            x       y       z     vdW  Elec       q    Type
REMARK                         _______ _______ _______ _____ _____    ______ ____
ROOT
ATOM      1  N   UNL     1      30.889  -7.650 -22.648  0.00  0.00    -0.286 N 
ATOM      2  C   UNL     1      31.398  -7.087 -21.507  0.00  0.00    +0.052 C 
ATOM      3  C   UNL     1      30.640  -6.701 -23.592  0.00  0.00    +0.066 C 
ATOM      4  C   UNL     1      30.993  -5.483 -23.058  0.00  0.00    +0.021 C 
ATOM      5  C   UNL     1      31.474  -5.711 -21.739  0.00  0.00    +0.015 C 
ATOM      6  C   UNL     1      31.793  -7.673 -20.299  0.00  0.00    +0.015 C 
ATOM      7  C   UNL     1      31.970  -4.878 -20.715  0.00  0.00    +0.001 C 
ATOM      8  C   UNL     1      32.281  -6.826 -19.299  0.00  0.00    +0.001 C 
ATOM      9  C   UNL     1      32.369  -5.451 -19.502  0.00  0.00    +0.000 C 
ENDROOT
BRANCH   4  13
ATOM     10  O   UNL     1      29.479  -3.086 -22.157  0.00  0.00    -0.270 OA
ATOM     11  O   UNL     1      31.244  -1.807 -26.183  0.00  0.00    -0.270 OA
ATOM     12  N   UNL     1      30.193  -2.093 -24.131  0.00  0.00    -0.248 N 
ATOM     13  C   UNL     1      30.878  -4.235 -23.747  0.00  0.00    +0.059 C 
ATOM     14  C   UNL     1      31.387  -3.863 -24.936  0.00  0.00    +0.059 C 
ATOM     15  C   UNL     1      30.093  -3.093 -23.211  0.00  0.00    +0.252 C 
ATOM     16  C   UNL     1      30.952  -2.467 -25.200  0.00  0.00    +0.252 C 
ATOM     17  H   UNL     1      29.769  -1.209 -24.037  0.00  0.00    +0.158 HD
BRANCH  14  19
ATOM     18  N   UNL     1      32.887  -6.158 -27.271  0.00  0.00    -0.312 N 
ATOM     19  C   UNL     1      32.220  -4.594 -25.839  0.00  0.00    +0.020 C 
ATOM     20  C   UNL     1      33.561  -4.306 -26.226  0.00  0.00    +0.015 C 
ATOM     21  C   UNL     1      31.836  -5.740 -26.499  0.00  0.00    +0.062 C 
ATOM     22  C   UNL     1      33.954  -5.300 -27.124  0.00  0.00    +0.048 C 
ATOM     23  C   UNL     1      34.478  -3.289 -25.896  0.00  0.00    +0.001 C 
ATOM     24  C   UNL     1      35.224  -5.329 -27.711  0.00  0.00    +0.015 C 
ATOM     25  C   UNL     1      35.752  -3.304 -26.474  0.00  0.00    +0.000 C 
ATOM     26  C   UNL     1      36.117  -4.310 -27.368  0.00  0.00    +0.001 C 
ATOM     27  H   UNL     1      32.881  -6.956 -27.848  0.00  0.00    +0.152 HD
ENDBRANCH  14  19
ENDBRANCH   4  13
BRANCH   1  28
ATOM     28  C   UNL     1      30.644  -9.075 -22.842  0.00  0.00    +0.093 C 
BRANCH  28  29
ATOM     29  C   UNL     1      31.938  -9.883 -22.843  0.00  0.00    +0.001 C 
BRANCH  29  31
ATOM     30  N   UNL     1      32.869 -12.185 -22.538  0.00  0.00    +0.387 N 
ATOM     31  C   UNL     1      31.698 -11.312 -22.376  0.00  0.00    -0.057 C 
ATOM     32  C   UNL     1      31.432 -11.381 -20.870  0.00  0.00    -0.023 C 
ATOM     33  C   UNL     1      32.033 -12.706 -20.415  0.00  0.00    -0.025 C 
ATOM     34  C   UNL     1      32.603 -13.337 -21.674  0.00  0.00    -0.077 C 
ATOM     35  C   UNL     1      33.097 -12.594 -23.919  0.00  0.00    -0.101 C 
ATOM     36  H   UNL     1      33.724 -11.692 -22.282  0.00  0.00    -0.080 HD
ENDBRANCH  29  31
ENDBRANCH  28  29
ENDBRANCH   1  28
TORSDOF 5
ENDMDL
