MODEL 1
REMARK VINA RESULT:      -9.8      0.000      0.000
REMARK  Name = 67501411
REMARK  6 active torsions:
REMARK  status: ('A' for Active; 'I' for Inactive)
REMARK    1  A    between atoms: N_1  and  C_10
REMARK    2  A    between atoms: C_5  and  C_34
REMARK    3  A    between atoms: C_7  and  N_23
REMARK    4  A    between atoms: C_11  and  C_21
REMARK    5  A    between atoms: C_14  and  C_18
REMARK    6  A    between atoms: C_27  and  C_30
REMARK                            x       y       z     vdW  Elec       q    Type
REMARK                         _______ _______ _______ _____ _____    ______ ____
ROOT
ATOM      1  N   UNL     1      33.094 -11.656 -23.021  0.00  0.00    -0.213 N 
ATOM      2  N   UNL     1      33.858 -10.722 -23.616  0.00  0.00    -0.168 NA
ATOM      3  N   UNL     1      31.205 -11.833 -21.522  0.00  0.00    -0.225 NA
ATOM      4  C   UNL     1      32.238  -9.760 -22.317  0.00  0.00    +0.064 A 
ATOM      5  C   UNL     1      33.333  -9.570 -23.185  0.00  0.00    +0.083 A 
ATOM      6  C   UNL     1      32.111 -11.137 -22.233  0.00  0.00    +0.166 A 
ATOM      7  C   UNL     1      31.338  -8.971 -21.592  0.00  0.00    +0.055 C 
ATOM      8  C   UNL     1      30.373  -9.636 -20.834  0.00  0.00    +0.035 C 
ATOM      9  C   UNL     1      30.357 -11.027 -20.836  0.00  0.00    +0.102 C 
ENDROOT
BRANCH   1  10
ATOM     10  C   UNL     1      33.348 -13.009 -23.243  0.00  0.00    +0.080 C 
ATOM     11  C   UNL     1      32.995 -13.618 -24.446  0.00  0.00    -0.004 C 
ATOM     12  C   UNL     1      33.964 -13.755 -22.238  0.00  0.00    +0.019 C 
ATOM     13  C   UNL     1      33.258 -14.973 -24.646  0.00  0.00    +0.002 C 
ATOM     14  C   UNL     1      33.875 -15.720 -23.641  0.00  0.00    +0.053 C 
ATOM     15  C   UNL     1      34.228 -15.110 -22.437  0.00  0.00    +0.006 C 
BRANCH  14  18
ATOM     16  O   UNL     1      33.580 -17.779 -24.746  0.00  0.00    -0.270 OA
ATOM     17  N   UNL     1      35.088 -17.738 -23.020  0.00  0.00    -0.325 N 
ATOM     18  C   UNL     1      34.150 -17.132 -23.849  0.00  0.00    +0.243 C 
ATOM     19  H   UNL     1      35.300 -18.693 -23.131  0.00  0.00    +0.145 HD
ATOM     20  H   UNL     1      35.542 -17.212 -22.321  0.00  0.00    +0.145 HD
ENDBRANCH  14  18
BRANCH  11  21
ATOM     21  C   UNL     1      32.333 -12.847 -25.542  0.00  0.00    +0.028 C 
ATOM     22  C   UNL     1      33.133 -12.885 -26.840  0.00  0.00    +0.005 C 
ENDBRANCH  11  21
ENDBRANCH   1  10
BRANCH   7  23
ATOM     23  N   UNL     1      31.380  -7.589 -21.609  0.00  0.00    -0.282 N 
ATOM     24  N   UNL     1      31.912  -5.517 -21.016  0.00  0.00    -0.251 NA
ATOM     25  C   UNL     1      30.742  -6.771 -22.498  0.00  0.00    +0.138 C 
ATOM     26  C   UNL     1      32.070  -6.792 -20.739  0.00  0.00    +0.220 C 
ATOM     27  C   UNL     1      31.085  -5.497 -22.111  0.00  0.00    +0.079 C 
BRANCH  27  30
ATOM     28  N   UNL     1      30.206  -2.600 -24.064  0.00  0.00    -0.208 N 
ATOM     29  N   UNL     1      29.921  -2.096 -22.852  0.00  0.00    -0.176 NA
ATOM     30  C   UNL     1      30.684  -4.244 -22.710  0.00  0.00    +0.052 C 
ATOM     31  C   UNL     1      30.667  -3.883 -24.034  0.00  0.00    +0.087 C 
ATOM     32  C   UNL     1      30.215  -3.106 -22.028  0.00  0.00    +0.120 C 
ATOM     33  C   UNL     1      30.014  -1.786 -25.241  0.00  0.00    +0.140 C 
ENDBRANCH  27  30
ENDBRANCH   7  23
BRANCH   5  34
ATOM     34  C   UNL     1      33.922  -8.297 -23.638  0.00  0.00    +0.042 C 
ATOM     35  C   UNL     1      35.289  -8.477 -24.340  0.00  0.00    +0.006 C 
ATOM     36  C   UNL     1      32.980  -7.488 -24.561  0.00  0.00    +0.006 C 
ENDBRANCH   5  34
TORSDOF 6
ENDMDL
MODEL 2
REMARK VINA RESULT:      -9.5      3.092     10.248
REMARK  Name = 67501411
REMARK  6 active torsions:
REMARK  status: ('A' for Active; 'I' for Inactive)
REMARK    1  A    between atoms: N_1  and  C_10
REMARK    2  A    between atoms: C_5  and  C_34
REMARK    3  A    between atoms: C_7  and  N_23
REMARK    4  A    between atoms: C_11  and  C_21
REMARK    5  A    between atoms: C_14  and  C_18
REMARK    6  A    between atoms: C_27  and  C_30
REMARK                            x       y       z     vdW  Elec       q    Type
REMARK                         _______ _______ _______ _____ _____    ______ ____
ROOT
ATOM      1  N   UNL     1      32.200 -11.223 -22.815  0.00  0.00    -0.213 N 
ATOM      2  N   UNL     1      32.301 -11.856 -21.632  0.00  0.00    -0.168 NA
ATOM      3  N   UNL     1      32.481 -11.649 -25.180  0.00  0.00    -0.225 NA
ATOM      4  C   UNL     1      32.816 -13.259 -23.365  0.00  0.00    +0.064 A 
ATOM      5  C   UNL     1      32.675 -13.094 -21.972  0.00  0.00    +0.083 A 
ATOM      6  C   UNL     1      32.498 -12.014 -23.885  0.00  0.00    +0.166 A 
ATOM      7  C   UNL     1      33.166 -14.276 -24.261  0.00  0.00    +0.055 C 
ATOM      8  C   UNL     1      33.167 -13.956 -25.620  0.00  0.00    +0.035 C 
ATOM      9  C   UNL     1      32.827 -12.664 -26.008  0.00  0.00    +0.102 C 
ENDROOT
BRANCH   1  10
ATOM     10  C   UNL     1      31.820  -9.883 -22.859  0.00  0.00    +0.080 C 
ATOM     11  C   UNL     1      32.730  -8.890 -23.220  0.00  0.00    -0.004 C 
ATOM     12  C   UNL     1      30.506  -9.541 -22.536  0.00  0.00    +0.019 C 
ATOM     13  C   UNL     1      32.327  -7.555 -23.258  0.00  0.00    +0.002 C 
ATOM     14  C   UNL     1      31.014  -7.213 -22.934  0.00  0.00    +0.053 C 
ATOM     15  C   UNL     1      30.103  -8.206 -22.573  0.00  0.00    +0.006 C 
BRANCH  14  18
ATOM     16  O   UNL     1      30.099  -5.266 -21.976  0.00  0.00    -0.270 OA
ATOM     17  N   UNL     1      30.778  -5.122 -24.162  0.00  0.00    -0.325 N 
ATOM     18  C   UNL     1      30.593  -5.822 -22.973  0.00  0.00    +0.243 C 
ATOM     19  H   UNL     1      30.505  -4.178 -24.225  0.00  0.00    +0.145 HD
ATOM     20  H   UNL     1      31.182  -5.571 -24.940  0.00  0.00    +0.145 HD
ENDBRANCH  14  18
BRANCH  11  21
ATOM     21  C   UNL     1      34.144  -9.223 -23.572  0.00  0.00    +0.028 C 
ATOM     22  C   UNL     1      34.957  -7.984 -23.932  0.00  0.00    +0.005 C 
ENDBRANCH  11  21
ENDBRANCH   1  10
BRANCH   7  23
ATOM     23  N   UNL     1      33.500 -15.550 -23.845  0.00  0.00    -0.282 N 
ATOM     24  N   UNL     1      33.637 -17.766 -23.831  0.00  0.00    -0.251 NA
ATOM     25  C   UNL     1      34.219 -15.874 -22.728  0.00  0.00    +0.138 C 
ATOM     26  C   UNL     1      33.173 -16.718 -24.475  0.00  0.00    +0.220 C 
ATOM     27  C   UNL     1      34.289 -17.247 -22.741  0.00  0.00    +0.079 C 
BRANCH  27  30
ATOM     28  N   UNL     1      35.465 -19.702 -20.381  0.00  0.00    -0.208 N 
ATOM     29  N   UNL     1      36.555 -18.918 -20.387  0.00  0.00    -0.176 NA
ATOM     30  C   UNL     1      34.938 -18.117 -21.787  0.00  0.00    +0.052 C 
ATOM     31  C   UNL     1      34.467 -19.267 -21.203  0.00  0.00    +0.087 C 
ATOM     32  C   UNL     1      36.227 -17.950 -21.248  0.00  0.00    +0.120 C 
ATOM     33  C   UNL     1      35.436 -20.881 -19.549  0.00  0.00    +0.140 C 
ENDBRANCH  27  30
ENDBRANCH   7  23
BRANCH   5  34
ATOM     34  C   UNL     1      32.889 -14.097 -20.914  0.00  0.00    +0.042 C 
ATOM     35  C   UNL     1      34.271 -13.972 -20.229  0.00  0.00    +0.006 C 
ATOM     36  C   UNL     1      31.784 -14.080 -19.831  0.00  0.00    +0.006 C 
ENDBRANCH   5  34
TORSDOF 6
ENDMDL
MODEL 3
REMARK VINA RESULT:      -7.4      3.207      9.835
REMARK  Name = 67501411
REMARK  6 active torsions:
REMARK  status: ('A' for Active; 'I' for Inactive)
REMARK    1  A    between atoms: N_1  and  C_10
REMARK    2  A    between atoms: C_5  and  C_34
REMARK    3  A    between atoms: C_7  and  N_23
REMARK    4  A    between atoms: C_11  and  C_21
REMARK    5  A    between atoms: C_14  and  C_18
REMARK    6  A    between atoms: C_27  and  C_30
REMARK                            x       y       z     vdW  Elec       q    Type
REMARK                         _______ _______ _______ _____ _____    ______ ____
ROOT
ATOM      1  N   UNL     1      31.641  -8.168 -22.528  0.00  0.00    -0.213 N 
ATOM      2  N   UNL     1      30.840  -9.086 -21.958  0.00  0.00    -0.168 NA
ATOM      3  N   UNL     1      33.669  -8.031 -23.839  0.00  0.00    -0.225 NA
ATOM      4  C   UNL     1      32.599 -10.080 -23.031  0.00  0.00    +0.064 A 
ATOM      5  C   UNL     1      31.426 -10.248 -22.267  0.00  0.00    +0.083 A 
ATOM      6  C   UNL     1      32.709  -8.707 -23.182  0.00  0.00    +0.166 A 
ATOM      7  C   UNL     1      33.583 -10.887 -23.615  0.00  0.00    +0.055 C 
ATOM      8  C   UNL     1      34.606 -10.241 -24.311  0.00  0.00    +0.035 C 
ATOM      9  C   UNL     1      34.598  -8.852 -24.387  0.00  0.00    +0.102 C 
ENDROOT
BRANCH   1  10
ATOM     10  C   UNL     1      31.339  -6.812 -22.416  0.00  0.00    +0.080 C 
ATOM     11  C   UNL     1      30.727  -6.124 -23.464  0.00  0.00    -0.004 C 
ATOM     12  C   UNL     1      31.659  -6.142 -21.235  0.00  0.00    +0.019 C 
ATOM     13  C   UNL     1      30.434  -4.767 -23.330  0.00  0.00    +0.002 C 
ATOM     14  C   UNL     1      30.753  -4.098 -22.149  0.00  0.00    +0.053 C 
ATOM     15  C   UNL     1      31.366  -4.785 -21.101  0.00  0.00    +0.006 C 
BRANCH  14  18
ATOM     16  O   UNL     1      29.279  -2.283 -21.862  0.00  0.00    -0.270 OA
ATOM     17  N   UNL     1      31.511  -1.786 -22.025  0.00  0.00    -0.325 N 
ATOM     18  C   UNL     1      30.448  -2.683 -22.008  0.00  0.00    +0.243 C 
ATOM     19  H   UNL     1      31.342  -0.820 -21.932  0.00  0.00    +0.145 HD
ATOM     20  H   UNL     1      32.433  -2.116 -22.128  0.00  0.00    +0.145 HD
ENDBRANCH  14  18
BRANCH  11  21
ATOM     21  C   UNL     1      30.373  -6.813 -24.742  0.00  0.00    +0.028 C 
ATOM     22  C   UNL     1      31.342  -6.472 -25.870  0.00  0.00    +0.005 C 
ENDBRANCH  11  21
ENDBRANCH   1  10
BRANCH   7  23
ATOM     23  N   UNL     1      33.565 -12.265 -23.522  0.00  0.00    -0.282 N 
ATOM     24  N   UNL     1      33.106 -14.379 -24.025  0.00  0.00    -0.251 NA
ATOM     25  C   UNL     1      34.167 -13.019 -22.554  0.00  0.00    +0.138 C 
ATOM     26  C   UNL     1      32.940 -13.125 -24.382  0.00  0.00    +0.220 C 
ATOM     27  C   UNL     1      33.870 -14.320 -22.885  0.00  0.00    +0.079 C 
BRANCH  27  30
ATOM     28  N   UNL     1      34.913 -17.538 -21.647  0.00  0.00    -0.208 N 
ATOM     29  N   UNL     1      34.712 -16.942 -20.460  0.00  0.00    -0.176 NA
ATOM     30  C   UNL     1      34.260 -15.528 -22.196  0.00  0.00    +0.052 C 
ATOM     31  C   UNL     1      34.657 -16.734 -22.719  0.00  0.00    +0.087 C 
ATOM     32  C   UNL     1      34.312 -15.714 -20.802  0.00  0.00    +0.120 C 
ATOM     33  C   UNL     1      35.360 -18.910 -21.693  0.00  0.00    +0.140 C 
ENDBRANCH  27  30
ENDBRANCH   7  23
BRANCH   5  34
ATOM     34  C   UNL     1      30.818 -11.507 -21.802  0.00  0.00    +0.042 C 
ATOM     35  C   UNL     1      31.624 -12.188 -20.671  0.00  0.00    +0.006 C 
ATOM     36  C   UNL     1      29.349 -11.339 -21.347  0.00  0.00    +0.006 C 
ENDBRANCH   5  34
TORSDOF 6
ENDMDL
MODEL 4
REMARK VINA RESULT:      -7.2      3.201      9.449
REMARK  Name = 67501411
REMARK  6 active torsions:
REMARK  status: ('A' for Active; 'I' for Inactive)
REMARK    1  A    between atoms: N_1  and  C_10
REMARK    2  A    between atoms: C_5  and  C_34
REMARK    3  A    between atoms: C_7  and  N_23
REMARK    4  A    between atoms: C_11  and  C_21
REMARK    5  A    between atoms: C_14  and  C_18
REMARK    6  A    between atoms: C_27  and  C_30
REMARK                            x       y       z     vdW  Elec       q    Type
REMARK                         _______ _______ _______ _____ _____    ______ ____
ROOT
ATOM      1  N   UNL     1      31.813  -8.311 -22.665  0.00  0.00    -0.213 N 
ATOM      2  N   UNL     1      32.266  -9.177 -23.591  0.00  0.00    -0.168 NA
ATOM      3  N   UNL     1      31.179  -8.249 -20.332  0.00  0.00    -0.225 NA
ATOM      4  C   UNL     1      31.977 -10.207 -21.568  0.00  0.00    +0.064 A 
ATOM      5  C   UNL     1      32.365 -10.328 -22.918  0.00  0.00    +0.083 A 
ATOM      6  C   UNL     1      31.622  -8.873 -21.438  0.00  0.00    +0.166 A 
ATOM      7  C   UNL     1      31.874 -11.027 -20.438  0.00  0.00    +0.055 C 
ATOM      8  C   UNL     1      31.419 -10.435 -19.259  0.00  0.00    +0.035 C 
ATOM      9  C   UNL     1      31.095  -9.082 -19.266  0.00  0.00    +0.102 C 
ENDROOT
BRANCH   1  10
ATOM     10  C   UNL     1      31.587  -6.979 -23.008  0.00  0.00    +0.080 C 
ATOM     11  C   UNL     1      32.610  -6.035 -22.936  0.00  0.00    -0.004 C 
ATOM     12  C   UNL     1      30.312  -6.595 -23.427  0.00  0.00    +0.019 C 
ATOM     13  C   UNL     1      32.362  -4.707 -23.284  0.00  0.00    +0.002 C 
ATOM     14  C   UNL     1      31.087  -4.323 -23.703  0.00  0.00    +0.053 C 
ATOM     15  C   UNL     1      30.063  -5.268 -23.774  0.00  0.00    +0.006 C 
BRANCH  14  18
ATOM     16  O   UNL     1      29.685  -2.554 -24.373  0.00  0.00    -0.270 OA
ATOM     17  N   UNL     1      31.896  -2.050 -24.040  0.00  0.00    -0.325 N 
ATOM     18  C   UNL     1      30.826  -2.940 -24.065  0.00  0.00    +0.243 C 
ATOM     19  H   UNL     1      31.757  -1.106 -24.279  0.00  0.00    +0.145 HD
ATOM     20  H   UNL     1      32.793  -2.366 -23.782  0.00  0.00    +0.145 HD
ENDBRANCH  14  18
BRANCH  11  21
ATOM     21  C   UNL     1      33.986  -6.414 -22.490  0.00  0.00    +0.028 C 
ATOM     22  C   UNL     1      34.795  -7.070 -23.606  0.00  0.00    +0.005 C 
ENDBRANCH  11  21
ENDBRANCH   1  10
BRANCH   7  23
ATOM     23  N   UNL     1      32.203 -12.369 -20.463  0.00  0.00    -0.282 N 
ATOM     24  N   UNL     1      32.108 -14.543 -20.022  0.00  0.00    -0.251 NA
ATOM     25  C   UNL     1      33.233 -12.937 -21.159  0.00  0.00    +0.138 C 
ATOM     26  C   UNL     1      31.557 -13.372 -19.796  0.00  0.00    +0.220 C 
ATOM     27  C   UNL     1      33.155 -14.279 -20.870  0.00  0.00    +0.079 C 
BRANCH  27  30
ATOM     28  N   UNL     1      35.270 -17.114 -21.556  0.00  0.00    -0.208 N 
ATOM     29  N   UNL     1      35.240 -16.603 -22.798  0.00  0.00    -0.176 NA
ATOM     30  C   UNL     1      34.006 -15.346 -21.344  0.00  0.00    +0.052 C 
ATOM     31  C   UNL     1      34.547 -16.398 -20.648  0.00  0.00    +0.087 C 
ATOM     32  C   UNL     1      34.466 -15.522 -22.662  0.00  0.00    +0.120 C 
ATOM     33  C   UNL     1      36.026 -18.315 -21.294  0.00  0.00    +0.140 C 
ENDBRANCH  27  30
ENDBRANCH   7  23
BRANCH   5  34
ATOM     34  C   UNL     1      32.840 -11.533 -23.621  0.00  0.00    +0.042 C 
ATOM     35  C   UNL     1      31.692 -12.381 -24.217  0.00  0.00    +0.006 C 
ATOM     36  C   UNL     1      33.870 -11.219 -24.733  0.00  0.00    +0.006 C 
ENDBRANCH   5  34
TORSDOF 6
ENDMDL
MODEL 5
REMARK VINA RESULT:      -6.9      3.154      9.941
REMARK  Name = 67501411
REMARK  6 active torsions:
REMARK  status: ('A' for Active; 'I' for Inactive)
REMARK    1  A    between atoms: N_1  and  C_10
REMARK    2  A    between atoms: C_5  and  C_34
REMARK    3  A    between atoms: C_7  and  N_23
REMARK    4  A    between atoms: C_11  and  C_21
REMARK    5  A    between atoms: C_14  and  C_18
REMARK    6  A    between atoms: C_27  and  C_30
REMARK                            x       y       z     vdW  Elec       q    Type
REMARK                         _______ _______ _______ _____ _____    ______ ____
ROOT
ATOM      1  N   UNL     1      31.555  -7.830 -22.608  0.00  0.00    -0.213 N 
ATOM      2  N   UNL     1      30.769  -8.719 -21.972  0.00  0.00    -0.168 NA
ATOM      3  N   UNL     1      33.650  -7.731 -23.812  0.00  0.00    -0.225 NA
ATOM      4  C   UNL     1      32.643  -9.727 -22.813  0.00  0.00    +0.064 A 
ATOM      5  C   UNL     1      31.435  -9.871 -22.100  0.00  0.00    +0.083 A 
ATOM      6  C   UNL     1      32.689  -8.378 -23.129  0.00  0.00    +0.166 A 
ATOM      7  C   UNL     1      33.703 -10.538 -23.236  0.00  0.00    +0.055 C 
ATOM      8  C   UNL     1      34.732  -9.921 -23.949  0.00  0.00    +0.035 C 
ATOM      9  C   UNL     1      34.654  -8.555 -24.199  0.00  0.00    +0.102 C 
ENDROOT
BRANCH   1  10
ATOM     10  C   UNL     1      31.174  -6.492 -22.685  0.00  0.00    +0.080 C 
ATOM     11  C   UNL     1      31.129  -5.691 -21.544  0.00  0.00    -0.004 C 
ATOM     12  C   UNL     1      30.833  -5.955 -23.927  0.00  0.00    +0.019 C 
ATOM     13  C   UNL     1      30.745  -4.354 -21.644  0.00  0.00    +0.002 C 
ATOM     14  C   UNL     1      30.405  -3.817 -22.886  0.00  0.00    +0.053 C 
ATOM     15  C   UNL     1      30.449  -4.618 -24.028  0.00  0.00    +0.006 C 
BRANCH  14  18
ATOM     16  O   UNL     1      30.034  -1.821 -24.080  0.00  0.00    -0.270 OA
ATOM     17  N   UNL     1      29.567  -1.786 -21.836  0.00  0.00    -0.325 N 
ATOM     18  C   UNL     1      30.004  -2.424 -22.992  0.00  0.00    +0.243 C 
ATOM     19  H   UNL     1      29.288  -0.842 -21.869  0.00  0.00    +0.145 HD
ATOM     20  H   UNL     1      29.536  -2.278 -20.983  0.00  0.00    +0.145 HD
ENDBRANCH  14  18
BRANCH  11  21
ATOM     21  C   UNL     1      31.488  -6.236 -20.199  0.00  0.00    +0.028 C 
ATOM     22  C   UNL     1      32.996  -6.286 -19.979  0.00  0.00    +0.005 C 
ENDBRANCH  11  21
ENDBRANCH   1  10
BRANCH   7  23
ATOM     23  N   UNL     1      33.753 -11.893 -22.971  0.00  0.00    -0.282 N 
ATOM     24  N   UNL     1      33.903 -13.783 -21.816  0.00  0.00    -0.251 NA
ATOM     25  C   UNL     1      33.676 -12.901 -23.891  0.00  0.00    +0.138 C 
ATOM     26  C   UNL     1      33.889 -12.471 -21.740  0.00  0.00    +0.220 C 
ATOM     27  C   UNL     1      33.771 -14.058 -23.154  0.00  0.00    +0.079 C 
BRANCH  27  30
ATOM     28  N   UNL     1      33.963 -17.579 -23.892  0.00  0.00    -0.208 N 
ATOM     29  N   UNL     1      33.307 -17.196 -25.000  0.00  0.00    -0.176 NA
ATOM     30  C   UNL     1      33.744 -15.422 -23.628  0.00  0.00    +0.052 C 
ATOM     31  C   UNL     1      34.249 -16.555 -23.038  0.00  0.00    +0.087 C 
ATOM     32  C   UNL     1      33.176 -15.876 -24.833  0.00  0.00    +0.120 C 
ATOM     33  C   UNL     1      34.297 -18.970 -23.703  0.00  0.00    +0.140 C 
ENDBRANCH  27  30
ENDBRANCH   7  23
BRANCH   5  34
ATOM     34  C   UNL     1      30.868 -11.099 -21.515  0.00  0.00    +0.042 C 
ATOM     35  C   UNL     1      31.509 -11.477 -20.158  0.00  0.00    +0.006 C 
ATOM     36  C   UNL     1      29.331 -11.037 -21.349  0.00  0.00    +0.006 C 
ENDBRANCH   5  34
TORSDOF 6
ENDMDL
