MODEL 1
REMARK VINA RESULT:     -11.8      0.000      0.000
REMARK  Name = 56649347
REMARK  9 active torsions:
REMARK  status: ('A' for Active; 'I' for Inactive)
REMARK    1  A    between atoms: N_2  and  C_5
REMARK    2  A    between atoms: C_3  and  C_22
REMARK    3  A    between atoms: C_5  and  C_9
REMARK    4  A    between atoms: C_12  and  N_15
REMARK    5  A    between atoms: N_15  and  S_17
REMARK    6  A    between atoms: C_21  and  C_25
REMARK    7  A    between atoms: C_24  and  C_33
REMARK    8  A    between atoms: C_27  and  C_32
REMARK    9  A    between atoms: C_33  and  C_34
REMARK                            x       y       z     vdW  Elec       q    Type
REMARK                         _______ _______ _______ _____ _____    ______ ____
ROOT
ATOM      1  O   UNL     1      30.725 -23.563 -16.131  0.00  0.00    -0.270 OA
ATOM      2  N   UNL     1      32.903 -23.068 -15.489  0.00  0.00    -0.299 N 
ATOM      3  C   UNL     1      31.784 -22.965 -16.296  0.00  0.00    +0.246 C 
ATOM      4  H   UNL     1      33.700 -22.539 -15.719  0.00  0.00    +0.150 HD
ENDROOT
BRANCH   2   5
ATOM      5  C   UNL     1      32.957 -23.919 -14.320  0.00  0.00    +0.095 C 
ATOM      6  C   UNL     1      32.297 -23.223 -13.132  0.00  0.00    +0.026 C 
BRANCH   5   9
ATOM      7  F   UNL     1      37.048 -23.633 -11.669  0.00  0.00    -0.203 F 
ATOM      8  F   UNL     1      36.848 -26.705 -15.286  0.00  0.00    -0.203 F 
ATOM      9  C   UNL     1      34.373 -24.362 -14.021  0.00  0.00    +0.000 C 
ATOM     10  C   UNL     1      34.975 -25.348 -14.804  0.00  0.00    +0.028 C 
ATOM     11  C   UNL     1      35.076 -23.786 -12.963  0.00  0.00    +0.028 C 
ATOM     12  C   UNL     1      36.982 -25.180 -13.471  0.00  0.00    +0.119 C 
ATOM     13  C   UNL     1      36.380 -24.195 -12.687  0.00  0.00    +0.157 C 
ATOM     14  C   UNL     1      36.279 -25.756 -14.528  0.00  0.00    +0.157 C 
BRANCH  12  15
ATOM     15  N   UNL     1      38.318 -25.598 -13.188  0.00  0.00    -0.214 N 
ATOM     16  H   UNL     1      38.507 -26.220 -12.449  0.00  0.00    +0.174 HD
BRANCH  15  17
ATOM     17  S   UNL     1      39.589 -24.986 -14.176  0.00  0.00    +0.056 S 
ATOM     18  O   UNL     1      40.463 -24.174 -13.349  0.00  0.00    -0.154 OA
ATOM     19  O   UNL     1      40.133 -26.027 -15.025  0.00  0.00    -0.154 OA
ATOM     20  C   UNL     1      38.670 -23.865 -15.209  0.00  0.00    +0.200 C 
ENDBRANCH  15  17
ENDBRANCH  12  15
ENDBRANCH   5   9
ENDBRANCH   2   5
BRANCH   3  22
ATOM     21  C   UNL     1      33.196 -21.963 -18.033  0.00  0.00    +0.007 C 
ATOM     22  C   UNL     1      32.002 -22.018 -17.426  0.00  0.00    +0.058 C 
BRANCH  21  25
ATOM     23  N   UNL     1      35.155 -20.019 -20.597  0.00  0.00    -0.406 NA
ATOM     24  C   UNL     1      34.822 -20.827 -19.565  0.00  0.00    +0.108 C 
ATOM     25  C   UNL     1      33.520 -21.074 -19.163  0.00  0.00    +0.022 C 
ATOM     26  C   UNL     1      32.493 -20.453 -19.864  0.00  0.00    -0.017 C 
ATOM     27  C   UNL     1      34.130 -19.432 -21.255  0.00  0.00    +0.184 C 
ATOM     28  C   UNL     1      32.794 -19.616 -20.932  0.00  0.00    +0.089 C 
BRANCH  27  32
ATOM     29  F   UNL     1      34.152 -17.238 -22.170  0.00  0.00    -0.164 F 
ATOM     30  F   UNL     1      35.827 -18.528 -22.678  0.00  0.00    -0.164 F 
ATOM     31  F   UNL     1      33.882 -18.880 -23.569  0.00  0.00    -0.164 F 
ATOM     32  C   UNL     1      34.491 -18.541 -22.395  0.00  0.00    +0.442 C 
ENDBRANCH  27  32
BRANCH  24  33
ATOM     33  C   UNL     1      35.974 -21.460 -18.855  0.00  0.00    +0.059 C 
BRANCH  33  34
ATOM     34  C   UNL     1      36.409 -20.654 -17.625  0.00  0.00    +0.007 C 
ATOM     35  C   UNL     1      36.479 -21.518 -16.376  0.00  0.00    +0.000 C 
ENDBRANCH  33  34
ENDBRANCH  24  33
ENDBRANCH  21  25
ENDBRANCH   3  22
TORSDOF 9
ENDMDL
MODEL 2
REMARK VINA RESULT:     -11.4      5.321     10.884
REMARK  Name = 56649347
REMARK  9 active torsions:
REMARK  status: ('A' for Active; 'I' for Inactive)
REMARK    1  A    between atoms: N_2  and  C_5
REMARK    2  A    between atoms: C_3  and  C_22
REMARK    3  A    between atoms: C_5  and  C_9
REMARK    4  A    between atoms: C_12  and  N_15
REMARK    5  A    between atoms: N_15  and  S_17
REMARK    6  A    between atoms: C_21  and  C_25
REMARK    7  A    between atoms: C_24  and  C_33
REMARK    8  A    between atoms: C_27  and  C_32
REMARK    9  A    between atoms: C_33  and  C_34
REMARK                            x       y       z     vdW  Elec       q    Type
REMARK                         _______ _______ _______ _____ _____    ______ ____
ROOT
ATOM      1  O   UNL     1      32.720 -20.151 -20.608  0.00  0.00    -0.270 OA
ATOM      2  N   UNL     1      34.678 -19.384 -21.598  0.00  0.00    -0.299 N 
ATOM      3  C   UNL     1      33.938 -20.003 -20.606  0.00  0.00    +0.246 C 
ATOM      4  H   UNL     1      35.654 -19.323 -21.489  0.00  0.00    +0.150 HD
ENDROOT
BRANCH   2   5
ATOM      5  C   UNL     1      34.082 -18.823 -22.792  0.00  0.00    +0.095 C 
ATOM      6  C   UNL     1      34.766 -19.386 -24.035  0.00  0.00    +0.026 C 
BRANCH   5   9
ATOM      7  F   UNL     1      34.384 -14.613 -20.336  0.00  0.00    -0.203 F 
ATOM      8  F   UNL     1      33.847 -14.503 -25.054  0.00  0.00    -0.203 F 
ATOM      9  C   UNL     1      34.094 -17.310 -22.757  0.00  0.00    +0.000 C 
ATOM     10  C   UNL     1      33.962 -16.584 -23.942  0.00  0.00    +0.028 C 
ATOM     11  C   UNL     1      34.236 -16.641 -21.542  0.00  0.00    +0.028 C 
ATOM     12  C   UNL     1      34.115 -14.522 -22.694  0.00  0.00    +0.119 C 
ATOM     13  C   UNL     1      34.248 -15.246 -21.510  0.00  0.00    +0.157 C 
ATOM     14  C   UNL     1      33.973 -15.191 -23.910  0.00  0.00    +0.157 C 
BRANCH  12  15
ATOM     15  N   UNL     1      34.127 -13.094 -22.662  0.00  0.00    -0.214 N 
ATOM     16  H   UNL     1      34.970 -12.597 -22.551  0.00  0.00    +0.174 HD
BRANCH  15  17
ATOM     17  S   UNL     1      32.626 -12.264 -22.822  0.00  0.00    +0.056 S 
ATOM     18  O   UNL     1      32.902 -10.864 -23.085  0.00  0.00    -0.154 OA
ATOM     19  O   UNL     1      31.711 -13.007 -23.665  0.00  0.00    -0.154 OA
ATOM     20  C   UNL     1      32.031 -12.367 -21.148  0.00  0.00    +0.200 C 
ENDBRANCH  15  17
ENDBRANCH  12  15
ENDBRANCH   5   9
ENDBRANCH   2   5
BRANCH   3  22
ATOM     21  C   UNL     1      34.289 -21.293 -18.550  0.00  0.00    +0.007 C 
ATOM     22  C   UNL     1      34.802 -20.491 -19.493  0.00  0.00    +0.058 C 
BRANCH  21  25
ATOM     23  N   UNL     1      35.159 -23.232 -15.439  0.00  0.00    -0.406 NA
ATOM     24  C   UNL     1      34.490 -22.710 -16.491  0.00  0.00    +0.108 C 
ATOM     25  C   UNL     1      35.051 -21.841 -17.413  0.00  0.00    +0.022 C 
ATOM     26  C   UNL     1      36.384 -21.484 -17.244  0.00  0.00    -0.017 C 
ATOM     27  C   UNL     1      36.453 -22.862 -15.307  0.00  0.00    +0.184 C 
ATOM     28  C   UNL     1      37.106 -22.000 -16.174  0.00  0.00    +0.089 C 
BRANCH  27  32
ATOM     29  F   UNL     1      37.314 -22.555 -13.112  0.00  0.00    -0.164 F 
ATOM     30  F   UNL     1      36.609 -24.548 -13.617  0.00  0.00    -0.164 F 
ATOM     31  F   UNL     1      38.472 -23.817 -14.451  0.00  0.00    -0.164 F 
ATOM     32  C   UNL     1      37.197 -23.436 -14.148  0.00  0.00    +0.442 C 
ENDBRANCH  27  32
BRANCH  24  33
ATOM     33  C   UNL     1      33.062 -23.134 -16.612  0.00  0.00    +0.059 C 
BRANCH  33  34
ATOM     34  C   UNL     1      32.255 -22.816 -15.348  0.00  0.00    +0.007 C 
ATOM     35  C   UNL     1      30.766 -22.723 -15.633  0.00  0.00    +0.000 C 
ENDBRANCH  33  34
ENDBRANCH  24  33
ENDBRANCH  21  25
ENDBRANCH   3  22
TORSDOF 9
ENDMDL
MODEL 3
REMARK VINA RESULT:     -11.3      4.106      6.333
REMARK  Name = 56649347
REMARK  9 active torsions:
REMARK  status: ('A' for Active; 'I' for Inactive)
REMARK    1  A    between atoms: N_2  and  C_5
REMARK    2  A    between atoms: C_3  and  C_22
REMARK    3  A    between atoms: C_5  and  C_9
REMARK    4  A    between atoms: C_12  and  N_15
REMARK    5  A    between atoms: N_15  and  S_17
REMARK    6  A    between atoms: C_21  and  C_25
REMARK    7  A    between atoms: C_24  and  C_33
REMARK    8  A    between atoms: C_27  and  C_32
REMARK    9  A    between atoms: C_33  and  C_34
REMARK                            x       y       z     vdW  Elec       q    Type
REMARK                         _______ _______ _______ _____ _____    ______ ____
ROOT
ATOM      1  O   UNL     1      36.571 -19.009 -21.227  0.00  0.00    -0.270 OA
ATOM      2  N   UNL     1      34.829 -19.864 -19.946  0.00  0.00    -0.299 N 
ATOM      3  C   UNL     1      35.466 -18.896 -20.704  0.00  0.00    +0.246 C 
ATOM      4  H   UNL     1      33.941 -19.661 -19.574  0.00  0.00    +0.150 HD
ENDROOT
BRANCH   2   5
ATOM      5  C   UNL     1      35.410 -21.161 -19.674  0.00  0.00    +0.095 C 
ATOM      6  C   UNL     1      34.739 -22.228 -20.536  0.00  0.00    +0.026 C 
BRANCH   5   9
ATOM      7  F   UNL     1      37.398 -21.069 -15.215  0.00  0.00    -0.203 F 
ATOM      8  F   UNL     1      33.152 -23.112 -15.811  0.00  0.00    -0.203 F 
ATOM      9  C   UNL     1      35.362 -21.491 -18.198  0.00  0.00    +0.000 C 
ATOM     10  C   UNL     1      34.260 -22.164 -17.669  0.00  0.00    +0.028 C 
ATOM     11  C   UNL     1      36.420 -21.123 -17.366  0.00  0.00    +0.028 C 
ATOM     12  C   UNL     1      35.273 -22.099 -15.477  0.00  0.00    +0.119 C 
ATOM     13  C   UNL     1      36.375 -21.426 -16.006  0.00  0.00    +0.157 C 
ATOM     14  C   UNL     1      34.216 -22.467 -16.309  0.00  0.00    +0.157 C 
BRANCH  12  15
ATOM     15  N   UNL     1      35.228 -22.409 -14.084  0.00  0.00    -0.214 N 
ATOM     16  H   UNL     1      34.657 -21.894 -13.469  0.00  0.00    +0.174 HD
BRANCH  15  17
ATOM     17  S   UNL     1      36.199 -23.710 -13.509  0.00  0.00    +0.056 S 
ATOM     18  O   UNL     1      36.099 -24.809 -14.452  0.00  0.00    -0.154 OA
ATOM     19  O   UNL     1      37.495 -23.234 -13.066  0.00  0.00    -0.154 OA
ATOM     20  C   UNL     1      35.270 -24.181 -12.067  0.00  0.00    +0.200 C 
ENDBRANCH  15  17
ENDBRANCH  12  15
ENDBRANCH   5   9
ENDBRANCH   2   5
BRANCH   3  22
ATOM     21  C   UNL     1      35.032 -16.677 -21.652  0.00  0.00    +0.007 C 
ATOM     22  C   UNL     1      34.644 -17.659 -20.826  0.00  0.00    +0.058 C 
BRANCH  21  25
ATOM     23  N   UNL     1      33.247 -13.820 -23.341  0.00  0.00    -0.406 NA
ATOM     24  C   UNL     1      33.924 -14.969 -23.116  0.00  0.00    +0.108 C 
ATOM     25  C   UNL     1      34.295 -15.417 -21.859  0.00  0.00    +0.022 C 
ATOM     26  C   UNL     1      33.949 -14.637 -20.761  0.00  0.00    -0.017 C 
ATOM     27  C   UNL     1      32.929 -13.088 -22.250  0.00  0.00    +0.184 C 
ATOM     28  C   UNL     1      33.252 -13.449 -20.951  0.00  0.00    +0.089 C 
BRANCH  27  32
ATOM     29  F   UNL     1      30.828 -11.986 -22.410  0.00  0.00    -0.164 F 
ATOM     30  F   UNL     1      32.482 -10.829 -21.603  0.00  0.00    -0.164 F 
ATOM     31  F   UNL     1      32.409 -11.277 -23.724  0.00  0.00    -0.164 F 
ATOM     32  C   UNL     1      32.180 -11.820 -22.492  0.00  0.00    +0.442 C 
ENDBRANCH  27  32
BRANCH  24  33
ATOM     33  C   UNL     1      34.265 -15.758 -24.338  0.00  0.00    +0.059 C 
BRANCH  33  34
ATOM     34  C   UNL     1      33.117 -16.676 -24.774  0.00  0.00    +0.007 C 
ATOM     35  C   UNL     1      33.393 -18.131 -24.434  0.00  0.00    +0.000 C 
ENDBRANCH  33  34
ENDBRANCH  24  33
ENDBRANCH  21  25
ENDBRANCH   3  22
TORSDOF 9
ENDMDL
MODEL 4
REMARK VINA RESULT:     -11.3      3.884      6.012
REMARK  Name = 56649347
REMARK  9 active torsions:
REMARK  status: ('A' for Active; 'I' for Inactive)
REMARK    1  A    between atoms: N_2  and  C_5
REMARK    2  A    between atoms: C_3  and  C_22
REMARK    3  A    between atoms: C_5  and  C_9
REMARK    4  A    between atoms: C_12  and  N_15
REMARK    5  A    between atoms: N_15  and  S_17
REMARK    6  A    between atoms: C_21  and  C_25
REMARK    7  A    between atoms: C_24  and  C_33
REMARK    8  A    between atoms: C_27  and  C_32
REMARK    9  A    between atoms: C_33  and  C_34
REMARK                            x       y       z     vdW  Elec       q    Type
REMARK                         _______ _______ _______ _____ _____    ______ ____
ROOT
ATOM      1  O   UNL     1      36.183 -19.651 -20.907  0.00  0.00    -0.270 OA
ATOM      2  N   UNL     1      34.201 -20.275 -19.864  0.00  0.00    -0.299 N 
ATOM      3  C   UNL     1      35.042 -19.400 -20.529  0.00  0.00    +0.246 C 
ATOM      4  H   UNL     1      33.304 -19.962 -19.609  0.00  0.00    +0.150 HD
ENDROOT
BRANCH   2   5
ATOM      5  C   UNL     1      34.581 -21.630 -19.527  0.00  0.00    +0.095 C 
ATOM      6  C   UNL     1      33.444 -22.593 -19.861  0.00  0.00    +0.026 C 
BRANCH   5   9
ATOM      7  F   UNL     1      33.757 -22.912 -14.887  0.00  0.00    -0.203 F 
ATOM      8  F   UNL     1      37.929 -20.954 -16.039  0.00  0.00    -0.203 F 
ATOM      9  C   UNL     1      35.028 -21.737 -18.085  0.00  0.00    +0.000 C 
ATOM     10  C   UNL     1      36.296 -21.288 -17.713  0.00  0.00    +0.028 C 
ATOM     11  C   UNL     1      34.174 -22.285 -17.128  0.00  0.00    +0.028 C 
ATOM     12  C   UNL     1      35.854 -21.935 -15.428  0.00  0.00    +0.119 C 
ATOM     13  C   UNL     1      34.587 -22.385 -15.800  0.00  0.00    +0.157 C 
ATOM     14  C   UNL     1      36.708 -21.387 -16.385  0.00  0.00    +0.157 C 
BRANCH  12  15
ATOM     15  N   UNL     1      36.276 -22.037 -14.068  0.00  0.00    -0.214 N 
ATOM     16  H   UNL     1      36.131 -21.297 -13.436  0.00  0.00    +0.174 HD
BRANCH  15  17
ATOM     17  S   UNL     1      37.046 -23.493 -13.562  0.00  0.00    +0.056 S 
ATOM     18  O   UNL     1      36.079 -24.573 -13.640  0.00  0.00    -0.154 OA
ATOM     19  O   UNL     1      38.353 -23.627 -14.173  0.00  0.00    -0.154 OA
ATOM     20  C   UNL     1      37.285 -23.138 -11.835  0.00  0.00    +0.200 C 
ENDBRANCH  15  17
ENDBRANCH  12  15
ENDBRANCH   5   9
ENDBRANCH   2   5
BRANCH   3  22
ATOM     21  C   UNL     1      34.953 -17.194 -21.597  0.00  0.00    +0.007 C 
ATOM     22  C   UNL     1      34.399 -18.074 -20.750  0.00  0.00    +0.058 C 
BRANCH  21  25
ATOM     23  N   UNL     1      33.616 -14.231 -23.500  0.00  0.00    -0.406 NA
ATOM     24  C   UNL     1      34.123 -15.445 -23.189  0.00  0.00    +0.108 C 
ATOM     25  C   UNL     1      34.401 -15.861 -21.898  0.00  0.00    +0.022 C 
ATOM     26  C   UNL     1      34.142 -14.975 -20.858  0.00  0.00    -0.017 C 
ATOM     27  C   UNL     1      33.376 -13.396 -22.464  0.00  0.00    +0.184 C 
ATOM     28  C   UNL     1      33.619 -13.717 -21.138  0.00  0.00    +0.089 C 
BRANCH  27  32
ATOM     29  F   UNL     1      32.219 -12.031 -24.029  0.00  0.00    -0.164 F 
ATOM     30  F   UNL     1      31.862 -11.625 -21.924  0.00  0.00    -0.164 F 
ATOM     31  F   UNL     1      33.750 -11.062 -22.828  0.00  0.00    -0.164 F 
ATOM     32  C   UNL     1      32.815 -12.056 -22.802  0.00  0.00    +0.442 C 
ENDBRANCH  27  32
BRANCH  24  33
ATOM     33  C   UNL     1      34.379 -16.346 -24.353  0.00  0.00    +0.059 C 
BRANCH  33  34
ATOM     34  C   UNL     1      33.136 -17.153 -24.746  0.00  0.00    +0.007 C 
ATOM     35  C   UNL     1      33.281 -18.625 -24.399  0.00  0.00    +0.000 C 
ENDBRANCH  33  34
ENDBRANCH  24  33
ENDBRANCH  21  25
ENDBRANCH   3  22
TORSDOF 9
ENDMDL
MODEL 5
REMARK VINA RESULT:     -10.8      5.605     10.777
REMARK  Name = 56649347
REMARK  9 active torsions:
REMARK  status: ('A' for Active; 'I' for Inactive)
REMARK    1  A    between atoms: N_2  and  C_5
REMARK    2  A    between atoms: C_3  and  C_22
REMARK    3  A    between atoms: C_5  and  C_9
REMARK    4  A    between atoms: C_12  and  N_15
REMARK    5  A    between atoms: N_15  and  S_17
REMARK    6  A    between atoms: C_21  and  C_25
REMARK    7  A    between atoms: C_24  and  C_33
REMARK    8  A    between atoms: C_27  and  C_32
REMARK    9  A    between atoms: C_33  and  C_34
REMARK                            x       y       z     vdW  Elec       q    Type
REMARK                         _______ _______ _______ _____ _____    ______ ____
ROOT
ATOM      1  O   UNL     1      35.171 -21.374 -20.617  0.00  0.00    -0.270 OA
ATOM      2  N   UNL     1      34.265 -19.234 -20.583  0.00  0.00    -0.299 N 
ATOM      3  C   UNL     1      34.383 -20.548 -20.166  0.00  0.00    +0.246 C 
ATOM      4  H   UNL     1      33.594 -18.660 -20.147  0.00  0.00    +0.150 HD
ENDROOT
BRANCH   2   5
ATOM      5  C   UNL     1      35.083 -18.663 -21.632  0.00  0.00    +0.095 C 
ATOM      6  C   UNL     1      36.560 -18.920 -21.345  0.00  0.00    +0.026 C 
BRANCH   5   9
ATOM      7  F   UNL     1      34.678 -14.749 -24.524  0.00  0.00    -0.203 F 
ATOM      8  F   UNL     1      33.761 -14.300 -19.885  0.00  0.00    -0.203 F 
ATOM      9  C   UNL     1      34.777 -17.194 -21.835  0.00  0.00    +0.000 C 
ATOM     10  C   UNL     1      34.403 -16.403 -20.748  0.00  0.00    +0.028 C 
ATOM     11  C   UNL     1      34.868 -16.632 -23.108  0.00  0.00    +0.028 C 
ATOM     12  C   UNL     1      34.213 -14.489 -22.209  0.00  0.00    +0.119 C 
ATOM     13  C   UNL     1      34.585 -15.279 -23.295  0.00  0.00    +0.157 C 
ATOM     14  C   UNL     1      34.121 -15.051 -20.935  0.00  0.00    +0.157 C 
BRANCH  12  15
ATOM     15  N   UNL     1      33.923 -13.103 -22.401  0.00  0.00    -0.214 N 
ATOM     16  H   UNL     1      34.611 -12.417 -22.248  0.00  0.00    +0.174 HD
BRANCH  15  17
ATOM     17  S   UNL     1      32.336 -12.667 -22.910  0.00  0.00    +0.056 S 
ATOM     18  O   UNL     1      32.091 -13.265 -24.210  0.00  0.00    -0.154 OA
ATOM     19  O   UNL     1      31.382 -12.831 -21.831  0.00  0.00    -0.154 OA
ATOM     20  C   UNL     1      32.562 -10.923 -23.179  0.00  0.00    +0.200 C 
ENDBRANCH  15  17
ENDBRANCH  12  15
ENDBRANCH   5   9
ENDBRANCH   2   5
BRANCH   3  22
ATOM     21  C   UNL     1      33.629 -21.943 -18.296  0.00  0.00    +0.007 C 
ATOM     22  C   UNL     1      33.423 -20.871 -19.073  0.00  0.00    +0.058 C 
BRANCH  21  25
ATOM     23  N   UNL     1      32.464 -23.340 -14.996  0.00  0.00    -0.406 NA
ATOM     24  C   UNL     1      33.239 -22.954 -16.034  0.00  0.00    +0.108 C 
ATOM     25  C   UNL     1      32.753 -22.352 -17.183  0.00  0.00    +0.022 C 
ATOM     26  C   UNL     1      31.383 -22.129 -17.272  0.00  0.00    -0.017 C 
ATOM     27  C   UNL     1      31.138 -23.108 -15.118  0.00  0.00    +0.184 C 
ATOM     28  C   UNL     1      30.553 -22.511 -16.223  0.00  0.00    +0.089 C 
BRANCH  27  32
ATOM     29  F   UNL     1      30.489 -24.829 -13.611  0.00  0.00    -0.164 F 
ATOM     30  F   UNL     1      30.479 -22.797 -12.839  0.00  0.00    -0.164 F 
ATOM     31  F   UNL     1      28.941 -23.432 -14.229  0.00  0.00    -0.164 F 
ATOM     32  C   UNL     1      30.278 -23.530 -13.973  0.00  0.00    +0.442 C 
ENDBRANCH  27  32
BRANCH  24  33
ATOM     33  C   UNL     1      34.700 -23.224 -15.875  0.00  0.00    +0.059 C 
BRANCH  33  34
ATOM     34  C   UNL     1      35.443 -22.037 -15.250  0.00  0.00    +0.007 C 
ATOM     35  C   UNL     1      36.690 -21.670 -16.037  0.00  0.00    +0.000 C 
ENDBRANCH  33  34
ENDBRANCH  24  33
ENDBRANCH  21  25
ENDBRANCH   3  22
TORSDOF 9
ENDMDL
MODEL 6
REMARK VINA RESULT:     -10.7      5.830      8.656
REMARK  Name = 56649347
REMARK  9 active torsions:
REMARK  status: ('A' for Active; 'I' for Inactive)
REMARK    1  A    between atoms: N_2  and  C_5
REMARK    2  A    between atoms: C_3  and  C_22
REMARK    3  A    between atoms: C_5  and  C_9
REMARK    4  A    between atoms: C_12  and  N_15
REMARK    5  A    between atoms: N_15  and  S_17
REMARK    6  A    between atoms: C_21  and  C_25
REMARK    7  A    between atoms: C_24  and  C_33
REMARK    8  A    between atoms: C_27  and  C_32
REMARK    9  A    between atoms: C_33  and  C_34
REMARK                            x       y       z     vdW  Elec       q    Type
REMARK                         _______ _______ _______ _____ _____    ______ ____
ROOT
ATOM      1  O   UNL     1      35.414 -16.506 -22.962  0.00  0.00    -0.270 OA
ATOM      2  N   UNL     1      34.552 -17.618 -21.111  0.00  0.00    -0.299 N 
ATOM      3  C   UNL     1      34.748 -16.520 -21.931  0.00  0.00    +0.246 C 
ATOM      4  H   UNL     1      33.996 -17.511 -20.306  0.00  0.00    +0.150 HD
ENDROOT
BRANCH   2   5
ATOM      5  C   UNL     1      35.127 -18.918 -21.383  0.00  0.00    +0.095 C 
ATOM      6  C   UNL     1      34.685 -19.410 -22.759  0.00  0.00    +0.026 C 
BRANCH   5   9
ATOM      7  F   UNL     1      36.551 -22.005 -17.878  0.00  0.00    -0.203 F 
ATOM      8  F   UNL     1      31.908 -21.400 -18.679  0.00  0.00    -0.203 F 
ATOM      9  C   UNL     1      34.809 -19.906 -20.282  0.00  0.00    +0.000 C 
ATOM     10  C   UNL     1      33.481 -20.208 -19.978  0.00  0.00    +0.028 C 
ATOM     11  C   UNL     1      35.843 -20.515 -19.570  0.00  0.00    +0.028 C 
ATOM     12  C   UNL     1      34.221 -21.726 -18.252  0.00  0.00    +0.119 C 
ATOM     13  C   UNL     1      35.549 -21.424 -18.555  0.00  0.00    +0.157 C 
ATOM     14  C   UNL     1      33.188 -21.118 -18.964  0.00  0.00    +0.157 C 
BRANCH  12  15
ATOM     15  N   UNL     1      33.921 -22.658 -17.212  0.00  0.00    -0.214 N 
ATOM     16  H   UNL     1      33.232 -23.350 -17.336  0.00  0.00    +0.174 HD
BRANCH  15  17
ATOM     17  S   UNL     1      34.800 -22.539 -15.735  0.00  0.00    +0.056 S 
ATOM     18  O   UNL     1      35.673 -23.694 -15.627  0.00  0.00    -0.154 OA
ATOM     19  O   UNL     1      35.321 -21.200 -15.549  0.00  0.00    -0.154 OA
ATOM     20  C   UNL     1      33.481 -22.779 -14.566  0.00  0.00    +0.200 C 
ENDBRANCH  15  17
ENDBRANCH  12  15
ENDBRANCH   5   9
ENDBRANCH   2   5
BRANCH   3  22
ATOM     21  C   UNL     1      33.655 -14.351 -22.267  0.00  0.00    +0.007 C 
ATOM     22  C   UNL     1      34.042 -15.312 -21.417  0.00  0.00    +0.058 C 
BRANCH  21  25
ATOM     23  N   UNL     1      32.196 -10.879 -22.378  0.00  0.00    -0.406 NA
ATOM     24  C   UNL     1      32.841 -12.021 -22.707  0.00  0.00    +0.108 C 
ATOM     25  C   UNL     1      32.944 -13.121 -21.873  0.00  0.00    +0.022 C 
ATOM     26  C   UNL     1      32.346 -13.047 -20.620  0.00  0.00    -0.017 C 
ATOM     27  C   UNL     1      31.628 -10.843 -21.152  0.00  0.00    +0.184 C 
ATOM     28  C   UNL     1      31.673 -11.890 -20.245  0.00  0.00    +0.089 C 
BRANCH  27  32
ATOM     29  F   UNL     1      30.082  -9.146 -21.773  0.00  0.00    -0.164 F 
ATOM     30  F   UNL     1      30.128  -9.708 -19.674  0.00  0.00    -0.164 F 
ATOM     31  F   UNL     1      31.749  -8.540 -20.516  0.00  0.00    -0.164 F 
ATOM     32  C   UNL     1      30.913  -9.586 -20.784  0.00  0.00    +0.442 C 
ENDBRANCH  27  32
BRANCH  24  33
ATOM     33  C   UNL     1      33.462 -12.033 -24.066  0.00  0.00    +0.059 C 
BRANCH  33  34
ATOM     34  C   UNL     1      32.527 -12.632 -25.124  0.00  0.00    +0.007 C 
ATOM     35  C   UNL     1      32.996 -14.001 -25.587  0.00  0.00    +0.000 C 
ENDBRANCH  33  34
ENDBRANCH  24  33
ENDBRANCH  21  25
ENDBRANCH   3  22
TORSDOF 9
ENDMDL
MODEL 7
REMARK VINA RESULT:     -10.2      5.691     10.928
REMARK  Name = 56649347
REMARK  9 active torsions:
REMARK  status: ('A' for Active; 'I' for Inactive)
REMARK    1  A    between atoms: N_2  and  C_5
REMARK    2  A    between atoms: C_3  and  C_22
REMARK    3  A    between atoms: C_5  and  C_9
REMARK    4  A    between atoms: C_12  and  N_15
REMARK    5  A    between atoms: N_15  and  S_17
REMARK    6  A    between atoms: C_21  and  C_25
REMARK    7  A    between atoms: C_24  and  C_33
REMARK    8  A    between atoms: C_27  and  C_32
REMARK    9  A    between atoms: C_33  and  C_34
REMARK                            x       y       z     vdW  Elec       q    Type
REMARK                         _______ _______ _______ _____ _____    ______ ____
ROOT
ATOM      1  O   UNL     1      32.825 -19.370 -22.359  0.00  0.00    -0.270 OA
ATOM      2  N   UNL     1      34.837 -18.968 -21.266  0.00  0.00    -0.299 N 
ATOM      3  C   UNL     1      33.565 -19.501 -21.389  0.00  0.00    +0.246 C 
ATOM      4  H   UNL     1      35.340 -19.140 -20.438  0.00  0.00    +0.150 HD
ENDROOT
BRANCH   2   5
ATOM      5  C   UNL     1      35.460 -18.171 -22.300  0.00  0.00    +0.095 C 
ATOM      6  C   UNL     1      36.917 -17.888 -21.939  0.00  0.00    +0.026 C 
BRANCH   5   9
ATOM      7  F   UNL     1      33.247 -15.110 -25.395  0.00  0.00    -0.203 F 
ATOM      8  F   UNL     1      33.238 -14.109 -20.752  0.00  0.00    -0.203 F 
ATOM      9  C   UNL     1      34.674 -16.907 -22.575  0.00  0.00    +0.000 C 
ATOM     10  C   UNL     1      34.309 -16.069 -21.520  0.00  0.00    +0.028 C 
ATOM     11  C   UNL     1      34.313 -16.580 -23.882  0.00  0.00    +0.028 C 
ATOM     12  C   UNL     1      33.224 -14.579 -23.080  0.00  0.00    +0.119 C 
ATOM     13  C   UNL     1      33.587 -15.416 -24.135  0.00  0.00    +0.157 C 
ATOM     14  C   UNL     1      33.584 -14.906 -21.773  0.00  0.00    +0.157 C 
BRANCH  12  15
ATOM     15  N   UNL     1      32.481 -13.387 -23.340  0.00  0.00    -0.214 N 
ATOM     16  H   UNL     1      31.516 -13.424 -23.532  0.00  0.00    +0.174 HD
BRANCH  15  17
ATOM     17  S   UNL     1      33.318 -11.883 -23.305  0.00  0.00    +0.056 S 
ATOM     18  O   UNL     1      34.187 -11.868 -22.143  0.00  0.00    -0.154 OA
ATOM     19  O   UNL     1      33.836 -11.547 -24.617  0.00  0.00    -0.154 OA
ATOM     20  C   UNL     1      31.968 -10.780 -22.953  0.00  0.00    +0.200 C 
ENDBRANCH  15  17
ENDBRANCH  12  15
ENDBRANCH   5   9
ENDBRANCH   2   5
BRANCH   3  22
ATOM     21  C   UNL     1      34.115 -20.822 -19.397  0.00  0.00    +0.007 C 
ATOM     22  C   UNL     1      33.172 -20.280 -20.180  0.00  0.00    +0.058 C 
BRANCH  21  25
ATOM     23  N   UNL     1      34.620 -22.655 -16.144  0.00  0.00    -0.406 NA
ATOM     24  C   UNL     1      34.836 -21.942 -17.273  0.00  0.00    +0.108 C 
ATOM     25  C   UNL     1      33.842 -21.601 -18.176  0.00  0.00    +0.022 C 
ATOM     26  C   UNL     1      32.544 -22.017 -17.904  0.00  0.00    -0.017 C 
ATOM     27  C   UNL     1      33.346 -23.042 -15.913  0.00  0.00    +0.184 C 
ATOM     28  C   UNL     1      32.282 -22.751 -16.752  0.00  0.00    +0.089 C 
BRANCH  27  32
ATOM     29  F   UNL     1      33.067 -23.042 -13.552  0.00  0.00    -0.164 F 
ATOM     30  F   UNL     1      31.919 -24.509 -14.674  0.00  0.00    -0.164 F 
ATOM     31  F   UNL     1      34.057 -24.772 -14.421  0.00  0.00    -0.164 F 
ATOM     32  C   UNL     1      33.102 -23.827 -14.668  0.00  0.00    +0.442 C 
ENDBRANCH  27  32
BRANCH  24  33
ATOM     33  C   UNL     1      36.253 -21.529 -17.505  0.00  0.00    +0.059 C 
BRANCH  33  34
ATOM     34  C   UNL     1      37.011 -21.298 -16.193  0.00  0.00    +0.007 C 
ATOM     35  C   UNL     1      37.892 -22.483 -15.830  0.00  0.00    +0.000 C 
ENDBRANCH  33  34
ENDBRANCH  24  33
ENDBRANCH  21  25
ENDBRANCH   3  22
TORSDOF 9
ENDMDL
MODEL 8
REMARK VINA RESULT:     -10.2      6.166      9.643
REMARK  Name = 56649347
REMARK  9 active torsions:
REMARK  status: ('A' for Active; 'I' for Inactive)
REMARK    1  A    between atoms: N_2  and  C_5
REMARK    2  A    between atoms: C_3  and  C_22
REMARK    3  A    between atoms: C_5  and  C_9
REMARK    4  A    between atoms: C_12  and  N_15
REMARK    5  A    between atoms: N_15  and  S_17
REMARK    6  A    between atoms: C_21  and  C_25
REMARK    7  A    between atoms: C_24  and  C_33
REMARK    8  A    between atoms: C_27  and  C_32
REMARK    9  A    between atoms: C_33  and  C_34
REMARK                            x       y       z     vdW  Elec       q    Type
REMARK                         _______ _______ _______ _____ _____    ______ ____
ROOT
ATOM      1  O   UNL     1      34.525 -15.930 -25.158  0.00  0.00    -0.270 OA
ATOM      2  N   UNL     1      34.183 -16.686 -22.986  0.00  0.00    -0.299 N 
ATOM      3  C   UNL     1      34.281 -15.721 -23.973  0.00  0.00    +0.246 C 
ATOM      4  H   UNL     1      33.982 -16.400 -22.066  0.00  0.00    +0.150 HD
ENDROOT
BRANCH   2   5
ATOM      5  C   UNL     1      34.363 -18.099 -23.245  0.00  0.00    +0.095 C 
ATOM      6  C   UNL     1      33.348 -18.577 -24.281  0.00  0.00    +0.026 C 
BRANCH   5   9
ATOM      7  F   UNL     1      31.854 -20.172 -19.604  0.00  0.00    -0.203 F 
ATOM      8  F   UNL     1      36.586 -20.581 -19.677  0.00  0.00    -0.203 F 
ATOM      9  C   UNL     1      34.312 -18.906 -21.966  0.00  0.00    +0.000 C 
ATOM     10  C   UNL     1      35.493 -19.382 -21.394  0.00  0.00    +0.028 C 
ATOM     11  C   UNL     1      33.086 -19.175 -21.358  0.00  0.00    +0.028 C 
ATOM     12  C   UNL     1      34.219 -20.396 -19.609  0.00  0.00    +0.119 C 
ATOM     13  C   UNL     1      33.039 -19.921 -20.180  0.00  0.00    +0.157 C 
ATOM     14  C   UNL     1      35.446 -20.127 -20.216  0.00  0.00    +0.157 C 
BRANCH  12  15
ATOM     15  N   UNL     1      34.171 -21.159 -18.403  0.00  0.00    -0.214 N 
ATOM     16  H   UNL     1      34.732 -20.920 -17.630  0.00  0.00    +0.174 HD
BRANCH  15  17
ATOM     17  S   UNL     1      33.103 -22.508 -18.337  0.00  0.00    +0.056 S 
ATOM     18  O   UNL     1      31.752 -22.015 -18.139  0.00  0.00    -0.154 OA
ATOM     19  O   UNL     1      33.395 -23.454 -19.396  0.00  0.00    -0.154 OA
ATOM     20  C   UNL     1      33.615 -23.239 -16.797  0.00  0.00    +0.200 C 
ENDBRANCH  15  17
ENDBRANCH  12  15
ENDBRANCH   5   9
ENDBRANCH   2   5
BRANCH   3  22
ATOM     21  C   UNL     1      32.854 -13.764 -23.587  0.00  0.00    +0.007 C 
ATOM     22  C   UNL     1      34.049 -14.351 -23.433  0.00  0.00    +0.058 C 
BRANCH  21  25
ATOM     23  N   UNL     1      31.593 -10.996 -21.363  0.00  0.00    -0.406 NA
ATOM     24  C   UNL     1      31.919 -12.214 -21.852  0.00  0.00    +0.108 C 
ATOM     25  C   UNL     1      32.511 -12.420 -23.087  0.00  0.00    +0.022 C 
ATOM     26  C   UNL     1      32.788 -11.306 -23.871  0.00  0.00    -0.017 C 
ATOM     27  C   UNL     1      31.876  -9.937 -22.153  0.00  0.00    +0.184 C 
ATOM     28  C   UNL     1      32.468 -10.037 -23.403  0.00  0.00    +0.089 C 
BRANCH  27  32
ATOM     29  F   UNL     1      30.557  -7.969 -22.360  0.00  0.00    -0.164 F 
ATOM     30  F   UNL     1      31.037  -8.620 -20.341  0.00  0.00    -0.164 F 
ATOM     31  F   UNL     1      32.572  -7.721 -21.581  0.00  0.00    -0.164 F 
ATOM     32  C   UNL     1      31.520  -8.590 -21.618  0.00  0.00    +0.442 C 
ENDBRANCH  27  32
BRANCH  24  33
ATOM     33  C   UNL     1      31.593 -13.367 -20.960  0.00  0.00    +0.059 C 
BRANCH  33  34
ATOM     34  C   UNL     1      32.635 -13.555 -19.851  0.00  0.00    +0.007 C 
ATOM     35  C   UNL     1      33.647 -14.634 -20.199  0.00  0.00    +0.000 C 
ENDBRANCH  33  34
ENDBRANCH  24  33
ENDBRANCH  21  25
ENDBRANCH   3  22
TORSDOF 9
ENDMDL
MODEL 9
REMARK VINA RESULT:      -9.8      5.761     11.070
REMARK  Name = 56649347
REMARK  9 active torsions:
REMARK  status: ('A' for Active; 'I' for Inactive)
REMARK    1  A    between atoms: N_2  and  C_5
REMARK    2  A    between atoms: C_3  and  C_22
REMARK    3  A    between atoms: C_5  and  C_9
REMARK    4  A    between atoms: C_12  and  N_15
REMARK    5  A    between atoms: N_15  and  S_17
REMARK    6  A    between atoms: C_21  and  C_25
REMARK    7  A    between atoms: C_24  and  C_33
REMARK    8  A    between atoms: C_27  and  C_32
REMARK    9  A    between atoms: C_33  and  C_34
REMARK                            x       y       z     vdW  Elec       q    Type
REMARK                         _______ _______ _______ _____ _____    ______ ____
ROOT
ATOM      1  O   UNL     1      34.236 -20.182 -22.272  0.00  0.00    -0.270 OA
ATOM      2  N   UNL     1      34.408 -18.126 -21.201  0.00  0.00    -0.299 N 
ATOM      3  C   UNL     1      34.108 -19.475 -21.277  0.00  0.00    +0.246 C 
ATOM      4  H   UNL     1      34.264 -17.659 -20.346  0.00  0.00    +0.150 HD
ENDROOT
BRANCH   2   5
ATOM      5  C   UNL     1      34.924 -17.368 -22.321  0.00  0.00    +0.095 C 
ATOM      6  C   UNL     1      36.443 -17.503 -22.391  0.00  0.00    +0.026 C 
BRANCH   5   9
ATOM      7  F   UNL     1      33.703 -13.365 -19.805  0.00  0.00    -0.203 F 
ATOM      8  F   UNL     1      33.587 -13.237 -24.551  0.00  0.00    -0.203 F 
ATOM      9  C   UNL     1      34.470 -15.926 -22.270  0.00  0.00    +0.000 C 
ATOM     10  C   UNL     1      34.230 -15.228 -23.454  0.00  0.00    +0.028 C 
ATOM     11  C   UNL     1      34.291 -15.293 -21.040  0.00  0.00    +0.028 C 
ATOM     12  C   UNL     1      33.634 -13.266 -22.177  0.00  0.00    +0.119 C 
ATOM     13  C   UNL     1      33.873 -13.963 -20.993  0.00  0.00    +0.157 C 
ATOM     14  C   UNL     1      33.812 -13.899 -23.408  0.00  0.00    +0.157 C 
BRANCH  12  15
ATOM     15  N   UNL     1      33.206 -11.904 -22.129  0.00  0.00    -0.214 N 
ATOM     16  H   UNL     1      33.804 -11.176 -22.414  0.00  0.00    +0.174 HD
BRANCH  15  17
ATOM     17  S   UNL     1      31.615 -11.571 -21.559  0.00  0.00    +0.056 S 
ATOM     18  O   UNL     1      30.711 -12.559 -22.118  0.00  0.00    -0.154 OA
ATOM     19  O   UNL     1      31.621 -11.298 -20.135  0.00  0.00    -0.154 OA
ATOM     20  C   UNL     1      31.293 -10.040 -22.406  0.00  0.00    +0.200 C 
ENDBRANCH  15  17
ENDBRANCH  12  15
ENDBRANCH   5   9
ENDBRANCH   2   5
BRANCH   3  22
ATOM     21  C   UNL     1      34.099 -21.138 -19.476  0.00  0.00    +0.007 C 
ATOM     22  C   UNL     1      33.597 -20.002 -19.980  0.00  0.00    +0.058 C 
BRANCH  21  25
ATOM     23  N   UNL     1      34.215 -22.587 -15.999  0.00  0.00    -0.406 NA
ATOM     24  C   UNL     1      34.568 -22.031 -17.180  0.00  0.00    +0.108 C 
ATOM     25  C   UNL     1      33.676 -21.746 -18.201  0.00  0.00    +0.022 C 
ATOM     26  C   UNL     1      32.335 -22.050 -17.997  0.00  0.00    -0.017 C 
ATOM     27  C   UNL     1      32.902 -22.868 -15.837  0.00  0.00    +0.184 C 
ATOM     28  C   UNL     1      31.932 -22.621 -16.795  0.00  0.00    +0.089 C 
BRANCH  27  32
ATOM     29  F   UNL     1      33.488 -24.266 -14.005  0.00  0.00    -0.164 F 
ATOM     30  F   UNL     1      32.209 -22.563 -13.568  0.00  0.00    -0.164 F 
ATOM     31  F   UNL     1      31.403 -24.280 -14.620  0.00  0.00    -0.164 F 
ATOM     32  C   UNL     1      32.506 -23.480 -14.535  0.00  0.00    +0.442 C 
ENDBRANCH  27  32
BRANCH  24  33
ATOM     33  C   UNL     1      36.024 -21.733 -17.333  0.00  0.00    +0.059 C 
BRANCH  33  34
ATOM     34  C   UNL     1      36.692 -21.405 -15.993  0.00  0.00    +0.007 C 
ATOM     35  C   UNL     1      37.502 -22.576 -15.461  0.00  0.00    +0.000 C 
ENDBRANCH  33  34
ENDBRANCH  24  33
ENDBRANCH  21  25
ENDBRANCH   3  22
TORSDOF 9
ENDMDL
