MODEL 1
REMARK VINA RESULT:     -10.8      0.000      0.000
REMARK  Name = 3085201
REMARK  2 active torsions:
REMARK  status: ('A' for Active; 'I' for Inactive)
REMARK    1  A    between atoms: C_7  and  O_20
REMARK    2  A    between atoms: O_20  and  S_21
REMARK                            x       y       z     vdW  Elec       q    Type
REMARK                         _______ _______ _______ _____ _____    ______ ____
ROOT
ATOM      1  O   UNL     1      35.953 -23.771 -11.542  0.00  0.00    -0.291 OA
ATOM      2  C   UNL     1      33.697 -21.129 -18.375  0.00  0.00    +0.002 C 
ATOM      3  C   UNL     1      34.825 -20.882 -19.396  0.00  0.00    +0.027 C 
ATOM      4  C   UNL     1      34.018 -22.277 -17.415  0.00  0.00    +0.001 C 
ATOM      5  C   UNL     1      35.313 -21.922 -16.626  0.00  0.00    +0.004 C 
ATOM      6  C   UNL     1      36.084 -20.470 -18.623  0.00  0.00    +0.002 C 
ATOM      7  C   UNL     1      34.174 -19.754 -20.218  0.00  0.00    +0.147 C 
ATOM      8  C   UNL     1      32.443 -21.212 -19.242  0.00  0.00    +0.003 C 
ATOM      9  C   UNL     1      36.476 -21.523 -17.571  0.00  0.00    +0.000 C 
ATOM     10  C   UNL     1      35.706 -23.071 -15.648  0.00  0.00    +0.019 C 
ATOM     11  C   UNL     1      32.708 -20.204 -20.377  0.00  0.00    +0.032 C 
ATOM     12  C   UNL     1      32.868 -22.546 -16.437  0.00  0.00    +0.004 C 
ATOM     13  C   UNL     1      35.153 -22.093 -20.306  0.00  0.00    +0.002 C 
ATOM     14  C   UNL     1      33.214 -23.702 -15.506  0.00  0.00    +0.022 C 
ATOM     15  C   UNL     1      34.521 -23.487 -14.785  0.00  0.00    -0.042 C 
ATOM     16  C   UNL     1      36.921 -22.658 -14.791  0.00  0.00    +0.012 C 
ATOM     17  C   UNL     1      37.148 -23.587 -13.612  0.00  0.00    +0.069 C 
ATOM     18  C   UNL     1      34.599 -23.705 -13.463  0.00  0.00    +0.029 C 
ATOM     19  C   UNL     1      35.904 -23.664 -12.765  0.00  0.00    +0.173 C 
ENDROOT
BRANCH   7  20
ATOM     20  O   UNL     1      34.798 -19.551 -21.471  0.00  0.00    -0.203 OA
BRANCH  20  21
ATOM     21  S   UNL     1      35.411 -18.081 -21.853  0.00  0.00    +0.239 S 
ATOM     22  O   UNL     1      35.152 -17.199 -20.505  0.00  0.00    -0.022 OA
ATOM     23  O   UNL     1      36.847 -18.227 -22.009  0.00  0.00    -0.116 OA
ATOM     24  O   UNL     1      34.616 -17.507 -22.922  0.00  0.00    -0.116 OA
ENDBRANCH  20  21
ENDBRANCH   7  20
TORSDOF 2
ENDMDL
MODEL 2
REMARK VINA RESULT:     -10.3      5.041      6.306
REMARK  Name = 3085201
REMARK  2 active torsions:
REMARK  status: ('A' for Active; 'I' for Inactive)
REMARK    1  A    between atoms: C_7  and  O_20
REMARK    2  A    between atoms: O_20  and  S_21
REMARK                            x       y       z     vdW  Elec       q    Type
REMARK                         _______ _______ _______ _____ _____    ______ ____
ROOT
ATOM      1  O   UNL     1      39.485 -25.528 -13.218  0.00  0.00    -0.291 OA
ATOM      2  C   UNL     1      32.677 -23.124 -15.794  0.00  0.00    +0.002 C 
ATOM      3  C   UNL     1      31.513 -23.232 -14.790  0.00  0.00    +0.027 C 
ATOM      4  C   UNL     1      34.021 -22.873 -15.106  0.00  0.00    +0.001 C 
ATOM      5  C   UNL     1      34.322 -24.061 -14.146  0.00  0.00    +0.004 C 
ATOM      6  C   UNL     1      31.776 -24.441 -13.885  0.00  0.00    +0.002 C 
ATOM      7  C   UNL     1      30.346 -23.409 -15.780  0.00  0.00    +0.147 C 
ATOM      8  C   UNL     1      32.169 -22.119 -16.824  0.00  0.00    +0.003 C 
ATOM      9  C   UNL     1      33.140 -24.338 -13.179  0.00  0.00    +0.000 C 
ATOM     10  C   UNL     1      35.670 -23.847 -13.393  0.00  0.00    +0.019 C 
ATOM     11  C   UNL     1      30.657 -22.405 -16.908  0.00  0.00    +0.032 C 
ATOM     12  C   UNL     1      35.163 -22.718 -16.118  0.00  0.00    +0.004 C 
ATOM     13  C   UNL     1      31.292 -21.971 -13.915  0.00  0.00    +0.002 C 
ATOM     14  C   UNL     1      36.483 -22.455 -15.402  0.00  0.00    +0.022 C 
ATOM     15  C   UNL     1      36.793 -23.507 -14.365  0.00  0.00    -0.042 C 
ATOM     16  C   UNL     1      36.011 -25.084 -12.535  0.00  0.00    +0.012 C 
ATOM     17  C   UNL     1      37.446 -25.074 -12.041  0.00  0.00    +0.069 C 
ATOM     18  C   UNL     1      38.018 -24.053 -14.314  0.00  0.00    +0.029 C 
ATOM     19  C   UNL     1      38.395 -24.960 -13.206  0.00  0.00    +0.173 C 
ENDROOT
BRANCH   7  20
ATOM     20  O   UNL     1      29.082 -23.164 -15.195  0.00  0.00    -0.203 OA
BRANCH  20  21
ATOM     21  S   UNL     1      27.785 -22.854 -16.147  0.00  0.00    +0.239 S 
ATOM     22  O   UNL     1      26.575 -22.618 -15.078  0.00  0.00    -0.022 OA
ATOM     23  O   UNL     1      28.023 -21.592 -16.823  0.00  0.00    -0.116 OA
ATOM     24  O   UNL     1      27.476 -24.045 -16.916  0.00  0.00    -0.116 OA
ENDBRANCH  20  21
ENDBRANCH   7  20
TORSDOF 2
ENDMDL
MODEL 3
REMARK VINA RESULT:     -10.3      2.983      8.170
REMARK  Name = 3085201
REMARK  2 active torsions:
REMARK  status: ('A' for Active; 'I' for Inactive)
REMARK    1  A    between atoms: C_7  and  O_20
REMARK    2  A    between atoms: O_20  and  S_21
REMARK                            x       y       z     vdW  Elec       q    Type
REMARK                         _______ _______ _______ _____ _____    ______ ____
ROOT
ATOM      1  O   UNL     1      32.801 -19.032 -21.476  0.00  0.00    -0.291 OA
ATOM      2  C   UNL     1      35.750 -22.266 -15.183  0.00  0.00    +0.002 C 
ATOM      3  C   UNL     1      34.834 -23.275 -14.465  0.00  0.00    +0.027 C 
ATOM      4  C   UNL     1      35.514 -22.234 -16.694  0.00  0.00    +0.001 C 
ATOM      5  C   UNL     1      34.037 -21.817 -16.961  0.00  0.00    +0.004 C 
ATOM      6  C   UNL     1      33.381 -22.830 -14.672  0.00  0.00    +0.002 C 
ATOM      7  C   UNL     1      35.360 -23.110 -13.026  0.00  0.00    +0.147 C 
ATOM      8  C   UNL     1      37.141 -22.608 -14.654  0.00  0.00    +0.003 C 
ATOM      9  C   UNL     1      33.035 -22.696 -16.166  0.00  0.00    +0.000 C 
ATOM     10  C   UNL     1      33.727 -21.794 -18.489  0.00  0.00    +0.019 C 
ATOM     11  C   UNL     1      36.891 -23.032 -13.195  0.00  0.00    +0.032 C 
ATOM     12  C   UNL     1      36.465 -21.263 -17.404  0.00  0.00    +0.004 C 
ATOM     13  C   UNL     1      34.994 -24.744 -14.932  0.00  0.00    +0.002 C 
ATOM     14  C   UNL     1      36.213 -21.265 -18.907  0.00  0.00    +0.022 C 
ATOM     15  C   UNL     1      34.770 -20.982 -19.247  0.00  0.00    -0.042 C 
ATOM     16  C   UNL     1      32.299 -21.268 -18.742  0.00  0.00    +0.012 C 
ATOM     17  C   UNL     1      32.055 -20.918 -20.198  0.00  0.00    +0.069 C 
ATOM     18  C   UNL     1      34.472 -20.088 -20.203  0.00  0.00    +0.029 C 
ATOM     19  C   UNL     1      33.078 -19.917 -20.670  0.00  0.00    +0.173 C 
ENDROOT
BRANCH   7  20
ATOM     20  O   UNL     1      34.981 -24.172 -12.172  0.00  0.00    -0.203 OA
BRANCH  20  21
ATOM     21  S   UNL     1      35.900 -24.542 -10.868  0.00  0.00    +0.239 S 
ATOM     22  O   UNL     1      34.801 -24.919  -9.723  0.00  0.00    -0.022 OA
ATOM     23  O   UNL     1      36.641 -25.751 -11.177  0.00  0.00    -0.116 OA
ATOM     24  O   UNL     1      36.602 -23.347 -10.437  0.00  0.00    -0.116 OA
ENDBRANCH  20  21
ENDBRANCH   7  20
TORSDOF 2
ENDMDL
MODEL 4
REMARK VINA RESULT:     -10.3      2.891      7.538
REMARK  Name = 3085201
REMARK  2 active torsions:
REMARK  status: ('A' for Active; 'I' for Inactive)
REMARK    1  A    between atoms: C_7  and  O_20
REMARK    2  A    between atoms: O_20  and  S_21
REMARK                            x       y       z     vdW  Elec       q    Type
REMARK                         _______ _______ _______ _____ _____    ______ ____
ROOT
ATOM      1  O   UNL     1      34.491 -19.019 -23.086  0.00  0.00    -0.291 OA
ATOM      2  C   UNL     1      34.680 -23.033 -16.559  0.00  0.00    +0.002 C 
ATOM      3  C   UNL     1      35.837 -22.688 -15.602  0.00  0.00    +0.027 C 
ATOM      4  C   UNL     1      34.225 -21.828 -17.385  0.00  0.00    +0.001 C 
ATOM      5  C   UNL     1      35.425 -21.326 -18.242  0.00  0.00    +0.004 C 
ATOM      6  C   UNL     1      37.041 -22.255 -16.448  0.00  0.00    +0.002 C 
ATOM      7  C   UNL     1      35.997 -24.051 -14.903  0.00  0.00    +0.147 C 
ATOM      8  C   UNL     1      33.672 -23.742 -15.659  0.00  0.00    +0.003 C 
ATOM      9  C   UNL     1      36.690 -21.080 -17.378  0.00  0.00    +0.000 C 
ATOM     10  C   UNL     1      35.028 -20.078 -19.087  0.00  0.00    +0.019 C 
ATOM     11  C   UNL     1      34.548 -24.518 -14.657  0.00  0.00    +0.032 C 
ATOM     12  C   UNL     1      33.041 -22.171 -18.297  0.00  0.00    +0.004 C 
ATOM     13  C   UNL     1      35.513 -21.584 -14.564  0.00  0.00    +0.002 C 
ATOM     14  C   UNL     1      32.604 -20.947 -19.094  0.00  0.00    +0.022 C 
ATOM     15  C   UNL     1      33.743 -20.328 -19.866  0.00  0.00    -0.042 C 
ATOM     16  C   UNL     1      36.189 -19.664 -20.016  0.00  0.00    +0.012 C 
ATOM     17  C   UNL     1      35.759 -18.673 -21.082  0.00  0.00    +0.069 C 
ATOM     18  C   UNL     1      33.573 -19.995 -21.155  0.00  0.00    +0.029 C 
ATOM     19  C   UNL     1      34.615 -19.237 -21.884  0.00  0.00    +0.173 C 
ENDROOT
BRANCH   7  20
ATOM     20  O   UNL     1      36.733 -23.972 -13.697  0.00  0.00    -0.203 OA
BRANCH  20  21
ATOM     21  S   UNL     1      38.022 -24.955 -13.459  0.00  0.00    +0.239 S 
ATOM     22  O   UNL     1      38.053 -25.876 -14.805  0.00  0.00    -0.022 OA
ATOM     23  O   UNL     1      39.215 -24.129 -13.468  0.00  0.00    -0.116 OA
ATOM     24  O   UNL     1      37.744 -25.823 -12.330  0.00  0.00    -0.116 OA
ENDBRANCH  20  21
ENDBRANCH   7  20
TORSDOF 2
ENDMDL
MODEL 5
REMARK VINA RESULT:      -9.7      5.305      7.661
REMARK  Name = 3085201
REMARK  2 active torsions:
REMARK  status: ('A' for Active; 'I' for Inactive)
REMARK    1  A    between atoms: C_7  and  O_20
REMARK    2  A    between atoms: O_20  and  S_21
REMARK                            x       y       z     vdW  Elec       q    Type
REMARK                         _______ _______ _______ _____ _____    ______ ____
ROOT
ATOM      1  O   UNL     1      26.744 -22.435 -15.397  0.00  0.00    -0.291 OA
ATOM      2  C   UNL     1      34.405 -22.549 -15.173  0.00  0.00    +0.002 C 
ATOM      3  C   UNL     1      35.025 -23.594 -14.225  0.00  0.00    +0.027 C 
ATOM      4  C   UNL     1      33.069 -23.011 -15.759  0.00  0.00    +0.001 C 
ATOM      5  C   UNL     1      32.068 -23.255 -14.591  0.00  0.00    +0.004 C 
ATOM      6  C   UNL     1      34.070 -23.787 -13.040  0.00  0.00    +0.002 C 
ATOM      7  C   UNL     1      36.340 -22.869 -13.881  0.00  0.00    +0.147 C 
ATOM      8  C   UNL     1      35.552 -22.201 -16.119  0.00  0.00    +0.003 C 
ATOM      9  C   UNL     1      32.661 -24.194 -13.507  0.00  0.00    +0.000 C 
ATOM     10  C   UNL     1      30.692 -23.756 -15.126  0.00  0.00    +0.019 C 
ATOM     11  C   UNL     1      36.806 -22.281 -15.228  0.00  0.00    +0.032 C 
ATOM     12  C   UNL     1      32.487 -21.986 -16.739  0.00  0.00    +0.004 C 
ATOM     13  C   UNL     1      35.321 -24.968 -14.877  0.00  0.00    +0.002 C 
ATOM     14  C   UNL     1      31.165 -22.482 -17.313  0.00  0.00    +0.022 C 
ATOM     15  C   UNL     1      30.174 -22.852 -16.238  0.00  0.00    -0.042 C 
ATOM     16  C   UNL     1      29.677 -23.881 -13.970  0.00  0.00    +0.012 C 
ATOM     17  C   UNL     1      28.251 -24.048 -14.461  0.00  0.00    +0.069 C 
ATOM     18  C   UNL     1      28.905 -22.421 -16.321  0.00  0.00    +0.029 C 
ATOM     19  C   UNL     1      27.878 -22.906 -15.371  0.00  0.00    +0.173 C 
ENDROOT
BRANCH   7  20
ATOM     20  O   UNL     1      37.315 -23.726 -13.319  0.00  0.00    -0.203 OA
BRANCH  20  21
ATOM     21  S   UNL     1      37.661 -23.635 -11.720  0.00  0.00    +0.239 S 
ATOM     22  O   UNL     1      36.511 -22.635 -11.138  0.00  0.00    -0.022 OA
ATOM     23  O   UNL     1      37.433 -24.947 -11.143  0.00  0.00    -0.116 OA
ATOM     24  O   UNL     1      38.946 -22.980 -11.558  0.00  0.00    -0.116 OA
ENDBRANCH  20  21
ENDBRANCH   7  20
TORSDOF 2
ENDMDL
MODEL 6
REMARK VINA RESULT:      -9.4     12.269     14.984
REMARK  Name = 3085201
REMARK  2 active torsions:
REMARK  status: ('A' for Active; 'I' for Inactive)
REMARK    1  A    between atoms: C_7  and  O_20
REMARK    2  A    between atoms: O_20  and  S_21
REMARK                            x       y       z     vdW  Elec       q    Type
REMARK                         _______ _______ _______ _____ _____    ______ ____
ROOT
ATOM      1  O   UNL     1      32.876 -14.145 -20.651  0.00  0.00    -0.291 OA
ATOM      2  C   UNL     1      31.836  -6.594 -21.464  0.00  0.00    +0.002 C 
ATOM      3  C   UNL     1      31.622  -6.106 -22.910  0.00  0.00    +0.027 C 
ATOM      4  C   UNL     1      31.300  -8.010 -21.239  0.00  0.00    +0.001 C 
ATOM      5  C   UNL     1      32.050  -8.986 -22.193  0.00  0.00    +0.004 C 
ATOM      6  C   UNL     1      32.413  -7.029 -23.846  0.00  0.00    +0.002 C 
ATOM      7  C   UNL     1      32.190  -4.680 -22.779  0.00  0.00    +0.147 C 
ATOM      8  C   UNL     1      31.290  -5.448 -20.617  0.00  0.00    +0.003 C 
ATOM      9  C   UNL     1      32.008  -8.503 -23.667  0.00  0.00    +0.000 C 
ATOM     10  C   UNL     1      31.525 -10.445 -22.028  0.00  0.00    +0.019 C 
ATOM     11  C   UNL     1      31.648  -4.185 -21.423  0.00  0.00    +0.032 C 
ATOM     12  C   UNL     1      31.473  -8.465 -19.785  0.00  0.00    +0.004 C 
ATOM     13  C   UNL     1      30.141  -6.058 -23.366  0.00  0.00    +0.002 C 
ATOM     14  C   UNL     1      30.918  -9.871 -19.592  0.00  0.00    +0.022 C 
ATOM     15  C   UNL     1      31.513 -10.861 -20.562  0.00  0.00    -0.042 C 
ATOM     16  C   UNL     1      32.355 -11.418 -22.892  0.00  0.00    +0.012 C 
ATOM     17  C   UNL     1      32.111 -12.872 -22.533  0.00  0.00    +0.069 C 
ATOM     18  C   UNL     1      31.954 -12.049 -20.118  0.00  0.00    +0.029 C 
ATOM     19  C   UNL     1      32.386 -13.098 -21.069  0.00  0.00    +0.173 C 
ENDROOT
BRANCH   7  20
ATOM     20  O   UNL     1      31.802  -3.830 -23.840  0.00  0.00    -0.203 OA
BRANCH  20  21
ATOM     21  S   UNL     1      32.796  -3.617 -25.125  0.00  0.00    +0.239 S 
ATOM     22  O   UNL     1      32.093  -4.501 -26.301  0.00  0.00    -0.022 OA
ATOM     23  O   UNL     1      32.717  -2.223 -25.520  0.00  0.00    -0.116 OA
ATOM     24  O   UNL     1      34.082  -4.218 -24.824  0.00  0.00    -0.116 OA
ENDBRANCH  20  21
ENDBRANCH   7  20
TORSDOF 2
ENDMDL
MODEL 7
REMARK VINA RESULT:      -9.1      9.647     12.510
REMARK  Name = 3085201
REMARK  2 active torsions:
REMARK  status: ('A' for Active; 'I' for Inactive)
REMARK    1  A    between atoms: C_7  and  O_20
REMARK    2  A    between atoms: O_20  and  S_21
REMARK                            x       y       z     vdW  Elec       q    Type
REMARK                         _______ _______ _______ _____ _____    ______ ____
ROOT
ATOM      1  O   UNL     1      35.275 -16.645 -22.440  0.00  0.00    -0.291 OA
ATOM      2  C   UNL     1      31.971  -9.954 -20.687  0.00  0.00    +0.002 C 
ATOM      3  C   UNL     1      31.585  -9.071 -21.888  0.00  0.00    +0.027 C 
ATOM      4  C   UNL     1      31.896 -11.448 -21.011  0.00  0.00    +0.001 C 
ATOM      5  C   UNL     1      32.884 -11.758 -22.174  0.00  0.00    +0.004 C 
ATOM      6  C   UNL     1      32.596  -9.328 -23.013  0.00  0.00    +0.002 C 
ATOM      7  C   UNL     1      31.696  -7.685 -21.225  0.00  0.00    +0.147 C 
ATOM      8  C   UNL     1      31.124  -9.397 -19.546  0.00  0.00    +0.003 C 
ATOM      9  C   UNL     1      32.662 -10.819 -23.389  0.00  0.00    +0.000 C 
ATOM     10  C   UNL     1      32.832 -13.266 -22.568  0.00  0.00    +0.019 C 
ATOM     11  C   UNL     1      31.061  -7.884 -19.834  0.00  0.00    +0.032 C 
ATOM     12  C   UNL     1      32.234 -12.317 -19.794  0.00  0.00    +0.004 C 
ATOM     13  C   UNL     1      30.149  -9.299 -22.426  0.00  0.00    +0.002 C 
ATOM     14  C   UNL     1      32.137 -13.797 -20.146  0.00  0.00    +0.022 C 
ATOM     15  C   UNL     1      32.981 -14.159 -21.343  0.00  0.00    -0.042 C 
ATOM     16  C   UNL     1      33.897 -13.580 -23.639  0.00  0.00    +0.012 C 
ATOM     17  C   UNL     1      34.115 -15.071 -23.826  0.00  0.00    +0.069 C 
ATOM     18  C   UNL     1      33.773 -15.242 -21.299  0.00  0.00    +0.029 C 
ATOM     19  C   UNL     1      34.480 -15.711 -22.512  0.00  0.00    +0.173 C 
ENDROOT
BRANCH   7  20
ATOM     20  O   UNL     1      31.042  -6.666 -21.957  0.00  0.00    -0.203 OA
BRANCH  20  21
ATOM     21  S   UNL     1      31.842  -5.287 -22.333  0.00  0.00    +0.239 S 
ATOM     22  O   UNL     1      33.383  -5.781 -22.530  0.00  0.00    -0.022 OA
ATOM     23  O   UNL     1      31.359  -4.834 -23.625  0.00  0.00    -0.116 OA
ATOM     24  O   UNL     1      31.801  -4.397 -21.187  0.00  0.00    -0.116 OA
ENDBRANCH  20  21
ENDBRANCH   7  20
TORSDOF 2
ENDMDL
MODEL 8
REMARK VINA RESULT:      -9.1      3.640      7.757
REMARK  Name = 3085201
REMARK  2 active torsions:
REMARK  status: ('A' for Active; 'I' for Inactive)
REMARK    1  A    between atoms: C_7  and  O_20
REMARK    2  A    between atoms: O_20  and  S_21
REMARK                            x       y       z     vdW  Elec       q    Type
REMARK                         _______ _______ _______ _____ _____    ______ ____
ROOT
ATOM      1  O   UNL     1      35.387 -17.452 -22.291  0.00  0.00    -0.291 OA
ATOM      2  C   UNL     1      34.039 -22.194 -16.422  0.00  0.00    +0.002 C 
ATOM      3  C   UNL     1      32.695 -22.946 -16.472  0.00  0.00    +0.027 C 
ATOM      4  C   UNL     1      34.600 -21.904 -17.816  0.00  0.00    +0.001 C 
ATOM      5  C   UNL     1      33.581 -21.017 -18.590  0.00  0.00    +0.004 C 
ATOM      6  C   UNL     1      31.673 -22.046 -17.178  0.00  0.00    +0.002 C 
ATOM      7  C   UNL     1      32.456 -23.132 -14.962  0.00  0.00    +0.147 C 
ATOM      8  C   UNL     1      34.871 -23.017 -15.441  0.00  0.00    +0.003 C 
ATOM      9  C   UNL     1      32.154 -21.627 -18.579  0.00  0.00    +0.000 C 
ATOM     10  C   UNL     1      34.086 -20.709 -20.033  0.00  0.00    +0.019 C 
ATOM     11  C   UNL     1      33.843 -23.517 -14.409  0.00  0.00    +0.032 C 
ATOM     12  C   UNL     1      35.960 -21.201 -17.752  0.00  0.00    +0.004 C 
ATOM     13  C   UNL     1      32.747 -24.322 -17.184  0.00  0.00    +0.002 C 
ATOM     14  C   UNL     1      36.496 -20.938 -19.155  0.00  0.00    +0.022 C 
ATOM     15  C   UNL     1      35.514 -20.179 -20.012  0.00  0.00    -0.042 C 
ATOM     16  C   UNL     1      33.124 -19.736 -20.745  0.00  0.00    +0.012 C 
ATOM     17  C   UNL     1      33.719 -19.150 -22.013  0.00  0.00    +0.069 C 
ATOM     18  C   UNL     1      35.932 -19.126 -20.733  0.00  0.00    +0.029 C 
ATOM     19  C   UNL     1      35.028 -18.470 -21.705  0.00  0.00    +0.173 C 
ENDROOT
BRANCH   7  20
ATOM     20  O   UNL     1      31.485 -24.118 -14.672  0.00  0.00    -0.203 OA
BRANCH  20  21
ATOM     21  S   UNL     1      30.127 -23.714 -13.849  0.00  0.00    +0.239 S 
ATOM     22  O   UNL     1      29.168 -25.021 -14.029  0.00  0.00    -0.022 OA
ATOM     23  O   UNL     1      30.475 -23.618 -12.443  0.00  0.00    -0.116 OA
ATOM     24  O   UNL     1      29.490 -22.596 -14.520  0.00  0.00    -0.116 OA
ENDBRANCH  20  21
ENDBRANCH   7  20
TORSDOF 2
ENDMDL
MODEL 9
REMARK VINA RESULT:      -9.1      5.194      7.391
REMARK  Name = 3085201
REMARK  2 active torsions:
REMARK  status: ('A' for Active; 'I' for Inactive)
REMARK    1  A    between atoms: C_7  and  O_20
REMARK    2  A    between atoms: O_20  and  S_21
REMARK                            x       y       z     vdW  Elec       q    Type
REMARK                         _______ _______ _______ _____ _____    ______ ____
ROOT
ATOM      1  O   UNL     1      28.103 -21.737 -15.149  0.00  0.00    -0.291 OA
ATOM      2  C   UNL     1      35.649 -23.086 -15.115  0.00  0.00    +0.002 C 
ATOM      3  C   UNL     1      36.120 -24.194 -14.153  0.00  0.00    +0.027 C 
ATOM      4  C   UNL     1      34.239 -23.339 -15.653  0.00  0.00    +0.001 C 
ATOM      5  C   UNL     1      33.247 -23.390 -14.454  0.00  0.00    +0.004 C 
ATOM      6  C   UNL     1      35.181 -24.201 -12.940  0.00  0.00    +0.002 C 
ATOM      7  C   UNL     1      37.545 -23.684 -13.864  0.00  0.00    +0.147 C 
ATOM      8  C   UNL     1      36.808 -22.951 -16.099  0.00  0.00    +0.003 C 
ATOM      9  C   UNL     1      33.712 -24.385 -13.359  0.00  0.00    +0.000 C 
ATOM     10  C   UNL     1      31.793 -23.674 -14.940  0.00  0.00    +0.019 C 
ATOM     11  C   UNL     1      38.059 -23.211 -15.238  0.00  0.00    +0.032 C 
ATOM     12  C   UNL     1      33.801 -22.257 -16.647  0.00  0.00    +0.004 C 
ATOM     13  C   UNL     1      36.171 -25.613 -14.774  0.00  0.00    +0.002 C 
ATOM     14  C   UNL     1      32.400 -22.546 -17.174  0.00  0.00    +0.022 C 
ATOM     15  C   UNL     1      31.395 -22.725 -16.064  0.00  0.00    -0.042 C 
ATOM     16  C   UNL     1      30.805 -23.605 -13.756  0.00  0.00    +0.012 C 
ATOM     17  C   UNL     1      29.357 -23.550 -14.206  0.00  0.00    +0.069 C 
ATOM     18  C   UNL     1      30.211 -22.096 -16.127  0.00  0.00    +0.029 C 
ATOM     19  C   UNL     1      29.147 -22.385 -15.139  0.00  0.00    +0.173 C 
ENDROOT
BRANCH   7  20
ATOM     20  O   UNL     1      38.384 -24.674 -13.302  0.00  0.00    -0.203 OA
BRANCH  20  21
ATOM     21  S   UNL     1      39.819 -25.027 -14.008  0.00  0.00    +0.239 S 
ATOM     22  O   UNL     1      39.399 -25.493 -15.514  0.00  0.00    -0.022 OA
ATOM     23  O   UNL     1      40.570 -23.791 -14.127  0.00  0.00    -0.116 OA
ATOM     24  O   UNL     1      40.402 -26.172 -13.333  0.00  0.00    -0.116 OA
ENDBRANCH  20  21
ENDBRANCH   7  20
TORSDOF 2
ENDMDL
