MODEL 1
REMARK VINA RESULT:     -12.1      0.000      0.000
REMARK  Name = 44129631
REMARK  3 active torsions:
REMARK  status: ('A' for Active; 'I' for Inactive)
REMARK    1  A    between atoms: C_5  and  C_15
REMARK    2  A    between atoms: C_11  and  S_20
REMARK    3  A    between atoms: S_20  and  N_23
REMARK                            x       y       z     vdW  Elec       q    Type
REMARK                         _______ _______ _______ _____ _____    ______ ____
ROOT
ATOM      1  S   UNL     1      32.837 -21.381 -19.220  0.00  0.00    +0.060 S 
ATOM      2  O   UNL     1      31.715 -20.880 -18.451  0.00  0.00    -0.153 OA
ATOM      3  O   UNL     1      32.732 -22.586 -20.018  0.00  0.00    -0.153 OA
ATOM      4  N   UNL     1      33.435 -20.111 -20.191  0.00  0.00    -0.180 NA
ATOM      5  C   UNL     1      34.825 -20.275 -20.669  0.00  0.00    +0.080 C 
ATOM      6  C   UNL     1      35.751 -20.132 -19.458  0.00  0.00    +0.045 C 
ATOM      7  C   UNL     1      35.432 -21.065 -18.313  0.00  0.00    -0.002 C 
ATOM      8  C   UNL     1      34.174 -21.647 -18.100  0.00  0.00    +0.119 C 
ATOM      9  C   UNL     1      36.437 -21.318 -17.365  0.00  0.00    -0.006 C 
ATOM     10  C   UNL     1      33.922 -22.464 -16.994  0.00  0.00    +0.039 C 
ATOM     11  C   UNL     1      34.939 -22.710 -16.075  0.00  0.00    +0.120 C 
ATOM     12  C   UNL     1      36.195 -22.136 -16.260  0.00  0.00    -0.003 C 
ATOM     13  C   UNL     1      37.306 -22.373 -15.289  0.00  0.00    +0.032 C 
ATOM     14  H   UNL     1      33.389 -19.250 -19.646  0.00  0.00    +0.149 HD
ENDROOT
BRANCH   5  15
ATOM     15  C   UNL     1      35.113 -19.221 -21.722  0.00  0.00    +0.016 C 
ATOM     16  C   UNL     1      33.938 -18.973 -22.663  0.00  0.00    +0.001 C 
ATOM     17  C   UNL     1      35.355 -17.834 -21.133  0.00  0.00    +0.001 C 
ATOM     18  C   UNL     1      34.250 -17.622 -23.299  0.00  0.00    +0.000 C 
ATOM     19  C   UNL     1      35.171 -16.893 -22.320  0.00  0.00    +0.000 C 
ENDBRANCH   5  15
BRANCH  11  20
ATOM     20  S   UNL     1      34.604 -23.738 -14.700  0.00  0.00    +0.063 S 
ATOM     21  O   UNL     1      35.114 -25.069 -14.992  0.00  0.00    -0.153 OA
ATOM     22  O   UNL     1      35.033 -23.045 -13.495  0.00  0.00    -0.153 OA
BRANCH  20  23
ATOM     23  N   UNL     1      32.893 -23.778 -14.736  0.00  0.00    -0.160 NA
ATOM     24  N   UNL     1      30.103 -23.488 -14.100  0.00  0.00    +0.387 N 
ATOM     25  C   UNL     1      32.221 -22.451 -14.828  0.00  0.00    +0.073 C 
ATOM     26  C   UNL     1      32.250 -24.643 -13.706  0.00  0.00    +0.073 C 
ATOM     27  C   UNL     1      30.737 -22.650 -15.127  0.00  0.00    -0.058 C 
ATOM     28  C   UNL     1      30.764 -24.800 -14.026  0.00  0.00    -0.058 C 
ATOM     29  C   UNL     1      28.676 -23.646 -14.373  0.00  0.00    -0.101 C 
ATOM     30  H   UNL     1      30.208 -23.024 -13.197  0.00  0.00    -0.080 HD
ENDBRANCH  20  23
ENDBRANCH  11  20
TORSDOF 3
ENDMDL
MODEL 2
REMARK VINA RESULT:     -11.2      2.439      3.999
REMARK  Name = 44129631
REMARK  3 active torsions:
REMARK  status: ('A' for Active; 'I' for Inactive)
REMARK    1  A    between atoms: C_5  and  C_15
REMARK    2  A    between atoms: C_11  and  S_20
REMARK    3  A    between atoms: S_20  and  N_23
REMARK                            x       y       z     vdW  Elec       q    Type
REMARK                         _______ _______ _______ _____ _____    ______ ____
ROOT
ATOM      1  S   UNL     1      33.076 -21.681 -19.036  0.00  0.00    +0.060 S 
ATOM      2  O   UNL     1      31.909 -21.265 -18.284  0.00  0.00    -0.153 OA
ATOM      3  O   UNL     1      33.099 -22.926 -19.776  0.00  0.00    -0.153 OA
ATOM      4  N   UNL     1      33.535 -20.402 -20.070  0.00  0.00    -0.180 NA
ATOM      5  C   UNL     1      34.935 -20.441 -20.548  0.00  0.00    +0.080 C 
ATOM      6  C   UNL     1      35.841 -20.144 -19.352  0.00  0.00    +0.045 C 
ATOM      7  C   UNL     1      35.625 -21.050 -18.162  0.00  0.00    -0.002 C 
ATOM      8  C   UNL     1      34.436 -21.750 -17.914  0.00  0.00    +0.119 C 
ATOM      9  C   UNL     1      36.652 -21.150 -17.210  0.00  0.00    -0.006 C 
ATOM     10  C   UNL     1      34.274 -22.536 -16.769  0.00  0.00    +0.039 C 
ATOM     11  C   UNL     1      35.312 -22.629 -15.847  0.00  0.00    +0.120 C 
ATOM     12  C   UNL     1      36.500 -21.936 -16.066  0.00  0.00    -0.003 C 
ATOM     13  C   UNL     1      37.631 -22.008 -15.092  0.00  0.00    +0.032 C 
ATOM     14  H   UNL     1      33.400 -19.525 -19.566  0.00  0.00    +0.149 HD
ENDROOT
BRANCH   5  15
ATOM     15  C   UNL     1      35.108 -19.412 -21.651  0.00  0.00    +0.016 C 
ATOM     16  C   UNL     1      33.808 -19.088 -22.381  0.00  0.00    +0.001 C 
ATOM     17  C   UNL     1      35.540 -18.043 -21.134  0.00  0.00    +0.001 C 
ATOM     18  C   UNL     1      34.096 -17.764 -23.082  0.00  0.00    +0.000 C 
ATOM     19  C   UNL     1      35.219 -17.097 -22.286  0.00  0.00    +0.000 C 
ENDBRANCH   5  15
BRANCH  11  20
ATOM     20  S   UNL     1      35.090 -23.622 -14.422  0.00  0.00    +0.063 S 
ATOM     21  O   UNL     1      34.826 -22.744 -13.292  0.00  0.00    -0.153 OA
ATOM     22  O   UNL     1      34.154 -24.687 -14.749  0.00  0.00    -0.153 OA
BRANCH  20  23
ATOM     23  N   UNL     1      36.655 -24.294 -14.250  0.00  0.00    -0.160 NA
ATOM     24  N   UNL     1      38.891 -25.952 -13.527  0.00  0.00    +0.387 N 
ATOM     25  C   UNL     1      36.854 -25.628 -14.883  0.00  0.00    +0.073 C 
ATOM     26  C   UNL     1      37.220 -24.256 -12.871  0.00  0.00    +0.073 C 
ATOM     27  C   UNL     1      38.342 -25.973 -14.890  0.00  0.00    -0.058 C 
ATOM     28  C   UNL     1      38.702 -24.628 -12.916  0.00  0.00    -0.058 C 
ATOM     29  C   UNL     1      40.307 -26.316 -13.537  0.00  0.00    -0.101 C 
ATOM     30  H   UNL     1      38.387 -26.640 -12.967  0.00  0.00    -0.080 HD
ENDBRANCH  20  23
ENDBRANCH  11  20
TORSDOF 3
ENDMDL
MODEL 3
REMARK VINA RESULT:     -11.0      2.623      4.179
REMARK  Name = 44129631
REMARK  3 active torsions:
REMARK  status: ('A' for Active; 'I' for Inactive)
REMARK    1  A    between atoms: C_5  and  C_15
REMARK    2  A    between atoms: C_11  and  S_20
REMARK    3  A    between atoms: S_20  and  N_23
REMARK                            x       y       z     vdW  Elec       q    Type
REMARK                         _______ _______ _______ _____ _____    ______ ____
ROOT
ATOM      1  S   UNL     1      36.168 -21.452 -17.283  0.00  0.00    +0.060 S 
ATOM      2  O   UNL     1      37.042 -22.590 -17.079  0.00  0.00    -0.153 OA
ATOM      3  O   UNL     1      36.356 -20.211 -16.558  0.00  0.00    -0.153 OA
ATOM      4  N   UNL     1      36.094 -21.122 -18.956  0.00  0.00    -0.180 NA
ATOM      5  C   UNL     1      34.922 -20.337 -19.399  0.00  0.00    +0.080 C 
ATOM      6  C   UNL     1      33.686 -21.228 -19.257  0.00  0.00    +0.045 C 
ATOM      7  C   UNL     1      33.489 -21.809 -17.876  0.00  0.00    -0.002 C 
ATOM      8  C   UNL     1      34.519 -21.977 -16.941  0.00  0.00    +0.119 C 
ATOM      9  C   UNL     1      32.209 -22.268 -17.528  0.00  0.00    -0.006 C 
ATOM     10  C   UNL     1      34.288 -22.567 -15.694  0.00  0.00    +0.039 C 
ATOM     11  C   UNL     1      33.006 -23.003 -15.367  0.00  0.00    +0.120 C 
ATOM     12  C   UNL     1      31.968 -22.854 -16.283  0.00  0.00    -0.003 C 
ATOM     13  C   UNL     1      30.583 -23.318 -15.967  0.00  0.00    +0.032 C 
ATOM     14  H   UNL     1      36.081 -22.013 -19.453  0.00  0.00    +0.149 HD
ENDROOT
BRANCH   5  15
ATOM     15  C   UNL     1      35.135 -19.900 -20.838  0.00  0.00    +0.016 C 
ATOM     16  C   UNL     1      33.863 -19.387 -21.506  0.00  0.00    +0.001 C 
ATOM     17  C   UNL     1      36.075 -18.706 -20.970  0.00  0.00    +0.001 C 
ATOM     18  C   UNL     1      34.369 -18.599 -22.711  0.00  0.00    +0.000 C 
ATOM     19  C   UNL     1      35.797 -18.171 -22.371  0.00  0.00    +0.000 C 
ENDBRANCH   5  15
BRANCH  11  20
ATOM     20  S   UNL     1      32.737 -23.734 -13.801  0.00  0.00    +0.063 S 
ATOM     21  O   UNL     1      32.169 -22.727 -12.919  0.00  0.00    -0.153 OA
ATOM     22  O   UNL     1      32.046 -24.999 -13.999  0.00  0.00    -0.153 OA
BRANCH  20  23
ATOM     23  N   UNL     1      34.347 -24.055 -13.313  0.00  0.00    -0.160 NA
ATOM     24  N   UNL     1      36.730 -25.274 -12.262  0.00  0.00    +0.387 N 
ATOM     25  C   UNL     1      35.036 -25.150 -14.053  0.00  0.00    +0.073 C 
ATOM     26  C   UNL     1      34.560 -24.174 -11.843  0.00  0.00    +0.073 C 
ATOM     27  C   UNL     1      36.524 -25.139 -13.712  0.00  0.00    -0.058 C 
ATOM     28  C   UNL     1      36.058 -24.182 -11.543  0.00  0.00    -0.058 C 
ATOM     29  C   UNL     1      38.157 -25.298 -11.945  0.00  0.00    -0.101 C 
ATOM     30  H   UNL     1      36.320 -26.158 -11.961  0.00  0.00    -0.080 HD
ENDBRANCH  20  23
ENDBRANCH  11  20
TORSDOF 3
ENDMDL
MODEL 4
REMARK VINA RESULT:      -9.4      3.814      6.710
REMARK  Name = 44129631
REMARK  3 active torsions:
REMARK  status: ('A' for Active; 'I' for Inactive)
REMARK    1  A    between atoms: C_5  and  C_15
REMARK    2  A    between atoms: C_11  and  S_20
REMARK    3  A    between atoms: S_20  and  N_23
REMARK                            x       y       z     vdW  Elec       q    Type
REMARK                         _______ _______ _______ _____ _____    ______ ____
ROOT
ATOM      1  S   UNL     1      30.607 -23.565 -13.636  0.00  0.00    +0.060 S 
ATOM      2  O   UNL     1      30.941 -22.793 -12.456  0.00  0.00    -0.153 OA
ATOM      3  O   UNL     1      30.575 -25.014 -13.611  0.00  0.00    -0.153 OA
ATOM      4  N   UNL     1      29.133 -22.978 -14.266  0.00  0.00    -0.180 NA
ATOM      5  C   UNL     1      28.876 -23.296 -15.687  0.00  0.00    +0.080 C 
ATOM      6  C   UNL     1      29.859 -22.479 -16.529  0.00  0.00    +0.045 C 
ATOM      7  C   UNL     1      31.312 -22.674 -16.159  0.00  0.00    -0.002 C 
ATOM      8  C   UNL     1      31.750 -23.119 -14.905  0.00  0.00    +0.119 C 
ATOM      9  C   UNL     1      32.288 -22.327 -17.107  0.00  0.00    -0.006 C 
ATOM     10  C   UNL     1      33.110 -23.234 -14.601  0.00  0.00    +0.039 C 
ATOM     11  C   UNL     1      34.059 -22.896 -15.563  0.00  0.00    +0.120 C 
ATOM     12  C   UNL     1      33.649 -22.442 -16.814  0.00  0.00    -0.003 C 
ATOM     13  C   UNL     1      34.641 -22.064 -17.865  0.00  0.00    +0.032 C 
ATOM     14  H   UNL     1      29.130 -21.963 -14.165  0.00  0.00    +0.149 HD
ENDROOT
BRANCH   5  15
ATOM     15  C   UNL     1      27.435 -22.951 -16.018  0.00  0.00    +0.016 C 
ATOM     16  C   UNL     1      26.829 -21.925 -15.065  0.00  0.00    +0.001 C 
ATOM     17  C   UNL     1      27.276 -22.269 -17.373  0.00  0.00    +0.001 C 
ATOM     18  C   UNL     1      25.611 -21.394 -15.817  0.00  0.00    +0.000 C 
ATOM     19  C   UNL     1      25.894 -21.627 -17.302  0.00  0.00    +0.000 C 
ENDBRANCH   5  15
BRANCH  11  20
ATOM     20  S   UNL     1      35.756 -23.050 -15.164  0.00  0.00    +0.063 S 
ATOM     21  O   UNL     1      36.235 -24.318 -15.691  0.00  0.00    -0.153 OA
ATOM     22  O   UNL     1      36.426 -21.811 -15.531  0.00  0.00    -0.153 OA
BRANCH  20  23
ATOM     23  N   UNL     1      35.679 -23.151 -13.457  0.00  0.00    -0.160 NA
ATOM     24  N   UNL     1      36.199 -23.754 -10.694  0.00  0.00    +0.387 N 
ATOM     25  C   UNL     1      36.788 -22.478 -12.723  0.00  0.00    +0.073 C 
ATOM     26  C   UNL     1      35.409 -24.510 -12.907  0.00  0.00    +0.073 C 
ATOM     27  C   UNL     1      36.448 -22.411 -11.235  0.00  0.00    -0.058 C 
ATOM     28  C   UNL     1      35.096 -24.405 -11.415  0.00  0.00    -0.058 C 
ATOM     29  C   UNL     1      35.909 -23.686  -9.262  0.00  0.00    -0.101 C 
ATOM     30  H   UNL     1      37.043 -24.314 -10.823  0.00  0.00    -0.080 HD
ENDBRANCH  20  23
ENDBRANCH  11  20
TORSDOF 3
ENDMDL
MODEL 5
REMARK VINA RESULT:      -9.3      6.766     10.863
REMARK  Name = 44129631
REMARK  3 active torsions:
REMARK  status: ('A' for Active; 'I' for Inactive)
REMARK    1  A    between atoms: C_5  and  C_15
REMARK    2  A    between atoms: C_11  and  S_20
REMARK    3  A    between atoms: S_20  and  N_23
REMARK                            x       y       z     vdW  Elec       q    Type
REMARK                         _______ _______ _______ _____ _____    ______ ____
ROOT
ATOM      1  S   UNL     1      32.574 -13.204 -20.310  0.00  0.00    +0.060 S 
ATOM      2  O   UNL     1      33.891 -13.554 -19.817  0.00  0.00    -0.153 OA
ATOM      3  O   UNL     1      31.395 -13.952 -19.922  0.00  0.00    -0.153 OA
ATOM      4  N   UNL     1      32.311 -11.544 -20.015  0.00  0.00    -0.180 NA
ATOM      5  C   UNL     1      31.267 -10.907 -20.847  0.00  0.00    +0.080 C 
ATOM      6  C   UNL     1      31.797 -10.834 -22.281  0.00  0.00    +0.045 C 
ATOM      7  C   UNL     1      32.243 -12.160 -22.851  0.00  0.00    -0.002 C 
ATOM      8  C   UNL     1      32.634 -13.258 -22.073  0.00  0.00    +0.119 C 
ATOM      9  C   UNL     1      32.335 -12.284 -24.247  0.00  0.00    -0.006 C 
ATOM     10  C   UNL     1      33.086 -14.446 -22.655  0.00  0.00    +0.039 C 
ATOM     11  C   UNL     1      33.156 -14.548 -24.042  0.00  0.00    +0.120 C 
ATOM     12  C   UNL     1      32.782 -13.467 -24.838  0.00  0.00    -0.003 C 
ATOM     13  C   UNL     1      32.852 -13.541 -26.328  0.00  0.00    +0.032 C 
ATOM     14  H   UNL     1      33.190 -11.051 -20.182  0.00  0.00    +0.149 HD
ENDROOT
BRANCH   5  15
ATOM     15  C   UNL     1      30.966  -9.527 -20.290  0.00  0.00    +0.016 C 
ATOM     16  C   UNL     1      31.790  -9.184 -19.053  0.00  0.00    +0.001 C 
ATOM     17  C   UNL     1      31.335  -8.398 -21.248  0.00  0.00    +0.001 C 
ATOM     18  C   UNL     1      31.688  -7.666 -18.947  0.00  0.00    +0.000 C 
ATOM     19  C   UNL     1      31.383  -7.161 -20.358  0.00  0.00    +0.000 C 
ENDBRANCH   5  15
BRANCH  11  20
ATOM     20  S   UNL     1      33.721 -16.045 -24.751  0.00  0.00    +0.063 S 
ATOM     21  O   UNL     1      32.622 -16.639 -25.497  0.00  0.00    -0.153 OA
ATOM     22  O   UNL     1      34.991 -15.786 -25.413  0.00  0.00    -0.153 OA
BRANCH  20  23
ATOM     23  N   UNL     1      34.009 -16.979 -23.346  0.00  0.00    -0.160 NA
ATOM     24  N   UNL     1      35.080 -18.835 -21.428  0.00  0.00    +0.387 N 
ATOM     25  C   UNL     1      35.287 -16.692 -22.635  0.00  0.00    +0.073 C 
ATOM     26  C   UNL     1      33.787 -18.445 -23.495  0.00  0.00    +0.073 C 
ATOM     27  C   UNL     1      35.282 -17.387 -21.275  0.00  0.00    -0.058 C 
ATOM     28  C   UNL     1      33.811 -19.108 -22.118  0.00  0.00    -0.058 C 
ATOM     29  C   UNL     1      35.110 -19.499 -20.125  0.00  0.00    -0.101 C 
ATOM     30  H   UNL     1      35.842 -19.207 -21.995  0.00  0.00    -0.080 HD
ENDBRANCH  20  23
ENDBRANCH  11  20
TORSDOF 3
ENDMDL
MODEL 6
REMARK VINA RESULT:      -9.3      8.762     13.540
REMARK  Name = 44129631
REMARK  3 active torsions:
REMARK  status: ('A' for Active; 'I' for Inactive)
REMARK    1  A    between atoms: C_5  and  C_15
REMARK    2  A    between atoms: C_11  and  S_20
REMARK    3  A    between atoms: S_20  and  N_23
REMARK                            x       y       z     vdW  Elec       q    Type
REMARK                         _______ _______ _______ _____ _____    ______ ____
ROOT
ATOM      1  S   UNL     1      33.314 -12.918 -24.300  0.00  0.00    +0.060 S 
ATOM      2  O   UNL     1      34.137 -11.935 -24.975  0.00  0.00    -0.153 OA
ATOM      3  O   UNL     1      32.136 -13.483 -24.929  0.00  0.00    -0.153 OA
ATOM      4  N   UNL     1      34.321 -14.182 -23.752  0.00  0.00    -0.180 NA
ATOM      5  C   UNL     1      33.767 -15.010 -22.659  0.00  0.00    +0.080 C 
ATOM      6  C   UNL     1      33.728 -14.146 -21.397  0.00  0.00    +0.045 C 
ATOM      7  C   UNL     1      32.979 -12.843 -21.554  0.00  0.00    -0.002 C 
ATOM      8  C   UNL     1      32.766 -12.203 -22.783  0.00  0.00    +0.119 C 
ATOM      9  C   UNL     1      32.523 -12.197 -20.394  0.00  0.00    -0.006 C 
ATOM     10  C   UNL     1      32.110 -10.971 -22.864  0.00  0.00    +0.039 C 
ATOM     11  C   UNL     1      31.655 -10.357 -21.699  0.00  0.00    +0.120 C 
ATOM     12  C   UNL     1      31.863 -10.969 -20.465  0.00  0.00    -0.003 C 
ATOM     13  C   UNL     1      31.395 -10.333 -19.196  0.00  0.00    +0.032 C 
ATOM     14  H   UNL     1      35.194 -13.769 -23.421  0.00  0.00    +0.149 HD
ENDROOT
BRANCH   5  15
ATOM     15  C   UNL     1      34.646 -16.234 -22.473  0.00  0.00    +0.016 C 
ATOM     16  C   UNL     1      34.650 -16.760 -21.041  0.00  0.00    +0.001 C 
ATOM     17  C   UNL     1      34.162 -17.447 -23.262  0.00  0.00    +0.001 C 
ATOM     18  C   UNL     1      35.179 -18.186 -21.170  0.00  0.00    +0.000 C 
ATOM     19  C   UNL     1      34.875 -18.623 -22.604  0.00  0.00    +0.000 C 
ENDBRANCH   5  15
BRANCH  11  20
ATOM     20  S   UNL     1      30.833  -8.817 -21.822  0.00  0.00    +0.063 S 
ATOM     21  O   UNL     1      29.498  -9.055 -22.350  0.00  0.00    -0.153 OA
ATOM     22  O   UNL     1      31.000  -8.107 -20.564  0.00  0.00    -0.153 OA
BRANCH  20  23
ATOM     23  N   UNL     1      31.775  -8.043 -23.024  0.00  0.00    -0.160 NA
ATOM     24  N   UNL     1      33.207  -6.109 -24.598  0.00  0.00    +0.387 N 
ATOM     25  C   UNL     1      33.084  -7.499 -22.562  0.00  0.00    +0.073 C 
ATOM     26  C   UNL     1      31.046  -7.060 -23.875  0.00  0.00    +0.073 C 
ATOM     27  C   UNL     1      33.922  -7.092 -23.771  0.00  0.00    -0.058 C 
ATOM     28  C   UNL     1      31.925  -6.660 -25.059  0.00  0.00    -0.058 C 
ATOM     29  C   UNL     1      34.030  -5.698 -25.735  0.00  0.00    -0.101 C 
ATOM     30  H   UNL     1      33.017  -5.286 -24.026  0.00  0.00    -0.080 HD
ENDBRANCH  20  23
ENDBRANCH  11  20
TORSDOF 3
ENDMDL
MODEL 7
REMARK VINA RESULT:      -9.2     10.759     15.914
REMARK  Name = 44129631
REMARK  3 active torsions:
REMARK  status: ('A' for Active; 'I' for Inactive)
REMARK    1  A    between atoms: C_5  and  C_15
REMARK    2  A    between atoms: C_11  and  S_20
REMARK    3  A    between atoms: S_20  and  N_23
REMARK                            x       y       z     vdW  Elec       q    Type
REMARK                         _______ _______ _______ _____ _____    ______ ____
ROOT
ATOM      1  S   UNL     1      30.873 -10.807 -21.322  0.00  0.00    +0.060 S 
ATOM      2  O   UNL     1      29.528 -10.587 -21.815  0.00  0.00    -0.153 OA
ATOM      3  O   UNL     1      31.207 -10.630 -19.922  0.00  0.00    -0.153 OA
ATOM      4  N   UNL     1      31.391 -12.350 -21.835  0.00  0.00    -0.180 NA
ATOM      5  C   UNL     1      32.855 -12.558 -21.848  0.00  0.00    +0.080 C 
ATOM      6  C   UNL     1      33.435 -11.703 -22.977  0.00  0.00    +0.045 C 
ATOM      7  C   UNL     1      33.073 -10.238 -22.901  0.00  0.00    -0.002 C 
ATOM      8  C   UNL     1      31.952  -9.740 -22.223  0.00  0.00    +0.119 C 
ATOM      9  C   UNL     1      33.870  -9.322 -23.605  0.00  0.00    -0.006 C 
ATOM     10  C   UNL     1      31.637  -8.378 -22.228  0.00  0.00    +0.039 C 
ATOM     11  C   UNL     1      32.451  -7.487 -22.923  0.00  0.00    +0.120 C 
ATOM     12  C   UNL     1      33.566  -7.959 -23.613  0.00  0.00    -0.003 C 
ATOM     13  C   UNL     1      34.456  -7.031 -24.375  0.00  0.00    +0.032 C 
ATOM     14  H   UNL     1      31.044 -12.500 -22.783  0.00  0.00    +0.149 HD
ENDROOT
BRANCH   5  15
ATOM     15  C   UNL     1      33.142 -14.034 -22.060  0.00  0.00    +0.016 C 
ATOM     16  C   UNL     1      34.066 -14.304 -23.243  0.00  0.00    +0.001 C 
ATOM     17  C   UNL     1      33.904 -14.671 -20.901  0.00  0.00    +0.001 C 
ATOM     18  C   UNL     1      34.579 -15.721 -22.999  0.00  0.00    +0.000 C 
ATOM     19  C   UNL     1      34.462 -15.961 -21.493  0.00  0.00    +0.000 C 
ENDBRANCH   5  15
BRANCH  11  20
ATOM     20  S   UNL     1      32.043  -5.786 -22.914  0.00  0.00    +0.063 S 
ATOM     21  O   UNL     1      30.596  -5.665 -22.812  0.00  0.00    -0.153 OA
ATOM     22  O   UNL     1      32.897  -5.115 -21.945  0.00  0.00    -0.153 OA
BRANCH  20  23
ATOM     23  N   UNL     1      32.528  -5.328 -24.490  0.00  0.00    -0.160 NA
ATOM     24  N   UNL     1      32.691  -4.120 -27.095  0.00  0.00    +0.387 N 
ATOM     25  C   UNL     1      32.936  -3.903 -24.648  0.00  0.00    +0.073 C 
ATOM     26  C   UNL     1      31.621  -5.760 -25.591  0.00  0.00    +0.073 C 
ATOM     27  C   UNL     1      33.596  -3.709 -26.012  0.00  0.00    -0.058 C 
ATOM     28  C   UNL     1      32.306  -5.530 -26.937  0.00  0.00    -0.058 C 
ATOM     29  C   UNL     1      33.316  -3.900 -28.398  0.00  0.00    -0.101 C 
ATOM     30  H   UNL     1      31.847  -3.548 -27.043  0.00  0.00    -0.080 HD
ENDBRANCH  20  23
ENDBRANCH  11  20
TORSDOF 3
ENDMDL
MODEL 8
REMARK VINA RESULT:      -9.1     11.428     16.241
REMARK  Name = 44129631
REMARK  3 active torsions:
REMARK  status: ('A' for Active; 'I' for Inactive)
REMARK    1  A    between atoms: C_5  and  C_15
REMARK    2  A    between atoms: C_11  and  S_20
REMARK    3  A    between atoms: S_20  and  N_23
REMARK                            x       y       z     vdW  Elec       q    Type
REMARK                         _______ _______ _______ _____ _____    ______ ____
ROOT
ATOM      1  S   UNL     1      31.116 -10.642 -21.463  0.00  0.00    +0.060 S 
ATOM      2  O   UNL     1      29.714 -10.521 -21.811  0.00  0.00    -0.153 OA
ATOM      3  O   UNL     1      31.544 -10.833 -20.092  0.00  0.00    -0.153 OA
ATOM      4  N   UNL     1      31.813 -11.852 -22.445  0.00  0.00    -0.180 NA
ATOM      5  C   UNL     1      33.285 -11.793 -22.580  0.00  0.00    +0.080 C 
ATOM      6  C   UNL     1      33.624 -10.556 -23.415  0.00  0.00    +0.045 C 
ATOM      7  C   UNL     1      33.052  -9.264 -22.879  0.00  0.00    -0.002 C 
ATOM      8  C   UNL     1      31.935  -9.188 -22.037  0.00  0.00    +0.119 C 
ATOM      9  C   UNL     1      33.635  -8.058 -23.300  0.00  0.00    -0.006 C 
ATOM     10  C   UNL     1      31.419  -7.961 -21.612  0.00  0.00    +0.039 C 
ATOM     11  C   UNL     1      32.023  -6.779 -22.033  0.00  0.00    +0.120 C 
ATOM     12  C   UNL     1      33.129  -6.826 -22.877  0.00  0.00    -0.003 C 
ATOM     13  C   UNL     1      33.796  -5.577 -23.354  0.00  0.00    +0.032 C 
ATOM     14  H   UNL     1      31.408 -11.772 -23.378  0.00  0.00    +0.149 HD
ENDROOT
BRANCH   5  15
ATOM     15  C   UNL     1      33.771 -13.068 -23.245  0.00  0.00    +0.016 C 
ATOM     16  C   UNL     1      33.887 -14.243 -22.280  0.00  0.00    +0.001 C 
ATOM     17  C   UNL     1      32.803 -13.606 -24.295  0.00  0.00    +0.001 C 
ATOM     18  C   UNL     1      33.926 -15.469 -23.189  0.00  0.00    +0.000 C 
ATOM     19  C   UNL     1      33.239 -15.054 -24.490  0.00  0.00    +0.000 C 
ENDBRANCH   5  15
BRANCH  11  20
ATOM     20  S   UNL     1      31.363  -5.253 -21.486  0.00  0.00    +0.063 S 
ATOM     21  O   UNL     1      29.968  -5.460 -21.131  0.00  0.00    -0.153 OA
ATOM     22  O   UNL     1      32.283  -4.679 -20.515  0.00  0.00    -0.153 OA
BRANCH  20  23
ATOM     23  N   UNL     1      31.438  -4.333 -22.928  0.00  0.00    -0.160 NA
ATOM     24  N   UNL     1      30.814  -2.634 -25.163  0.00  0.00    +0.387 N 
ATOM     25  C   UNL     1      31.314  -2.858 -22.757  0.00  0.00    +0.073 C 
ATOM     26  C   UNL     1      30.584  -4.824 -24.047  0.00  0.00    +0.073 C 
ATOM     27  C   UNL     1      31.671  -2.159 -24.067  0.00  0.00    -0.058 C 
ATOM     28  C   UNL     1      30.954  -4.088 -25.334  0.00  0.00    -0.058 C 
ATOM     29  C   UNL     1      31.138  -1.937 -26.408  0.00  0.00    -0.101 C 
ATOM     30  H   UNL     1      29.844  -2.430 -24.924  0.00  0.00    -0.080 HD
ENDBRANCH  20  23
ENDBRANCH  11  20
TORSDOF 3
ENDMDL
MODEL 9
REMARK VINA RESULT:      -9.1      5.237      7.204
REMARK  Name = 44129631
REMARK  3 active torsions:
REMARK  status: ('A' for Active; 'I' for Inactive)
REMARK    1  A    between atoms: C_5  and  C_15
REMARK    2  A    between atoms: C_11  and  S_20
REMARK    3  A    between atoms: S_20  and  N_23
REMARK                            x       y       z     vdW  Elec       q    Type
REMARK                         _______ _______ _______ _____ _____    ______ ____
ROOT
ATOM      1  S   UNL     1      30.459 -23.837 -12.919  0.00  0.00    +0.060 S 
ATOM      2  O   UNL     1      30.216 -23.166 -11.658  0.00  0.00    -0.153 OA
ATOM      3  O   UNL     1      30.327 -25.275 -13.052  0.00  0.00    -0.153 OA
ATOM      4  N   UNL     1      29.526 -23.072 -14.127  0.00  0.00    -0.180 NA
ATOM      5  C   UNL     1      29.984 -23.287 -15.517  0.00  0.00    +0.080 C 
ATOM      6  C   UNL     1      31.304 -22.532 -15.692  0.00  0.00    +0.045 C 
ATOM      7  C   UNL     1      32.370 -22.892 -14.684  0.00  0.00    -0.002 C 
ATOM      8  C   UNL     1      32.104 -23.445 -13.423  0.00  0.00    +0.119 C 
ATOM      9  C   UNL     1      33.706 -22.598 -14.999  0.00  0.00    -0.006 C 
ATOM     10  C   UNL     1      33.127 -23.712 -12.509  0.00  0.00    +0.039 C 
ATOM     11  C   UNL     1      34.446 -23.423 -12.851  0.00  0.00    +0.120 C 
ATOM     12  C   UNL     1      34.735 -22.865 -14.094  0.00  0.00    -0.003 C 
ATOM     13  C   UNL     1      36.138 -22.535 -14.488  0.00  0.00    +0.032 C 
ATOM     14  H   UNL     1      29.538 -22.068 -13.944  0.00  0.00    +0.149 HD
ENDROOT
BRANCH   5  15
ATOM     15  C   UNL     1      28.918 -22.781 -16.472  0.00  0.00    +0.016 C 
ATOM     16  C   UNL     1      27.920 -23.858 -16.886  0.00  0.00    +0.001 C 
ATOM     17  C   UNL     1      28.012 -21.720 -15.853  0.00  0.00    +0.001 C 
ATOM     18  C   UNL     1      26.730 -23.073 -17.429  0.00  0.00    +0.000 C 
ATOM     19  C   UNL     1      26.796 -21.693 -16.773  0.00  0.00    +0.000 C 
ENDBRANCH   5  15
BRANCH  11  20
ATOM     20  S   UNL     1      35.713 -23.769 -11.694  0.00  0.00    +0.063 S 
ATOM     21  O   UNL     1      36.145 -22.512 -11.102  0.00  0.00    -0.153 OA
ATOM     22  O   UNL     1      35.267 -24.859 -10.839  0.00  0.00    -0.153 OA
BRANCH  20  23
ATOM     23  N   UNL     1      36.947 -24.348 -12.730  0.00  0.00    -0.160 NA
ATOM     24  N   UNL     1      39.199 -25.752 -13.836  0.00  0.00    +0.387 N 
ATOM     25  C   UNL     1      36.837 -25.783 -13.119  0.00  0.00    +0.073 C 
ATOM     26  C   UNL     1      38.338 -23.998 -12.327  0.00  0.00    +0.073 C 
ATOM     27  C   UNL     1      37.826 -26.083 -14.244  0.00  0.00    -0.058 C 
ATOM     28  C   UNL     1      39.300 -24.333 -13.467  0.00  0.00    -0.058 C 
ATOM     29  C   UNL     1      40.145 -26.074 -14.904  0.00  0.00    -0.101 C 
ATOM     30  H   UNL     1      39.436 -26.315 -13.018  0.00  0.00    -0.080 HD
ENDBRANCH  20  23
ENDBRANCH  11  20
TORSDOF 3
ENDMDL
