MODEL 1
REMARK VINA RESULT:     -13.4      0.000      0.000
REMARK  Name = 56842109
REMARK  7 active torsions:
REMARK  status: ('A' for Active; 'I' for Inactive)
REMARK    1  A    between atoms: C_1  and  C_24
REMARK    2  A    between atoms: C_3  and  C_9
REMARK    3  A    between atoms: C_5  and  O_22
REMARK    4  A    between atoms: N_8  and  C_11
REMARK    5  A    between atoms: C_11  and  C_12
REMARK    6  A    between atoms: C_15  and  C_21
REMARK    7  A    between atoms: C_24  and  C_29
REMARK                            x       y       z     vdW  Elec       q    Type
REMARK                         _______ _______ _______ _____ _____    ______ ____
ROOT
ATOM      1  C   UNL     1      33.588 -13.772 -23.144  0.00  0.00    -0.018 C 
ATOM      2  C   UNL     1      34.238 -14.597 -22.227  0.00  0.00    +0.003 C 
ATOM      3  C   UNL     1      34.413 -15.952 -22.509  0.00  0.00    +0.087 C 
ATOM      4  C   UNL     1      33.113 -14.302 -24.343  0.00  0.00    -0.001 C 
ATOM      5  C   UNL     1      33.938 -16.482 -23.708  0.00  0.00    +0.143 C 
ATOM      6  C   UNL     1      33.288 -15.657 -24.625  0.00  0.00    +0.037 C 
ENDROOT
BRANCH   3   9
ATOM      7  O   UNL     1      34.947 -16.600 -20.319  0.00  0.00    -0.270 OA
ATOM      8  N   UNL     1      35.894 -17.827 -22.044  0.00  0.00    -0.297 N 
ATOM      9  C   UNL     1      35.097 -16.795 -21.537  0.00  0.00    +0.249 C 
ATOM     10  H   UNL     1      35.968 -17.923 -23.021  0.00  0.00    +0.150 HD
BRANCH   8  11
ATOM     11  C   UNL     1      36.616 -18.760 -21.209  0.00  0.00    +0.117 C 
BRANCH  11  12
ATOM     12  C   UNL     1      35.691 -19.638 -20.417  0.00  0.00    -0.003 C 
ATOM     13  C   UNL     1      36.197 -20.439 -19.393  0.00  0.00    -0.003 C 
ATOM     14  C   UNL     1      34.326 -19.653 -20.704  0.00  0.00    -0.003 C 
ATOM     15  C   UNL     1      33.974 -21.269 -18.944  0.00  0.00    +0.071 C 
ATOM     16  C   UNL     1      35.339 -21.255 -18.656  0.00  0.00    +0.004 C 
ATOM     17  C   UNL     1      33.468 -20.469 -19.968  0.00  0.00    +0.004 C 
BRANCH  15  21
ATOM     18  F   UNL     1      32.989 -23.412 -18.642  0.00  0.00    -0.166 F 
ATOM     19  F   UNL     1      33.416 -22.269 -16.842  0.00  0.00    -0.166 F 
ATOM     20  F   UNL     1      31.766 -21.690 -18.125  0.00  0.00    -0.166 F 
ATOM     21  C   UNL     1      33.055 -22.139 -18.154  0.00  0.00    +0.419 C 
ENDBRANCH  15  21
ENDBRANCH  11  12
ENDBRANCH   8  11
ENDBRANCH   3   9
BRANCH   5  22
ATOM     22  O   UNL     1      34.102 -17.803 -24.002  0.00  0.00    -0.471 OA
ATOM     23  C   UNL     1      33.027 -18.453 -24.677  0.00  0.00    +0.252 C 
ENDBRANCH   5  22
BRANCH   1  24
ATOM     24  C   UNL     1      33.400 -12.306 -22.839  0.00  0.00    +0.080 C 
BRANCH  24  29
ATOM     25  O   UNL     1      31.711 -10.582 -22.749  0.00  0.00    -0.428 OA
ATOM     26  O   UNL     1      31.783 -13.151 -20.386  0.00  0.00    -0.271 OA
ATOM     27  O   UNL     1      31.039  -8.785 -21.506  0.00  0.00    -0.226 OA
ATOM     28  N   UNL     1      31.298 -10.890 -20.589  0.00  0.00    -0.218 N 
ATOM     29  C   UNL     1      31.961 -11.976 -22.502  0.00  0.00    +0.250 C 
ATOM     30  C   UNL     1      31.678 -12.121 -21.033  0.00  0.00    +0.271 C 
ATOM     31  C   UNL     1      31.319  -9.972 -21.590  0.00  0.00    +0.408 C 
ATOM     32  H   UNL     1      31.040 -10.690 -19.660  0.00  0.00    +0.161 HD
ENDBRANCH  24  29
ENDBRANCH   1  24
TORSDOF 7
ENDMDL
MODEL 2
REMARK VINA RESULT:     -12.8      6.752     11.491
REMARK  Name = 56842109
REMARK  7 active torsions:
REMARK  status: ('A' for Active; 'I' for Inactive)
REMARK    1  A    between atoms: C_1  and  C_24
REMARK    2  A    between atoms: C_3  and  C_9
REMARK    3  A    between atoms: C_5  and  O_22
REMARK    4  A    between atoms: N_8  and  C_11
REMARK    5  A    between atoms: C_11  and  C_12
REMARK    6  A    between atoms: C_15  and  C_21
REMARK    7  A    between atoms: C_24  and  C_29
REMARK                            x       y       z     vdW  Elec       q    Type
REMARK                         _______ _______ _______ _____ _____    ______ ____
ROOT
ATOM      1  C   UNL     1      34.986 -23.130 -13.810  0.00  0.00    -0.018 C 
ATOM      2  C   UNL     1      34.354 -22.804 -15.011  0.00  0.00    +0.003 C 
ATOM      3  C   UNL     1      32.986 -23.028 -15.162  0.00  0.00    +0.087 C 
ATOM      4  C   UNL     1      34.248 -23.678 -12.761  0.00  0.00    -0.001 C 
ATOM      5  C   UNL     1      32.248 -23.575 -14.113  0.00  0.00    +0.143 C 
ATOM      6  C   UNL     1      32.879 -23.901 -12.912  0.00  0.00    +0.037 C 
ENDROOT
BRANCH   3   9
ATOM      7  O   UNL     1      31.144 -22.368 -16.454  0.00  0.00    -0.270 OA
ATOM      8  N   UNL     1      33.152 -22.691 -17.568  0.00  0.00    -0.297 N 
ATOM      9  C   UNL     1      32.346 -22.678 -16.423  0.00  0.00    +0.249 C 
ATOM     10  H   UNL     1      34.097 -22.948 -17.469  0.00  0.00    +0.150 HD
BRANCH   8  11
ATOM     11  C   UNL     1      32.669 -22.347 -18.885  0.00  0.00    +0.117 C 
BRANCH  11  12
ATOM     12  C   UNL     1      33.494 -21.266 -19.521  0.00  0.00    -0.003 C 
ATOM     13  C   UNL     1      34.883 -21.283 -19.394  0.00  0.00    -0.003 C 
ATOM     14  C   UNL     1      32.873 -20.244 -20.240  0.00  0.00    -0.003 C 
ATOM     15  C   UNL     1      35.029 -19.259 -20.703  0.00  0.00    +0.071 C 
ATOM     16  C   UNL     1      35.652 -20.280 -19.984  0.00  0.00    +0.004 C 
ATOM     17  C   UNL     1      33.640 -19.241 -20.830  0.00  0.00    +0.004 C 
BRANCH  15  21
ATOM     18  F   UNL     1      35.363 -16.937 -21.089  0.00  0.00    -0.166 F 
ATOM     19  F   UNL     1      37.148 -18.165 -20.908  0.00  0.00    -0.166 F 
ATOM     20  F   UNL     1      35.927 -18.288 -22.696  0.00  0.00    -0.166 F 
ATOM     21  C   UNL     1      35.850 -18.187 -21.337  0.00  0.00    +0.419 C 
ENDBRANCH  15  21
ENDBRANCH  11  12
ENDBRANCH   8  11
ENDBRANCH   3   9
BRANCH   5  22
ATOM     22  O   UNL     1      30.909 -23.798 -14.241  0.00  0.00    -0.471 OA
ATOM     23  C   UNL     1      30.293 -24.619 -13.251  0.00  0.00    +0.252 C 
ENDBRANCH   5  22
BRANCH   1  24
ATOM     24  C   UNL     1      36.466 -22.887 -13.646  0.00  0.00    +0.080 C 
BRANCH  24  29
ATOM     25  O   UNL     1      38.610 -23.871 -13.131  0.00  0.00    -0.428 OA
ATOM     26  O   UNL     1      36.297 -25.553 -15.134  0.00  0.00    -0.271 OA
ATOM     27  O   UNL     1      40.604 -24.444 -14.092  0.00  0.00    -0.226 OA
ATOM     28  N   UNL     1      38.583 -25.223 -14.893  0.00  0.00    -0.218 N 
ATOM     29  C   UNL     1      37.224 -24.168 -13.370  0.00  0.00    +0.250 C 
ATOM     30  C   UNL     1      37.267 -25.071 -14.570  0.00  0.00    +0.271 C 
ATOM     31  C   UNL     1      39.384 -24.516 -14.056  0.00  0.00    +0.408 C 
ATOM     32  H   UNL     1      38.911 -25.775 -15.639  0.00  0.00    +0.161 HD
ENDBRANCH  24  29
ENDBRANCH   1  24
TORSDOF 7
ENDMDL
MODEL 3
REMARK VINA RESULT:     -12.7      6.917     11.759
REMARK  Name = 56842109
REMARK  7 active torsions:
REMARK  status: ('A' for Active; 'I' for Inactive)
REMARK    1  A    between atoms: C_1  and  C_24
REMARK    2  A    between atoms: C_3  and  C_9
REMARK    3  A    between atoms: C_5  and  O_22
REMARK    4  A    between atoms: N_8  and  C_11
REMARK    5  A    between atoms: C_11  and  C_12
REMARK    6  A    between atoms: C_15  and  C_21
REMARK    7  A    between atoms: C_24  and  C_29
REMARK                            x       y       z     vdW  Elec       q    Type
REMARK                         _______ _______ _______ _____ _____    ______ ____
ROOT
ATOM      1  C   UNL     1      35.405 -23.239 -13.616  0.00  0.00    -0.018 C 
ATOM      2  C   UNL     1      34.723 -23.024 -14.814  0.00  0.00    +0.003 C 
ATOM      3  C   UNL     1      33.333 -23.136 -14.856  0.00  0.00    +0.087 C 
ATOM      4  C   UNL     1      34.696 -23.566 -12.460  0.00  0.00    -0.001 C 
ATOM      5  C   UNL     1      32.625 -23.463 -13.700  0.00  0.00    +0.143 C 
ATOM      6  C   UNL     1      33.306 -23.678 -12.502  0.00  0.00    +0.037 C 
ENDROOT
BRANCH   3   9
ATOM      7  O   UNL     1      31.401 -22.845 -16.151  0.00  0.00    -0.270 OA
ATOM      8  N   UNL     1      33.437 -22.739 -17.255  0.00  0.00    -0.297 N 
ATOM      9  C   UNL     1      32.642 -22.906 -16.117  0.00  0.00    +0.249 C 
ATOM     10  H   UNL     1      34.415 -22.801 -17.154  0.00  0.00    +0.150 HD
BRANCH   8  11
ATOM     11  C   UNL     1      32.901 -22.480 -18.572  0.00  0.00    +0.117 C 
BRANCH  11  12
ATOM     12  C   UNL     1      33.653 -21.393 -19.282  0.00  0.00    -0.003 C 
ATOM     13  C   UNL     1      32.961 -20.438 -20.027  0.00  0.00    -0.003 C 
ATOM     14  C   UNL     1      35.045 -21.337 -19.198  0.00  0.00    -0.003 C 
ATOM     15  C   UNL     1      35.050 -19.371 -20.602  0.00  0.00    +0.071 C 
ATOM     16  C   UNL     1      33.659 -19.427 -20.687  0.00  0.00    +0.004 C 
ATOM     17  C   UNL     1      35.743 -20.326 -19.858  0.00  0.00    +0.004 C 
BRANCH  15  21
ATOM     18  F   UNL     1      35.681 -18.368 -22.664  0.00  0.00    -0.166 F 
ATOM     19  F   UNL     1      35.377 -17.030 -20.976  0.00  0.00    -0.166 F 
ATOM     20  F   UNL     1      37.138 -18.294 -21.051  0.00  0.00    -0.166 F 
ATOM     21  C   UNL     1      35.796 -18.289 -21.306  0.00  0.00    +0.419 C 
ENDBRANCH  15  21
ENDBRANCH  11  12
ENDBRANCH   8  11
ENDBRANCH   3   9
BRANCH   5  22
ATOM     22  O   UNL     1      31.267 -23.574 -13.720  0.00  0.00    -0.471 OA
ATOM     23  C   UNL     1      30.706 -24.755 -13.148  0.00  0.00    +0.252 C 
ENDBRANCH   5  22
BRANCH   1  24
ATOM     24  C   UNL     1      36.908 -23.116 -13.571  0.00  0.00    +0.080 C 
BRANCH  24  29
ATOM     25  O   UNL     1      37.172 -24.999 -15.061  0.00  0.00    -0.428 OA
ATOM     26  O   UNL     1      37.307 -25.416 -11.597  0.00  0.00    -0.271 OA
ATOM     27  O   UNL     1      36.123 -26.910 -15.748  0.00  0.00    -0.226 OA
ATOM     28  N   UNL     1      36.583 -26.490 -13.524  0.00  0.00    -0.218 N 
ATOM     29  C   UNL     1      37.594 -24.446 -13.803  0.00  0.00    +0.250 C 
ATOM     30  C   UNL     1      37.163 -25.486 -12.807  0.00  0.00    +0.271 C 
ATOM     31  C   UNL     1      36.577 -26.212 -14.853  0.00  0.00    +0.408 C 
ATOM     32  H   UNL     1      36.215 -27.313 -13.128  0.00  0.00    +0.161 HD
ENDBRANCH  24  29
ENDBRANCH   1  24
TORSDOF 7
ENDMDL
MODEL 4
REMARK VINA RESULT:     -12.7      1.583      2.465
REMARK  Name = 56842109
REMARK  7 active torsions:
REMARK  status: ('A' for Active; 'I' for Inactive)
REMARK    1  A    between atoms: C_1  and  C_24
REMARK    2  A    between atoms: C_3  and  C_9
REMARK    3  A    between atoms: C_5  and  O_22
REMARK    4  A    between atoms: N_8  and  C_11
REMARK    5  A    between atoms: C_11  and  C_12
REMARK    6  A    between atoms: C_15  and  C_21
REMARK    7  A    between atoms: C_24  and  C_29
REMARK                            x       y       z     vdW  Elec       q    Type
REMARK                         _______ _______ _______ _____ _____    ______ ____
ROOT
ATOM      1  C   UNL     1      34.185 -15.379 -22.403  0.00  0.00    -0.018 C 
ATOM      2  C   UNL     1      34.748 -16.299 -21.518  0.00  0.00    +0.003 C 
ATOM      3  C   UNL     1      34.905 -17.631 -21.904  0.00  0.00    +0.087 C 
ATOM      4  C   UNL     1      33.781 -15.791 -23.673  0.00  0.00    -0.001 C 
ATOM      5  C   UNL     1      34.502 -18.042 -23.173  0.00  0.00    +0.143 C 
ATOM      6  C   UNL     1      33.939 -17.122 -24.058  0.00  0.00    +0.037 C 
ENDROOT
BRANCH   3   9
ATOM      7  O   UNL     1      36.525 -18.274 -20.335  0.00  0.00    -0.270 OA
ATOM      8  N   UNL     1      34.842 -19.800 -20.801  0.00  0.00    -0.297 N 
ATOM      9  C   UNL     1      35.497 -18.575 -20.965  0.00  0.00    +0.249 C 
ATOM     10  H   UNL     1      34.032 -19.971 -21.334  0.00  0.00    +0.150 HD
BRANCH   8  11
ATOM     11  C   UNL     1      35.293 -20.829 -19.891  0.00  0.00    +0.117 C 
BRANCH  11  12
ATOM     12  C   UNL     1      34.198 -21.284 -18.972  0.00  0.00    -0.003 C 
ATOM     13  C   UNL     1      32.874 -20.927 -19.232  0.00  0.00    -0.003 C 
ATOM     14  C   UNL     1      34.501 -22.066 -17.857  0.00  0.00    -0.003 C 
ATOM     15  C   UNL     1      32.160 -22.131 -17.264  0.00  0.00    +0.071 C 
ATOM     16  C   UNL     1      31.855 -21.349 -18.379  0.00  0.00    +0.004 C 
ATOM     17  C   UNL     1      33.483 -22.488 -17.003  0.00  0.00    +0.004 C 
BRANCH  15  21
ATOM     18  F   UNL     1      31.158 -22.027 -15.110  0.00  0.00    -0.166 F 
ATOM     19  F   UNL     1      29.817 -22.281 -16.803  0.00  0.00    -0.166 F 
ATOM     20  F   UNL     1      31.057 -23.936 -16.147  0.00  0.00    -0.166 F 
ATOM     21  C   UNL     1      31.071 -22.586 -16.353  0.00  0.00    +0.419 C 
ENDBRANCH  15  21
ENDBRANCH  11  12
ENDBRANCH   8  11
ENDBRANCH   3   9
BRANCH   5  22
ATOM     22  O   UNL     1      34.650 -19.338 -23.569  0.00  0.00    -0.471 OA
ATOM     23  C   UNL     1      33.911 -19.753 -24.716  0.00  0.00    +0.252 C 
ENDBRANCH   5  22
BRANCH   1  24
ATOM     24  C   UNL     1      34.015 -13.939 -21.987  0.00  0.00    +0.080 C 
BRANCH  24  29
ATOM     25  O   UNL     1      32.861 -12.247 -23.266  0.00  0.00    -0.428 OA
ATOM     26  O   UNL     1      31.553 -13.423 -20.249  0.00  0.00    -0.271 OA
ATOM     27  O   UNL     1      32.292 -10.033 -23.221  0.00  0.00    -0.226 OA
ATOM     28  N   UNL     1      31.726 -11.485 -21.516  0.00  0.00    -0.218 N 
ATOM     29  C   UNL     1      32.671 -13.381 -22.403  0.00  0.00    +0.250 C 
ATOM     30  C   UNL     1      31.912 -12.807 -21.240  0.00  0.00    +0.271 C 
ATOM     31  C   UNL     1      32.285 -11.142 -22.705  0.00  0.00    +0.408 C 
ATOM     32  H   UNL     1      31.246 -10.858 -20.928  0.00  0.00    +0.161 HD
ENDBRANCH  24  29
ENDBRANCH   1  24
TORSDOF 7
ENDMDL
MODEL 5
REMARK VINA RESULT:     -12.6      3.406      6.106
REMARK  Name = 56842109
REMARK  7 active torsions:
REMARK  status: ('A' for Active; 'I' for Inactive)
REMARK    1  A    between atoms: C_1  and  C_24
REMARK    2  A    between atoms: C_3  and  C_9
REMARK    3  A    between atoms: C_5  and  O_22
REMARK    4  A    between atoms: N_8  and  C_11
REMARK    5  A    between atoms: C_11  and  C_12
REMARK    6  A    between atoms: C_15  and  C_21
REMARK    7  A    between atoms: C_24  and  C_29
REMARK                            x       y       z     vdW  Elec       q    Type
REMARK                         _______ _______ _______ _____ _____    ______ ____
ROOT
ATOM      1  C   UNL     1      31.682  -8.655 -22.075  0.00  0.00    -0.018 C 
ATOM      2  C   UNL     1      32.313  -9.513 -22.977  0.00  0.00    +0.003 C 
ATOM      3  C   UNL     1      32.250 -10.893 -22.788  0.00  0.00    +0.087 C 
ATOM      4  C   UNL     1      30.989  -9.179 -20.985  0.00  0.00    -0.001 C 
ATOM      5  C   UNL     1      31.556 -11.417 -21.697  0.00  0.00    +0.143 C 
ATOM      6  C   UNL     1      30.925 -10.559 -20.795  0.00  0.00    +0.037 C 
ENDROOT
BRANCH   3   9
ATOM      7  O   UNL     1      33.964 -11.412 -24.300  0.00  0.00    -0.270 OA
ATOM      8  N   UNL     1      32.325 -13.019 -23.972  0.00  0.00    -0.297 N 
ATOM      9  C   UNL     1      32.913 -11.771 -23.742  0.00  0.00    +0.249 C 
ATOM     10  H   UNL     1      31.491 -13.236 -23.495  0.00  0.00    +0.150 HD
BRANCH   8  11
ATOM     11  C   UNL     1      32.876 -14.007 -24.871  0.00  0.00    +0.117 C 
BRANCH  11  12
ATOM     12  C   UNL     1      33.477 -15.167 -24.132  0.00  0.00    -0.003 C 
ATOM     13  C   UNL     1      34.126 -14.957 -22.915  0.00  0.00    -0.003 C 
ATOM     14  C   UNL     1      33.388 -16.454 -24.662  0.00  0.00    -0.003 C 
ATOM     15  C   UNL     1      34.595 -17.321 -22.757  0.00  0.00    +0.071 C 
ATOM     16  C   UNL     1      34.685 -16.034 -22.227  0.00  0.00    +0.004 C 
ATOM     17  C   UNL     1      33.947 -17.531 -23.974  0.00  0.00    +0.004 C 
BRANCH  15  21
ATOM     18  F   UNL     1      34.873 -19.676 -22.583  0.00  0.00    -0.166 F 
ATOM     19  F   UNL     1      36.555 -18.443 -21.967  0.00  0.00    -0.166 F 
ATOM     20  F   UNL     1      34.785 -18.560 -20.719  0.00  0.00    -0.166 F 
ATOM     21  C   UNL     1      35.190 -18.473 -22.021  0.00  0.00    +0.419 C 
ENDBRANCH  15  21
ENDBRANCH  11  12
ENDBRANCH   8  11
ENDBRANCH   3   9
BRANCH   5  22
ATOM     22  O   UNL     1      31.480 -12.763 -21.497  0.00  0.00    -0.471 OA
ATOM     23  C   UNL     1      32.067 -13.273 -20.301  0.00  0.00    +0.252 C 
ENDBRANCH   5  22
BRANCH   1  24
ATOM     24  C   UNL     1      31.751  -7.162 -22.281  0.00  0.00    +0.080 C 
BRANCH  24  29
ATOM     25  O   UNL     1      30.050  -5.454 -22.129  0.00  0.00    -0.428 OA
ATOM     26  O   UNL     1      32.302  -5.986 -19.514  0.00  0.00    -0.271 OA
ATOM     27  O   UNL     1      29.778  -3.185 -22.093  0.00  0.00    -0.226 OA
ATOM     28  N   UNL     1      31.150  -4.284 -20.594  0.00  0.00    -0.218 N 
ATOM     29  C   UNL     1      30.798  -6.418 -21.369  0.00  0.00    +0.250 C 
ATOM     30  C   UNL     1      31.525  -5.574 -20.361  0.00  0.00    +0.271 C 
ATOM     31  C   UNL     1      30.285  -4.200 -21.638  0.00  0.00    +0.408 C 
ATOM     32  H   UNL     1      31.466  -3.511 -20.073  0.00  0.00    +0.161 HD
ENDBRANCH  24  29
ENDBRANCH   1  24
TORSDOF 7
ENDMDL
MODEL 6
REMARK VINA RESULT:     -12.5      4.039      6.810
REMARK  Name = 56842109
REMARK  7 active torsions:
REMARK  status: ('A' for Active; 'I' for Inactive)
REMARK    1  A    between atoms: C_1  and  C_24
REMARK    2  A    between atoms: C_3  and  C_9
REMARK    3  A    between atoms: C_5  and  O_22
REMARK    4  A    between atoms: N_8  and  C_11
REMARK    5  A    between atoms: C_11  and  C_12
REMARK    6  A    between atoms: C_15  and  C_21
REMARK    7  A    between atoms: C_24  and  C_29
REMARK                            x       y       z     vdW  Elec       q    Type
REMARK                         _______ _______ _______ _____ _____    ______ ____
ROOT
ATOM      1  C   UNL     1      34.417 -19.420 -21.117  0.00  0.00    -0.018 C 
ATOM      2  C   UNL     1      33.537 -20.145 -20.313  0.00  0.00    +0.003 C 
ATOM      3  C   UNL     1      34.029 -20.917 -19.260  0.00  0.00    +0.087 C 
ATOM      4  C   UNL     1      35.788 -19.468 -20.868  0.00  0.00    -0.001 C 
ATOM      5  C   UNL     1      35.400 -20.965 -19.011  0.00  0.00    +0.143 C 
ATOM      6  C   UNL     1      36.280 -20.241 -19.815  0.00  0.00    +0.037 C 
ENDROOT
BRANCH   3   9
ATOM      7  O   UNL     1      31.892 -21.734 -18.746  0.00  0.00    -0.270 OA
ATOM      8  N   UNL     1      33.614 -22.302 -17.301  0.00  0.00    -0.297 N 
ATOM      9  C   UNL     1      33.092 -21.664 -18.432  0.00  0.00    +0.249 C 
ATOM     10  H   UNL     1      34.575 -22.202 -17.112  0.00  0.00    +0.150 HD
BRANCH   8  11
ATOM     11  C   UNL     1      32.817 -23.098 -16.395  0.00  0.00    +0.117 C 
BRANCH  11  12
ATOM     12  C   UNL     1      33.559 -23.423 -15.132  0.00  0.00    -0.003 C 
ATOM     13  C   UNL     1      34.929 -23.683 -15.175  0.00  0.00    -0.003 C 
ATOM     14  C   UNL     1      32.880 -23.467 -13.914  0.00  0.00    -0.003 C 
ATOM     15  C   UNL     1      34.941 -24.028 -12.785  0.00  0.00    +0.071 C 
ATOM     16  C   UNL     1      35.621 -23.985 -14.002  0.00  0.00    +0.004 C 
ATOM     17  C   UNL     1      33.570 -23.770 -12.742  0.00  0.00    +0.004 C 
BRANCH  15  21
ATOM     18  F   UNL     1      34.850 -24.498 -10.456  0.00  0.00    -0.166 F 
ATOM     19  F   UNL     1      36.399 -25.508 -11.599  0.00  0.00    -0.166 F 
ATOM     20  F   UNL     1      36.582 -23.391 -11.166  0.00  0.00    -0.166 F 
ATOM     21  C   UNL     1      35.679 -24.349 -11.530  0.00  0.00    +0.419 C 
ENDBRANCH  15  21
ENDBRANCH  11  12
ENDBRANCH   8  11
ENDBRANCH   3   9
BRANCH   5  22
ATOM     22  O   UNL     1      35.899 -21.711 -17.985  0.00  0.00    -0.471 OA
ATOM     23  C   UNL     1      36.702 -21.032 -17.022  0.00  0.00    +0.252 C 
ENDBRANCH   5  22
BRANCH   1  24
ATOM     24  C   UNL     1      33.885 -18.585 -22.254  0.00  0.00    +0.080 C 
BRANCH  24  29
ATOM     25  O   UNL     1      34.740 -16.520 -21.340  0.00  0.00    -0.428 OA
ATOM     26  O   UNL     1      33.944 -16.791 -24.729  0.00  0.00    -0.271 OA
ATOM     27  O   UNL     1      34.120 -14.373 -20.857  0.00  0.00    -0.226 OA
ATOM     28  N   UNL     1      33.897 -15.272 -22.973  0.00  0.00    -0.218 N 
ATOM     29  C   UNL     1      34.737 -17.359 -22.507  0.00  0.00    +0.250 C 
ATOM     30  C   UNL     1      34.151 -16.472 -23.569  0.00  0.00    +0.271 C 
ATOM     31  C   UNL     1      34.235 -15.289 -21.658  0.00  0.00    +0.408 C 
ATOM     32  H   UNL     1      33.517 -14.492 -23.438  0.00  0.00    +0.161 HD
ENDBRANCH  24  29
ENDBRANCH   1  24
TORSDOF 7
ENDMDL
MODEL 7
REMARK VINA RESULT:     -12.5      6.032      9.689
REMARK  Name = 56842109
REMARK  7 active torsions:
REMARK  status: ('A' for Active; 'I' for Inactive)
REMARK    1  A    between atoms: C_1  and  C_24
REMARK    2  A    between atoms: C_3  and  C_9
REMARK    3  A    between atoms: C_5  and  O_22
REMARK    4  A    between atoms: N_8  and  C_11
REMARK    5  A    between atoms: C_11  and  C_12
REMARK    6  A    between atoms: C_15  and  C_21
REMARK    7  A    between atoms: C_24  and  C_29
REMARK                            x       y       z     vdW  Elec       q    Type
REMARK                         _______ _______ _______ _____ _____    ______ ____
ROOT
ATOM      1  C   UNL     1      31.670 -22.432 -15.262  0.00  0.00    -0.018 C 
ATOM      2  C   UNL     1      32.134 -22.388 -16.577  0.00  0.00    +0.003 C 
ATOM      3  C   UNL     1      33.490 -22.577 -16.845  0.00  0.00    +0.087 C 
ATOM      4  C   UNL     1      32.562 -22.667 -14.216  0.00  0.00    -0.001 C 
ATOM      5  C   UNL     1      34.382 -22.811 -15.799  0.00  0.00    +0.143 C 
ATOM      6  C   UNL     1      33.918 -22.856 -14.484  0.00  0.00    +0.037 C 
ENDROOT
BRANCH   3   9
ATOM      7  O   UNL     1      33.395 -23.213 -19.099  0.00  0.00    -0.270 OA
ATOM      8  N   UNL     1      35.019 -21.668 -18.507  0.00  0.00    -0.297 N 
ATOM      9  C   UNL     1      33.952 -22.528 -18.226  0.00  0.00    +0.249 C 
ATOM     10  H   UNL     1      35.413 -21.156 -17.764  0.00  0.00    +0.150 HD
BRANCH   8  11
ATOM     11  C   UNL     1      35.574 -21.493 -19.829  0.00  0.00    +0.117 C 
BRANCH  11  12
ATOM     12  C   UNL     1      35.300 -20.123 -20.377  0.00  0.00    -0.003 C 
ATOM     13  C   UNL     1      36.360 -19.263 -20.666  0.00  0.00    -0.003 C 
ATOM     14  C   UNL     1      33.987 -19.708 -20.597  0.00  0.00    -0.003 C 
ATOM     15  C   UNL     1      34.794 -17.575 -21.395  0.00  0.00    +0.071 C 
ATOM     16  C   UNL     1      36.108 -17.989 -21.175  0.00  0.00    +0.004 C 
ATOM     17  C   UNL     1      33.734 -18.435 -21.105  0.00  0.00    +0.004 C 
BRANCH  15  21
ATOM     18  F   UNL     1      35.537 -15.754 -22.731  0.00  0.00    -0.166 F 
ATOM     19  F   UNL     1      33.398 -16.150 -22.716  0.00  0.00    -0.166 F 
ATOM     20  F   UNL     1      34.347 -15.262 -20.979  0.00  0.00    -0.166 F 
ATOM     21  C   UNL     1      34.523 -16.215 -21.942  0.00  0.00    +0.419 C 
ENDBRANCH  15  21
ENDBRANCH  11  12
ENDBRANCH   8  11
ENDBRANCH   3   9
BRANCH   5  22
ATOM     22  O   UNL     1      35.709 -23.001 -16.042  0.00  0.00    -0.471 OA
ATOM     23  C   UNL     1      36.625 -22.206 -15.291  0.00  0.00    +0.252 C 
ENDBRANCH   5  22
BRANCH   1  24
ATOM     24  C   UNL     1      30.204 -22.229 -14.972  0.00  0.00    +0.080 C 
BRANCH  24  29
ATOM     25  O   UNL     1      28.623 -21.734 -16.730  0.00  0.00    -0.428 OA
ATOM     26  O   UNL     1      28.358 -24.663 -14.848  0.00  0.00    -0.271 OA
ATOM     27  O   UNL     1      26.435 -21.169 -17.075  0.00  0.00    -0.226 OA
ATOM     28  N   UNL     1      27.047 -23.055 -15.891  0.00  0.00    -0.218 N 
ATOM     29  C   UNL     1      29.324 -22.798 -16.065  0.00  0.00    +0.250 C 
ATOM     30  C   UNL     1      28.215 -23.648 -15.512  0.00  0.00    +0.271 C 
ATOM     31  C   UNL     1      27.275 -21.923 -16.605  0.00  0.00    +0.408 C 
ATOM     32  H   UNL     1      26.152 -23.404 -15.675  0.00  0.00    +0.161 HD
ENDBRANCH  24  29
ENDBRANCH   1  24
TORSDOF 7
ENDMDL
MODEL 8
REMARK VINA RESULT:     -12.3      5.653      9.715
REMARK  Name = 56842109
REMARK  7 active torsions:
REMARK  status: ('A' for Active; 'I' for Inactive)
REMARK    1  A    between atoms: C_1  and  C_24
REMARK    2  A    between atoms: C_3  and  C_9
REMARK    3  A    between atoms: C_5  and  O_22
REMARK    4  A    between atoms: N_8  and  C_11
REMARK    5  A    between atoms: C_11  and  C_12
REMARK    6  A    between atoms: C_15  and  C_21
REMARK    7  A    between atoms: C_24  and  C_29
REMARK                            x       y       z     vdW  Elec       q    Type
REMARK                         _______ _______ _______ _____ _____    ______ ____
ROOT
ATOM      1  C   UNL     1      34.652 -17.119 -22.615  0.00  0.00    -0.018 C 
ATOM      2  C   UNL     1      34.322 -16.127 -21.691  0.00  0.00    +0.003 C 
ATOM      3  C   UNL     1      33.850 -14.891 -22.134  0.00  0.00    +0.087 C 
ATOM      4  C   UNL     1      34.510 -16.875 -23.981  0.00  0.00    -0.001 C 
ATOM      5  C   UNL     1      33.708 -14.647 -23.499  0.00  0.00    +0.143 C 
ATOM      6  C   UNL     1      34.038 -15.638 -24.423  0.00  0.00    +0.037 C 
ENDROOT
BRANCH   3   9
ATOM      7  O   UNL     1      34.364 -13.463 -20.347  0.00  0.00    -0.270 OA
ATOM      8  N   UNL     1      32.203 -13.372 -21.183  0.00  0.00    -0.297 N 
ATOM      9  C   UNL     1      33.510 -13.871 -21.152  0.00  0.00    +0.249 C 
ATOM     10  H   UNL     1      31.578 -13.743 -21.848  0.00  0.00    +0.150 HD
BRANCH   8  11
ATOM     11  C   UNL     1      31.721 -12.343 -20.290  0.00  0.00    +0.117 C 
BRANCH  11  12
ATOM     12  C   UNL     1      31.596 -11.015 -20.978  0.00  0.00    -0.003 C 
ATOM     13  C   UNL     1      31.831 -10.916 -22.350  0.00  0.00    -0.003 C 
ATOM     14  C   UNL     1      31.244  -9.880 -20.248  0.00  0.00    -0.003 C 
ATOM     15  C   UNL     1      31.363  -8.549 -22.260  0.00  0.00    +0.071 C 
ATOM     16  C   UNL     1      31.715  -9.683 -22.992  0.00  0.00    +0.004 C 
ATOM     17  C   UNL     1      31.128  -8.647 -20.889  0.00  0.00    +0.004 C 
BRANCH  15  21
ATOM     18  F   UNL     1      31.311  -7.336 -24.305  0.00  0.00    -0.166 F 
ATOM     19  F   UNL     1      30.053  -6.594 -22.694  0.00  0.00    -0.166 F 
ATOM     20  F   UNL     1      32.204  -6.334 -22.594  0.00  0.00    -0.166 F 
ATOM     21  C   UNL     1      31.236  -7.230 -22.946  0.00  0.00    +0.419 C 
ENDBRANCH  15  21
ENDBRANCH  11  12
ENDBRANCH   8  11
ENDBRANCH   3   9
BRANCH   5  22
ATOM     22  O   UNL     1      33.245 -13.447 -23.950  0.00  0.00    -0.471 OA
ATOM     23  C   UNL     1      32.676 -13.423 -25.258  0.00  0.00    +0.252 C 
ENDBRANCH   5  22
BRANCH   1  24
ATOM     24  C   UNL     1      35.162 -18.456 -22.136  0.00  0.00    +0.080 C 
BRANCH  24  29
ATOM     25  O   UNL     1      35.866 -19.322 -19.995  0.00  0.00    -0.428 OA
ATOM     26  O   UNL     1      32.579 -19.723 -21.102  0.00  0.00    -0.271 OA
ATOM     27  O   UNL     1      36.258 -21.284 -18.888  0.00  0.00    -0.226 OA
ATOM     28  N   UNL     1      34.230 -20.821 -19.894  0.00  0.00    -0.218 N 
ATOM     29  C   UNL     1      34.761 -18.737 -20.704  0.00  0.00    +0.250 C 
ATOM     30  C   UNL     1      33.695 -19.793 -20.612  0.00  0.00    +0.271 C 
ATOM     31  C   UNL     1      35.512 -20.557 -19.529  0.00  0.00    +0.408 C 
ATOM     32  H   UNL     1      33.749 -21.649 -19.668  0.00  0.00    +0.161 HD
ENDBRANCH  24  29
ENDBRANCH   1  24
TORSDOF 7
ENDMDL
MODEL 9
REMARK VINA RESULT:     -12.2      3.288      6.064
REMARK  Name = 56842109
REMARK  7 active torsions:
REMARK  status: ('A' for Active; 'I' for Inactive)
REMARK    1  A    between atoms: C_1  and  C_24
REMARK    2  A    between atoms: C_3  and  C_9
REMARK    3  A    between atoms: C_5  and  O_22
REMARK    4  A    between atoms: N_8  and  C_11
REMARK    5  A    between atoms: C_11  and  C_12
REMARK    6  A    between atoms: C_15  and  C_21
REMARK    7  A    between atoms: C_24  and  C_29
REMARK                            x       y       z     vdW  Elec       q    Type
REMARK                         _______ _______ _______ _____ _____    ______ ____
ROOT
ATOM      1  C   UNL     1      31.056  -8.735 -22.445  0.00  0.00    -0.018 C 
ATOM      2  C   UNL     1      31.855  -9.565 -23.231  0.00  0.00    +0.003 C 
ATOM      3  C   UNL     1      32.026 -10.904 -22.879  0.00  0.00    +0.087 C 
ATOM      4  C   UNL     1      30.428  -9.243 -21.309  0.00  0.00    -0.001 C 
ATOM      5  C   UNL     1      31.399 -11.413 -21.743  0.00  0.00    +0.143 C 
ATOM      6  C   UNL     1      30.600 -10.582 -20.957  0.00  0.00    +0.037 C 
ENDROOT
BRANCH   3   9
ATOM      7  O   UNL     1      33.981 -11.362 -24.090  0.00  0.00    -0.270 OA
ATOM      8  N   UNL     1      32.357 -13.017 -24.043  0.00  0.00    -0.297 N 
ATOM      9  C   UNL     1      32.863 -11.755 -23.715  0.00  0.00    +0.249 C 
ATOM     10  H   UNL     1      31.463 -13.261 -23.711  0.00  0.00    +0.150 HD
BRANCH   8  11
ATOM     11  C   UNL     1      33.077 -13.981 -24.843  0.00  0.00    +0.117 C 
BRANCH  11  12
ATOM     12  C   UNL     1      33.610 -15.113 -24.014  0.00  0.00    -0.003 C 
ATOM     13  C   UNL     1      34.139 -14.862 -22.748  0.00  0.00    -0.003 C 
ATOM     14  C   UNL     1      33.577 -16.417 -24.509  0.00  0.00    -0.003 C 
ATOM     15  C   UNL     1      34.601 -17.216 -22.472  0.00  0.00    +0.071 C 
ATOM     16  C   UNL     1      34.635 -15.913 -21.977  0.00  0.00    +0.004 C 
ATOM     17  C   UNL     1      34.072 -17.468 -23.738  0.00  0.00    +0.004 C 
BRANCH  15  21
ATOM     18  F   UNL     1      35.286 -19.490 -22.366  0.00  0.00    -0.166 F 
ATOM     19  F   UNL     1      36.350 -18.086 -21.090  0.00  0.00    -0.166 F 
ATOM     20  F   UNL     1      34.321 -18.674 -20.596  0.00  0.00    -0.166 F 
ATOM     21  C   UNL     1      35.128 -18.341 -21.647  0.00  0.00    +0.419 C 
ENDBRANCH  15  21
ENDBRANCH  11  12
ENDBRANCH   8  11
ENDBRANCH   3   9
BRANCH   5  22
ATOM     22  O   UNL     1      31.552 -12.719 -21.385  0.00  0.00    -0.471 OA
ATOM     23  C   UNL     1      32.281 -12.981 -20.187  0.00  0.00    +0.252 C 
ENDBRANCH   5  22
BRANCH   1  24
ATOM     24  C   UNL     1      30.870  -7.287 -22.826  0.00  0.00    +0.080 C 
BRANCH  24  29
ATOM     25  O   UNL     1      32.448  -6.860 -21.049  0.00  0.00    -0.428 OA
ATOM     26  O   UNL     1      31.130  -4.243 -22.948  0.00  0.00    -0.271 OA
ATOM     27  O   UNL     1      32.605  -5.930 -18.966  0.00  0.00    -0.226 OA
ATOM     28  N   UNL     1      31.811  -4.748 -20.786  0.00  0.00    -0.218 N 
ATOM     29  C   UNL     1      32.017  -6.421 -22.348  0.00  0.00    +0.250 C 
ATOM     30  C   UNL     1      31.590  -5.000 -22.108  0.00  0.00    +0.271 C 
ATOM     31  C   UNL     1      32.312  -5.839 -20.150  0.00  0.00    +0.408 C 
ATOM     32  H   UNL     1      31.631  -3.885 -20.348  0.00  0.00    +0.161 HD
ENDBRANCH  24  29
ENDBRANCH   1  24
TORSDOF 7
ENDMDL
