MODEL 1
REMARK VINA RESULT:      -9.6      0.000      0.000
REMARK  Name = 49867930
REMARK  6 active torsions:
REMARK  status: ('A' for Active; 'I' for Inactive)
REMARK    1  A    between atoms: N_2  and  C_7
REMARK    2  A    between atoms: C_3  and  C_22
REMARK    3  A    between atoms: C_22  and  C_27
REMARK    4  A    between atoms: N_26  and  C_29
REMARK    5  A    between atoms: C_29  and  C_32
REMARK    6  A    between atoms: C_32  and  C_36
REMARK                            x       y       z     vdW  Elec       q    Type
REMARK                         _______ _______ _______ _____ _____    ______ ____
ROOT
ATOM      1  O   UNL     1      30.187  -8.160 -23.427  0.00  0.00    -0.275 OA
ATOM      2  N   UNL     1      32.279  -7.597 -22.614  0.00  0.00    -0.295 N 
ATOM      3  C   UNL     1      31.175  -8.430 -22.746  0.00  0.00    +0.230 C 
ATOM      4  H   UNL     1      33.029  -7.892 -22.048  0.00  0.00    +0.150 HD
ENDROOT
BRANCH   2   7
ATOM      5  O   UNL     1      34.659  -6.396 -22.514  0.00  0.00    -0.273 OA
ATOM      6  N   UNL     1      34.183  -4.918 -24.182  0.00  0.00    -0.282 N 
ATOM      7  C   UNL     1      32.370  -6.318 -23.275  0.00  0.00    +0.172 C 
ATOM      8  C   UNL     1      31.508  -5.236 -22.678  0.00  0.00    +0.004 C 
ATOM      9  C   UNL     1      31.361  -4.022 -23.385  0.00  0.00    -0.001 C 
ATOM     10  C   UNL     1      33.827  -5.888 -23.267  0.00  0.00    +0.248 C 
ATOM     11  C   UNL     1      32.006  -3.784 -24.706  0.00  0.00    +0.013 C 
ATOM     12  C   UNL     1      33.342  -4.138 -25.011  0.00  0.00    +0.050 C 
ATOM     13  C   UNL     1      30.886  -5.395 -21.424  0.00  0.00    -0.002 C 
ATOM     14  C   UNL     1      30.588  -3.003 -22.787  0.00  0.00    -0.000 C 
ATOM     15  C   UNL     1      31.286  -3.078 -25.698  0.00  0.00    +0.001 C 
ATOM     16  C   UNL     1      30.118  -4.376 -20.867  0.00  0.00    -0.000 C 
ATOM     17  C   UNL     1      33.937  -3.685 -26.203  0.00  0.00    +0.015 C 
ATOM     18  C   UNL     1      29.970  -3.176 -21.548  0.00  0.00    -0.000 C 
ATOM     19  C   UNL     1      31.873  -2.679 -26.901  0.00  0.00    +0.000 C 
ATOM     20  C   UNL     1      33.207  -2.966 -27.145  0.00  0.00    +0.001 C 
ATOM     21  H   UNL     1      35.148  -4.746 -24.272  0.00  0.00    +0.155 HD
ENDBRANCH   2   7
BRANCH   3  22
ATOM     22  C   UNL     1      31.294  -9.738 -21.940  0.00  0.00    +0.137 C 
ATOM     23  C   UNL     1      29.899 -10.360 -21.739  0.00  0.00    +0.018 C 
ATOM     24  C   UNL     1      31.869  -9.403 -20.551  0.00  0.00    +0.018 C 
BRANCH  22  27
ATOM     25  O   UNL     1      33.179 -10.460 -23.306  0.00  0.00    -0.275 OA
ATOM     26  N   UNL     1      31.785 -12.088 -22.434  0.00  0.00    -0.299 N 
ATOM     27  C   UNL     1      32.192 -10.777 -22.642  0.00  0.00    +0.230 C 
ATOM     28  H   UNL     1      30.983 -12.256 -21.890  0.00  0.00    +0.150 HD
BRANCH  26  29
ATOM     29  C   UNL     1      32.499 -13.212 -22.990  0.00  0.00    +0.166 C 
BRANCH  29  32
ATOM     30  F   UNL     1      34.333 -12.989 -21.537  0.00  0.00    -0.193 F 
ATOM     31  F   UNL     1      32.654 -14.209 -20.867  0.00  0.00    -0.193 F 
ATOM     32  C   UNL     1      33.392 -13.873 -21.956  0.00  0.00    +0.367 C 
BRANCH  32  36
ATOM     33  F   UNL     1      33.219 -15.879 -23.173  0.00  0.00    -0.165 F 
ATOM     34  F   UNL     1      34.575 -15.856 -21.464  0.00  0.00    -0.165 F 
ATOM     35  F   UNL     1      35.107 -14.792 -23.293  0.00  0.00    -0.165 F 
ATOM     36  C   UNL     1      34.082 -15.109 -22.475  0.00  0.00    +0.456 C 
ENDBRANCH  32  36
ENDBRANCH  29  32
ENDBRANCH  26  29
ENDBRANCH  22  27
ENDBRANCH   3  22
TORSDOF 6
ENDMDL
MODEL 2
REMARK VINA RESULT:      -9.6      1.220      1.534
REMARK  Name = 49867930
REMARK  6 active torsions:
REMARK  status: ('A' for Active; 'I' for Inactive)
REMARK    1  A    between atoms: N_2  and  C_7
REMARK    2  A    between atoms: C_3  and  C_22
REMARK    3  A    between atoms: C_22  and  C_27
REMARK    4  A    between atoms: N_26  and  C_29
REMARK    5  A    between atoms: C_29  and  C_32
REMARK    6  A    between atoms: C_32  and  C_36
REMARK                            x       y       z     vdW  Elec       q    Type
REMARK                         _______ _______ _______ _____ _____    ______ ____
ROOT
ATOM      1  O   UNL     1      32.277  -9.579 -23.232  0.00  0.00    -0.275 OA
ATOM      2  N   UNL     1      31.704  -7.822 -21.839  0.00  0.00    -0.295 N 
ATOM      3  C   UNL     1      31.822  -9.167 -22.166  0.00  0.00    +0.230 C 
ATOM      4  H   UNL     1      31.328  -7.579 -20.962  0.00  0.00    +0.150 HD
ENDROOT
BRANCH   2   7
ATOM      5  O   UNL     1      34.202  -6.935 -21.540  0.00  0.00    -0.273 OA
ATOM      6  N   UNL     1      34.255  -5.869 -23.554  0.00  0.00    -0.282 N 
ATOM      7  C   UNL     1      32.112  -6.767 -22.734  0.00  0.00    +0.172 C 
ATOM      8  C   UNL     1      31.357  -5.473 -22.573  0.00  0.00    +0.004 C 
ATOM      9  C   UNL     1      31.530  -4.463 -23.545  0.00  0.00    -0.001 C 
ATOM     10  C   UNL     1      33.599  -6.530 -22.535  0.00  0.00    +0.248 C 
ATOM     11  C   UNL     1      32.410  -4.640 -24.733  0.00  0.00    +0.013 C 
ATOM     12  C   UNL     1      33.700  -5.220 -24.683  0.00  0.00    +0.050 C 
ATOM     13  C   UNL     1      30.522  -5.239 -21.462  0.00  0.00    -0.002 C 
ATOM     14  C   UNL     1      30.851  -3.240 -23.350  0.00  0.00    -0.000 C 
ATOM     15  C   UNL     1      31.988  -4.119 -25.978  0.00  0.00    +0.001 C 
ATOM     16  C   UNL     1      29.854  -4.027 -21.306  0.00  0.00    -0.000 C 
ATOM     17  C   UNL     1      34.548  -5.153 -25.805  0.00  0.00    +0.015 C 
ATOM     18  C   UNL     1      30.020  -3.024 -22.250  0.00  0.00    -0.000 C 
ATOM     19  C   UNL     1      32.821  -4.105 -27.099  0.00  0.00    +0.000 C 
ATOM     20  C   UNL     1      34.109  -4.605 -27.007  0.00  0.00    +0.001 C 
ATOM     21  H   UNL     1      35.237  -5.844 -23.487  0.00  0.00    +0.155 HD
ENDBRANCH   2   7
BRANCH   3  22
ATOM     22  C   UNL     1      31.312 -10.113 -21.061  0.00  0.00    +0.137 C 
ATOM     23  C   UNL     1      29.818  -9.849 -20.793  0.00  0.00    +0.018 C 
ATOM     24  C   UNL     1      32.087  -9.809 -19.765  0.00  0.00    +0.018 C 
BRANCH  22  27
ATOM     25  O   UNL     1      31.205 -12.034 -22.556  0.00  0.00    -0.275 OA
ATOM     26  N   UNL     1      31.993 -12.374 -20.407  0.00  0.00    -0.299 N 
ATOM     27  C   UNL     1      31.483 -11.598 -21.439  0.00  0.00    +0.230 C 
ATOM     28  H   UNL     1      32.189 -11.947 -19.543  0.00  0.00    +0.150 HD
BRANCH  26  29
ATOM     29  C   UNL     1      32.244 -13.787 -20.559  0.00  0.00    +0.166 C 
BRANCH  29  32
ATOM     30  F   UNL     1      34.482 -13.075 -20.433  0.00  0.00    -0.193 F 
ATOM     31  F   UNL     1      34.097 -15.221 -20.356  0.00  0.00    -0.193 F 
ATOM     32  C   UNL     1      33.691 -14.060 -20.931  0.00  0.00    +0.367 C 
BRANCH  32  36
ATOM     33  F   UNL     1      34.900 -15.027 -22.702  0.00  0.00    -0.165 F 
ATOM     34  F   UNL     1      34.256 -12.957 -22.941  0.00  0.00    -0.165 F 
ATOM     35  F   UNL     1      32.795 -14.575 -23.054  0.00  0.00    -0.165 F 
ATOM     36  C   UNL     1      33.910 -14.153 -22.420  0.00  0.00    +0.456 C 
ENDBRANCH  32  36
ENDBRANCH  29  32
ENDBRANCH  26  29
ENDBRANCH  22  27
ENDBRANCH   3  22
TORSDOF 6
ENDMDL
MODEL 3
REMARK VINA RESULT:      -9.0     11.797     17.253
REMARK  Name = 49867930
REMARK  6 active torsions:
REMARK  status: ('A' for Active; 'I' for Inactive)
REMARK    1  A    between atoms: N_2  and  C_7
REMARK    2  A    between atoms: C_3  and  C_22
REMARK    3  A    between atoms: C_22  and  C_27
REMARK    4  A    between atoms: N_26  and  C_29
REMARK    5  A    between atoms: C_29  and  C_32
REMARK    6  A    between atoms: C_32  and  C_36
REMARK                            x       y       z     vdW  Elec       q    Type
REMARK                         _______ _______ _______ _____ _____    ______ ____
ROOT
ATOM      1  O   UNL     1      35.557 -21.390 -16.993  0.00  0.00    -0.275 OA
ATOM      2  N   UNL     1      33.885 -22.982 -16.833  0.00  0.00    -0.295 N 
ATOM      3  C   UNL     1      34.623 -22.011 -17.498  0.00  0.00    +0.230 C 
ATOM      4  H   UNL     1      33.152 -23.431 -17.314  0.00  0.00    +0.150 HD
ENDROOT
BRANCH   2   7
ATOM      5  O   UNL     1      34.577 -25.528 -16.436  0.00  0.00    -0.273 OA
ATOM      6  N   UNL     1      35.386 -25.167 -14.336  0.00  0.00    -0.282 N 
ATOM      7  C   UNL     1      34.151 -23.359 -15.467  0.00  0.00    +0.172 C 
ATOM      8  C   UNL     1      32.965 -23.265 -14.542  0.00  0.00    +0.004 C 
ATOM      9  C   UNL     1      33.179 -23.398 -13.153  0.00  0.00    -0.001 C 
ATOM     10  C   UNL     1      34.700 -24.775 -15.469  0.00  0.00    +0.248 C 
ATOM     11  C   UNL     1      34.533 -23.602 -12.568  0.00  0.00    +0.013 C 
ATOM     12  C   UNL     1      35.498 -24.492 -13.097  0.00  0.00    +0.050 C 
ATOM     13  C   UNL     1      31.657 -23.090 -15.036  0.00  0.00    -0.002 C 
ATOM     14  C   UNL     1      32.048 -23.356 -12.307  0.00  0.00    -0.000 C 
ATOM     15  C   UNL     1      34.859 -22.946 -11.359  0.00  0.00    +0.001 C 
ATOM     16  C   UNL     1      30.564 -23.038 -14.174  0.00  0.00    -0.000 C 
ATOM     17  C   UNL     1      36.665 -24.784 -12.366  0.00  0.00    +0.015 C 
ATOM     18  C   UNL     1      30.758 -23.173 -12.808  0.00  0.00    -0.000 C 
ATOM     19  C   UNL     1      36.045 -23.206 -10.668  0.00  0.00    +0.000 C 
ATOM     20  C   UNL     1      36.940 -24.141 -11.163  0.00  0.00    +0.001 C 
ATOM     21  H   UNL     1      35.860 -26.028 -14.398  0.00  0.00    +0.155 HD
ENDBRANCH   2   7
BRANCH   3  22
ATOM     22  C   UNL     1      34.151 -21.766 -18.945  0.00  0.00    +0.137 C 
ATOM     23  C   UNL     1      32.890 -20.881 -18.944  0.00  0.00    +0.018 C 
ATOM     24  C   UNL     1      33.777 -23.124 -19.571  0.00  0.00    +0.018 C 
BRANCH  22  27
ATOM     25  O   UNL     1      36.156 -21.691 -20.328  0.00  0.00    -0.275 OA
ATOM     26  N   UNL     1      35.038 -19.705 -19.930  0.00  0.00    -0.299 N 
ATOM     27  C   UNL     1      35.230 -21.074 -19.802  0.00  0.00    +0.230 C 
ATOM     28  H   UNL     1      34.271 -19.288 -19.476  0.00  0.00    +0.150 HD
BRANCH  26  29
ATOM     29  C   UNL     1      35.927 -18.873 -20.704  0.00  0.00    +0.166 C 
BRANCH  29  32
ATOM     30  F   UNL     1      34.416 -17.076 -20.834  0.00  0.00    -0.193 F 
ATOM     31  F   UNL     1      36.030 -17.148 -22.299  0.00  0.00    -0.193 F 
ATOM     32  C   UNL     1      35.157 -17.917 -21.599  0.00  0.00    +0.367 C 
BRANCH  32  36
ATOM     33  F   UNL     1      33.752 -17.754 -23.479  0.00  0.00    -0.165 F 
ATOM     34  F   UNL     1      33.201 -19.194 -21.936  0.00  0.00    -0.165 F 
ATOM     35  F   UNL     1      34.903 -19.592 -23.242  0.00  0.00    -0.165 F 
ATOM     36  C   UNL     1      34.246 -18.623 -22.571  0.00  0.00    +0.456 C 
ENDBRANCH  32  36
ENDBRANCH  29  32
ENDBRANCH  26  29
ENDBRANCH  22  27
ENDBRANCH   3  22
TORSDOF 6
ENDMDL
MODEL 4
REMARK VINA RESULT:      -8.4      1.818      2.602
REMARK  Name = 49867930
REMARK  6 active torsions:
REMARK  status: ('A' for Active; 'I' for Inactive)
REMARK    1  A    between atoms: N_2  and  C_7
REMARK    2  A    between atoms: C_3  and  C_22
REMARK    3  A    between atoms: C_22  and  C_27
REMARK    4  A    between atoms: N_26  and  C_29
REMARK    5  A    between atoms: C_29  and  C_32
REMARK    6  A    between atoms: C_32  and  C_36
REMARK                            x       y       z     vdW  Elec       q    Type
REMARK                         _______ _______ _______ _____ _____    ______ ____
ROOT
ATOM      1  O   UNL     1      30.758  -9.934 -22.726  0.00  0.00    -0.275 OA
ATOM      2  N   UNL     1      33.015  -9.461 -22.920  0.00  0.00    -0.295 N 
ATOM      3  C   UNL     1      31.932 -10.299 -22.688  0.00  0.00    +0.230 C 
ATOM      4  H   UNL     1      33.924  -9.837 -22.870  0.00  0.00    +0.150 HD
ENDROOT
BRANCH   2   7
ATOM      5  O   UNL     1      35.221  -8.188 -23.715  0.00  0.00    -0.273 OA
ATOM      6  N   UNL     1      34.097  -6.394 -24.558  0.00  0.00    -0.282 N 
ATOM      7  C   UNL     1      32.860  -8.061 -23.232  0.00  0.00    +0.172 C 
ATOM      8  C   UNL     1      32.466  -7.193 -22.065  0.00  0.00    +0.004 C 
ATOM      9  C   UNL     1      32.076  -5.859 -22.316  0.00  0.00    -0.001 C 
ATOM     10  C   UNL     1      34.164  -7.566 -23.832  0.00  0.00    +0.248 C 
ATOM     11  C   UNL     1      32.018  -5.288 -23.690  0.00  0.00    +0.013 C 
ATOM     12  C   UNL     1      33.014  -5.490 -24.674  0.00  0.00    +0.050 C 
ATOM     13  C   UNL     1      32.517  -7.670 -20.739  0.00  0.00    -0.002 C 
ATOM     14  C   UNL     1      31.758  -5.047 -21.204  0.00  0.00    -0.000 C 
ATOM     15  C   UNL     1      30.957  -4.413 -24.019  0.00  0.00    +0.001 C 
ATOM     16  C   UNL     1      32.183  -6.849 -19.666  0.00  0.00    -0.000 C 
ATOM     17  C   UNL     1      32.988  -4.744 -25.867  0.00  0.00    +0.015 C 
ATOM     18  C   UNL     1      31.804  -5.535 -19.897  0.00  0.00    -0.000 C 
ATOM     19  C   UNL     1      30.916  -3.717 -25.230  0.00  0.00    +0.000 C 
ATOM     20  C   UNL     1      31.943  -3.868 -26.147  0.00  0.00    +0.001 C 
ATOM     21  H   UNL     1      34.909  -6.154 -25.062  0.00  0.00    +0.155 HD
ENDBRANCH   2   7
BRANCH   3  22
ATOM     22  C   UNL     1      32.339 -11.750 -22.362  0.00  0.00    +0.137 C 
ATOM     23  C   UNL     1      31.218 -12.442 -21.563  0.00  0.00    +0.018 C 
ATOM     24  C   UNL     1      33.599 -11.713 -21.476  0.00  0.00    +0.018 C 
BRANCH  22  27
ATOM     25  O   UNL     1      32.790 -12.064 -24.735  0.00  0.00    -0.275 OA
ATOM     26  N   UNL     1      32.661 -13.947 -23.398  0.00  0.00    -0.299 N 
ATOM     27  C   UNL     1      32.615 -12.579 -23.632  0.00  0.00    +0.230 C 
ATOM     28  H   UNL     1      32.509 -14.279 -22.484  0.00  0.00    +0.150 HD
BRANCH  26  29
ATOM     29  C   UNL     1      32.923 -14.899 -24.450  0.00  0.00    +0.166 C 
BRANCH  29  32
ATOM     30  F   UNL     1      35.110 -15.753 -24.570  0.00  0.00    -0.193 F 
ATOM     31  F   UNL     1      34.073 -15.893 -22.657  0.00  0.00    -0.193 F 
ATOM     32  C   UNL     1      33.898 -15.973 -24.001  0.00  0.00    +0.367 C 
BRANCH  32  36
ATOM     33  F   UNL     1      34.307 -17.952 -25.204  0.00  0.00    -0.165 F 
ATOM     34  F   UNL     1      32.227 -17.353 -24.937  0.00  0.00    -0.165 F 
ATOM     35  F   UNL     1      33.360 -18.145 -23.248  0.00  0.00    -0.165 F 
ATOM     36  C   UNL     1      33.442 -17.367 -24.349  0.00  0.00    +0.456 C 
ENDBRANCH  32  36
ENDBRANCH  29  32
ENDBRANCH  26  29
ENDBRANCH  22  27
ENDBRANCH   3  22
TORSDOF 6
ENDMDL
MODEL 5
REMARK VINA RESULT:      -8.2     13.563     18.537
REMARK  Name = 49867930
REMARK  6 active torsions:
REMARK  status: ('A' for Active; 'I' for Inactive)
REMARK    1  A    between atoms: N_2  and  C_7
REMARK    2  A    between atoms: C_3  and  C_22
REMARK    3  A    between atoms: C_22  and  C_27
REMARK    4  A    between atoms: N_26  and  C_29
REMARK    5  A    between atoms: C_29  and  C_32
REMARK    6  A    between atoms: C_32  and  C_36
REMARK                            x       y       z     vdW  Elec       q    Type
REMARK                         _______ _______ _______ _____ _____    ______ ____
ROOT
ATOM      1  O   UNL     1      34.399 -21.935 -15.353  0.00  0.00    -0.275 OA
ATOM      2  N   UNL     1      34.033 -24.166 -14.856  0.00  0.00    -0.295 N 
ATOM      3  C   UNL     1      33.647 -22.907 -15.300  0.00  0.00    +0.230 C 
ATOM      4  H   UNL     1      33.366 -24.890 -14.847  0.00  0.00    +0.150 HD
ENDROOT
BRANCH   2   7
ATOM      5  O   UNL     1      34.763 -26.731 -14.926  0.00  0.00    -0.273 OA
ATOM      6  N   UNL     1      36.990 -26.288 -14.724  0.00  0.00    -0.282 N 
ATOM      7  C   UNL     1      35.375 -24.453 -14.411  0.00  0.00    +0.172 C 
ATOM      8  C   UNL     1      35.638 -24.149 -12.959  0.00  0.00    +0.004 C 
ATOM      9  C   UNL     1      36.970 -24.187 -12.491  0.00  0.00    -0.001 C 
ATOM     10  C   UNL     1      35.660 -25.918 -14.696  0.00  0.00    +0.248 C 
ATOM     11  C   UNL     1      38.122 -24.493 -13.383  0.00  0.00    +0.013 C 
ATOM     12  C   UNL     1      38.123 -25.528 -14.348  0.00  0.00    +0.050 C 
ATOM     13  C   UNL     1      34.589 -23.869 -12.062  0.00  0.00    -0.002 C 
ATOM     14  C   UNL     1      37.191 -23.945 -11.117  0.00  0.00    -0.000 C 
ATOM     15  C   UNL     1      39.330 -23.778 -13.207  0.00  0.00    +0.001 C 
ATOM     16  C   UNL     1      34.841 -23.621 -10.714  0.00  0.00    -0.000 C 
ATOM     17  C   UNL     1      39.321 -25.887 -14.996  0.00  0.00    +0.015 C 
ATOM     18  C   UNL     1      36.143 -23.661 -10.240  0.00  0.00    -0.000 C 
ATOM     19  C   UNL     1      40.499 -24.111 -13.894  0.00  0.00    +0.000 C 
ATOM     20  C   UNL     1      40.499 -25.180 -14.776  0.00  0.00    +0.001 C 
ATOM     21  H   UNL     1      37.175 -27.199 -15.048  0.00  0.00    +0.155 HD
ENDBRANCH   2   7
BRANCH   3  22
ATOM     22  C   UNL     1      32.164 -22.832 -15.714  0.00  0.00    +0.137 C 
ATOM     23  C   UNL     1      31.376 -21.992 -14.690  0.00  0.00    +0.018 C 
ATOM     24  C   UNL     1      31.583 -24.259 -15.704  0.00  0.00    +0.018 C 
BRANCH  22  27
ATOM     25  O   UNL     1      30.888 -21.797 -17.512  0.00  0.00    -0.275 OA
ATOM     26  N   UNL     1      33.156 -22.119 -17.839  0.00  0.00    -0.299 N 
ATOM     27  C   UNL     1      31.978 -22.200 -17.108  0.00  0.00    +0.230 C 
ATOM     28  H   UNL     1      33.987 -22.466 -17.441  0.00  0.00    +0.150 HD
BRANCH  26  29
ATOM     29  C   UNL     1      33.202 -21.546 -19.162  0.00  0.00    +0.166 C 
BRANCH  29  32
ATOM     30  F   UNL     1      35.322 -20.855 -18.414  0.00  0.00    -0.193 F 
ATOM     31  F   UNL     1      35.241 -22.156 -20.162  0.00  0.00    -0.193 F 
ATOM     32  C   UNL     1      34.612 -21.127 -19.539  0.00  0.00    +0.367 C 
BRANCH  32  36
ATOM     33  F   UNL     1      35.786 -19.217 -20.253  0.00  0.00    -0.165 F 
ATOM     34  F   UNL     1      33.609 -19.093 -20.195  0.00  0.00    -0.165 F 
ATOM     35  F   UNL     1      34.594 -20.277 -21.741  0.00  0.00    -0.165 F 
ATOM     36  C   UNL     1      34.648 -19.919 -20.441  0.00  0.00    +0.456 C 
ENDBRANCH  32  36
ENDBRANCH  29  32
ENDBRANCH  26  29
ENDBRANCH  22  27
ENDBRANCH   3  22
TORSDOF 6
ENDMDL
MODEL 6
REMARK VINA RESULT:      -8.1     11.876     17.984
REMARK  Name = 49867930
REMARK  6 active torsions:
REMARK  status: ('A' for Active; 'I' for Inactive)
REMARK    1  A    between atoms: N_2  and  C_7
REMARK    2  A    between atoms: C_3  and  C_22
REMARK    3  A    between atoms: C_22  and  C_27
REMARK    4  A    between atoms: N_26  and  C_29
REMARK    5  A    between atoms: C_29  and  C_32
REMARK    6  A    between atoms: C_32  and  C_36
REMARK                            x       y       z     vdW  Elec       q    Type
REMARK                         _______ _______ _______ _____ _____    ______ ____
ROOT
ATOM      1  O   UNL     1      32.853 -22.765 -15.760  0.00  0.00    -0.275 OA
ATOM      2  N   UNL     1      35.119 -22.894 -16.211  0.00  0.00    -0.295 N 
ATOM      3  C   UNL     1      33.789 -22.688 -16.554  0.00  0.00    +0.230 C 
ATOM      4  H   UNL     1      35.807 -22.811 -16.911  0.00  0.00    +0.150 HD
ENDROOT
BRANCH   2   7
ATOM      5  O   UNL     1      37.342 -21.700 -15.344  0.00  0.00    -0.273 OA
ATOM      6  N   UNL     1      36.963 -22.188 -13.150  0.00  0.00    -0.282 N 
ATOM      7  C   UNL     1      35.531 -23.224 -14.868  0.00  0.00    +0.172 C 
ATOM      8  C   UNL     1      35.915 -24.666 -14.661  0.00  0.00    +0.004 C 
ATOM      9  C   UNL     1      36.116 -25.129 -13.342  0.00  0.00    -0.001 C 
ATOM     10  C   UNL     1      36.693 -22.318 -14.498  0.00  0.00    +0.248 C 
ATOM     11  C   UNL     1      35.941 -24.252 -12.151  0.00  0.00    +0.013 C 
ATOM     12  C   UNL     1      36.420 -22.923 -12.070  0.00  0.00    +0.050 C 
ATOM     13  C   UNL     1      36.112 -25.541 -15.748  0.00  0.00    -0.002 C 
ATOM     14  C   UNL     1      36.521 -26.471 -13.171  0.00  0.00    -0.000 C 
ATOM     15  C   UNL     1      35.344 -24.792 -10.989  0.00  0.00    +0.001 C 
ATOM     16  C   UNL     1      36.498 -26.864 -15.546  0.00  0.00    -0.000 C 
ATOM     17  C   UNL     1      36.402 -22.241 -10.838  0.00  0.00    +0.015 C 
ATOM     18  C   UNL     1      36.705 -27.330 -14.256  0.00  0.00    -0.000 C 
ATOM     19  C   UNL     1      35.285 -24.085  -9.786  0.00  0.00    +0.000 C 
ATOM     20  C   UNL     1      35.833 -22.815  -9.705  0.00  0.00    +0.001 C 
ATOM     21  H   UNL     1      37.618 -21.495 -12.909  0.00  0.00    +0.155 HD
ENDBRANCH   2   7
BRANCH   3  22
ATOM     22  C   UNL     1      33.585 -22.359 -18.046  0.00  0.00    +0.137 C 
ATOM     23  C   UNL     1      32.300 -21.529 -18.230  0.00  0.00    +0.018 C 
ATOM     24  C   UNL     1      33.409 -23.683 -18.816  0.00  0.00    +0.018 C 
BRANCH  22  27
ATOM     25  O   UNL     1      35.910 -21.647 -18.190  0.00  0.00    -0.275 OA
ATOM     26  N   UNL     1      34.411 -20.769 -19.718  0.00  0.00    -0.299 N 
ATOM     27  C   UNL     1      34.766 -21.563 -18.636  0.00  0.00    +0.230 C 
ATOM     28  H   UNL     1      33.472 -20.758 -20.012  0.00  0.00    +0.150 HD
BRANCH  26  29
ATOM     29  C   UNL     1      35.372 -19.956 -20.424  0.00  0.00    +0.166 C 
BRANCH  29  32
ATOM     30  F   UNL     1      34.517 -19.588 -22.584  0.00  0.00    -0.193 F 
ATOM     31  F   UNL     1      33.455 -18.683 -20.908  0.00  0.00    -0.193 F 
ATOM     32  C   UNL     1      34.691 -18.990 -21.378  0.00  0.00    +0.367 C 
BRANCH  32  36
ATOM     33  F   UNL     1      35.309 -17.249 -22.834  0.00  0.00    -0.165 F 
ATOM     34  F   UNL     1      36.786 -17.902 -21.367  0.00  0.00    -0.165 F 
ATOM     35  F   UNL     1      35.047 -16.749 -20.727  0.00  0.00    -0.165 F 
ATOM     36  C   UNL     1      35.466 -17.712 -21.575  0.00  0.00    +0.456 C 
ENDBRANCH  32  36
ENDBRANCH  29  32
ENDBRANCH  26  29
ENDBRANCH  22  27
ENDBRANCH   3  22
TORSDOF 6
ENDMDL
MODEL 7
REMARK VINA RESULT:      -8.1      2.082      3.429
REMARK  Name = 49867930
REMARK  6 active torsions:
REMARK  status: ('A' for Active; 'I' for Inactive)
REMARK    1  A    between atoms: N_2  and  C_7
REMARK    2  A    between atoms: C_3  and  C_22
REMARK    3  A    between atoms: C_22  and  C_27
REMARK    4  A    between atoms: N_26  and  C_29
REMARK    5  A    between atoms: C_29  and  C_32
REMARK    6  A    between atoms: C_32  and  C_36
REMARK                            x       y       z     vdW  Elec       q    Type
REMARK                         _______ _______ _______ _____ _____    ______ ____
ROOT
ATOM      1  O   UNL     1      32.480  -7.409 -19.972  0.00  0.00    -0.275 OA
ATOM      2  N   UNL     1      31.128  -8.240 -21.656  0.00  0.00    -0.295 N 
ATOM      3  C   UNL     1      31.710  -8.270 -20.395  0.00  0.00    +0.230 C 
ATOM      4  H   UNL     1      30.522  -8.972 -21.915  0.00  0.00    +0.150 HD
ENDROOT
BRANCH   2   7
ATOM      5  O   UNL     1      29.450  -8.100 -23.725  0.00  0.00    -0.273 OA
ATOM      6  N   UNL     1      30.064  -5.983 -24.309  0.00  0.00    -0.282 N 
ATOM      7  C   UNL     1      31.377  -7.179 -22.601  0.00  0.00    +0.172 C 
ATOM      8  C   UNL     1      32.688  -7.282 -23.337  0.00  0.00    +0.004 C 
ATOM      9  C   UNL     1      33.117  -6.182 -24.111  0.00  0.00    -0.001 C 
ATOM     10  C   UNL     1      30.225  -7.151 -23.590  0.00  0.00    +0.248 C 
ATOM     11  C   UNL     1      32.334  -4.919 -24.207  0.00  0.00    +0.013 C 
ATOM     12  C   UNL     1      30.931  -4.868 -24.381  0.00  0.00    +0.050 C 
ATOM     13  C   UNL     1      33.465  -8.457 -23.300  0.00  0.00    -0.002 C 
ATOM     14  C   UNL     1      34.324  -6.317 -24.832  0.00  0.00    -0.000 C 
ATOM     15  C   UNL     1      33.029  -3.687 -24.220  0.00  0.00    +0.001 C 
ATOM     16  C   UNL     1      34.659  -8.554 -24.010  0.00  0.00    -0.000 C 
ATOM     17  C   UNL     1      30.301  -3.644 -24.677  0.00  0.00    +0.015 C 
ATOM     18  C   UNL     1      35.089  -7.483 -24.780  0.00  0.00    -0.000 C 
ATOM     19  C   UNL     1      32.383  -2.472 -24.463  0.00  0.00    +0.000 C 
ATOM     20  C   UNL     1      31.020  -2.453 -24.711  0.00  0.00    +0.001 C 
ATOM     21  H   UNL     1      29.237  -5.917 -24.840  0.00  0.00    +0.155 HD
ENDBRANCH   2   7
BRANCH   3  22
ATOM     22  C   UNL     1      31.309  -9.504 -19.564  0.00  0.00    +0.137 C 
ATOM     23  C   UNL     1      29.965  -9.246 -18.855  0.00  0.00    +0.018 C 
ATOM     24  C   UNL     1      32.381  -9.730 -18.480  0.00  0.00    +0.018 C 
BRANCH  22  27
ATOM     25  O   UNL     1      30.427 -10.822 -21.414  0.00  0.00    -0.275 OA
ATOM     26  N   UNL     1      31.960 -11.826 -20.002  0.00  0.00    -0.299 N 
ATOM     27  C   UNL     1      31.166 -10.771 -20.431  0.00  0.00    +0.230 C 
ATOM     28  H   UNL     1      32.523 -11.704 -19.204  0.00  0.00    +0.150 HD
BRANCH  26  29
ATOM     29  C   UNL     1      31.986 -13.097 -20.685  0.00  0.00    +0.166 C 
BRANCH  29  32
ATOM     30  F   UNL     1      34.284 -12.623 -20.546  0.00  0.00    -0.193 F 
ATOM     31  F   UNL     1      33.690 -14.716 -20.690  0.00  0.00    -0.193 F 
ATOM     32  C   UNL     1      33.391 -13.465 -21.125  0.00  0.00    +0.367 C 
BRANCH  32  36
ATOM     33  F   UNL     1      33.911 -12.169 -23.018  0.00  0.00    -0.165 F 
ATOM     34  F   UNL     1      32.438 -13.760 -23.265  0.00  0.00    -0.165 F 
ATOM     35  F   UNL     1      34.550 -14.255 -23.023  0.00  0.00    -0.165 F 
ATOM     36  C   UNL     1      33.574 -13.415 -22.620  0.00  0.00    +0.456 C 
ENDBRANCH  32  36
ENDBRANCH  29  32
ENDBRANCH  26  29
ENDBRANCH  22  27
ENDBRANCH   3  22
TORSDOF 6
ENDMDL
MODEL 8
REMARK VINA RESULT:      -7.9      2.797      4.929
REMARK  Name = 49867930
REMARK  6 active torsions:
REMARK  status: ('A' for Active; 'I' for Inactive)
REMARK    1  A    between atoms: N_2  and  C_7
REMARK    2  A    between atoms: C_3  and  C_22
REMARK    3  A    between atoms: C_22  and  C_27
REMARK    4  A    between atoms: N_26  and  C_29
REMARK    5  A    between atoms: C_29  and  C_32
REMARK    6  A    between atoms: C_32  and  C_36
REMARK                            x       y       z     vdW  Elec       q    Type
REMARK                         _______ _______ _______ _____ _____    ______ ____
ROOT
ATOM      1  O   UNL     1      34.002  -6.920 -24.350  0.00  0.00    -0.275 OA
ATOM      2  N   UNL     1      32.825  -5.053 -25.048  0.00  0.00    -0.295 N 
ATOM      3  C   UNL     1      32.987  -6.225 -24.320  0.00  0.00    +0.230 C 
ATOM      4  H   UNL     1      31.979  -4.557 -24.964  0.00  0.00    +0.150 HD
ENDROOT
BRANCH   2   7
ATOM      5  O   UNL     1      32.747  -2.427 -25.513  0.00  0.00    -0.273 OA
ATOM      6  N   UNL     1      34.865  -2.331 -26.349  0.00  0.00    -0.282 N 
ATOM      7  C   UNL     1      33.849  -4.535 -25.922  0.00  0.00    +0.172 C 
ATOM      8  C   UNL     1      33.793  -5.051 -27.337  0.00  0.00    +0.004 C 
ATOM      9  C   UNL     1      34.877  -4.776 -28.200  0.00  0.00    -0.001 C 
ATOM     10  C   UNL     1      33.749  -3.020 -25.915  0.00  0.00    +0.248 C 
ATOM     11  C   UNL     1      36.080  -4.018 -27.756  0.00  0.00    +0.013 C 
ATOM     12  C   UNL     1      36.030  -2.844 -26.969  0.00  0.00    +0.050 C 
ATOM     13  C   UNL     1      32.675  -5.759 -27.821  0.00  0.00    -0.002 C 
ATOM     14  C   UNL     1      34.784  -5.226 -29.535  0.00  0.00    -0.000 C 
ATOM     15  C   UNL     1      37.352  -4.429 -28.217  0.00  0.00    +0.001 C 
ATOM     16  C   UNL     1      32.620  -6.202 -29.140  0.00  0.00    -0.000 C 
ATOM     17  C   UNL     1      37.192  -2.074 -26.776  0.00  0.00    +0.015 C 
ATOM     18  C   UNL     1      33.674  -5.933 -30.000  0.00  0.00    -0.000 C 
ATOM     19  C   UNL     1      38.508  -3.683 -27.974  0.00  0.00    +0.000 C 
ATOM     20  C   UNL     1      38.424  -2.493 -27.269  0.00  0.00    +0.001 C 
ATOM     21  H   UNL     1      34.849  -1.357 -26.209  0.00  0.00    +0.155 HD
ENDBRANCH   2   7
BRANCH   3  22
ATOM     22  C   UNL     1      31.758  -6.590 -23.465  0.00  0.00    +0.137 C 
ATOM     23  C   UNL     1      30.559  -6.910 -24.379  0.00  0.00    +0.018 C 
ATOM     24  C   UNL     1      31.384  -5.368 -22.604  0.00  0.00    +0.018 C 
BRANCH  22  27
ATOM     25  O   UNL     1      32.219  -7.706 -21.349  0.00  0.00    -0.275 OA
ATOM     26  N   UNL     1      31.983  -9.020 -23.239  0.00  0.00    -0.299 N 
ATOM     27  C   UNL     1      32.018  -7.810 -22.558  0.00  0.00    +0.230 C 
ATOM     28  H   UNL     1      31.816  -9.015 -24.208  0.00  0.00    +0.150 HD
BRANCH  26  29
ATOM     29  C   UNL     1      32.186 -10.283 -22.572  0.00  0.00    +0.166 C 
BRANCH  29  32
ATOM     30  F   UNL     1      32.187 -11.399 -24.642  0.00  0.00    -0.193 F 
ATOM     31  F   UNL     1      34.116 -10.836 -23.795  0.00  0.00    -0.193 F 
ATOM     32  C   UNL     1      32.876 -11.288 -23.478  0.00  0.00    +0.367 C 
BRANCH  32  36
ATOM     33  F   UNL     1      33.134 -13.603 -23.807  0.00  0.00    -0.165 F 
ATOM     34  F   UNL     1      31.915 -12.960 -22.116  0.00  0.00    -0.165 F 
ATOM     35  F   UNL     1      34.084 -12.727 -22.049  0.00  0.00    -0.165 F 
ATOM     36  C   UNL     1      33.003 -12.654 -22.855  0.00  0.00    +0.456 C 
ENDBRANCH  32  36
ENDBRANCH  29  32
ENDBRANCH  26  29
ENDBRANCH  22  27
ENDBRANCH   3  22
TORSDOF 6
ENDMDL
MODEL 9
REMARK VINA RESULT:      -7.8     15.674     19.130
REMARK  Name = 49867930
REMARK  6 active torsions:
REMARK  status: ('A' for Active; 'I' for Inactive)
REMARK    1  A    between atoms: N_2  and  C_7
REMARK    2  A    between atoms: C_3  and  C_22
REMARK    3  A    between atoms: C_22  and  C_27
REMARK    4  A    between atoms: N_26  and  C_29
REMARK    5  A    between atoms: C_29  and  C_32
REMARK    6  A    between atoms: C_32  and  C_36
REMARK                            x       y       z     vdW  Elec       q    Type
REMARK                         _______ _______ _______ _____ _____    ______ ____
ROOT
ATOM      1  O   UNL     1      35.165 -22.193 -16.883  0.00  0.00    -0.275 OA
ATOM      2  N   UNL     1      34.297 -23.875 -15.551  0.00  0.00    -0.295 N 
ATOM      3  C   UNL     1      34.215 -22.887 -16.524  0.00  0.00    +0.230 C 
ATOM      4  H   UNL     1      33.485 -24.384 -15.325  0.00  0.00    +0.150 HD
ENDROOT
BRANCH   2   7
ATOM      5  O   UNL     1      35.075 -26.425 -15.637  0.00  0.00    -0.273 OA
ATOM      6  N   UNL     1      37.205 -25.983 -14.955  0.00  0.00    -0.282 N 
ATOM      7  C   UNL     1      35.524 -24.184 -14.861  0.00  0.00    +0.172 C 
ATOM      8  C   UNL     1      35.481 -23.976 -13.369  0.00  0.00    +0.004 C 
ATOM      9  C   UNL     1      36.690 -24.038 -12.642  0.00  0.00    -0.001 C 
ATOM     10  C   UNL     1      35.890 -25.624 -15.175  0.00  0.00    +0.248 C 
ATOM     11  C   UNL     1      38.005 -24.276 -13.298  0.00  0.00    +0.013 C 
ATOM     12  C   UNL     1      38.223 -25.244 -14.307  0.00  0.00    +0.050 C 
ATOM     13  C   UNL     1      34.265 -23.763 -12.689  0.00  0.00    -0.002 C 
ATOM     14  C   UNL     1      36.622 -23.888 -11.239  0.00  0.00    -0.000 C 
ATOM     15  C   UNL     1      39.137 -23.568 -12.832  0.00  0.00    +0.001 C 
ATOM     16  C   UNL     1      34.233 -23.605 -11.305  0.00  0.00    -0.000 C 
ATOM     17  C   UNL     1      39.534 -25.552 -14.718  0.00  0.00    +0.015 C 
ATOM     18  C   UNL     1      35.412 -23.669 -10.578  0.00  0.00    -0.000 C 
ATOM     19  C   UNL     1      40.428 -23.847 -13.286  0.00  0.00    +0.000 C 
ATOM     20  C   UNL     1      40.628 -24.855 -14.217  0.00  0.00    +0.001 C 
ATOM     21  H   UNL     1      37.470 -26.870 -15.293  0.00  0.00    +0.155 HD
ENDBRANCH   2   7
BRANCH   3  22
ATOM     22  C   UNL     1      32.801 -22.725 -17.116  0.00  0.00    +0.137 C 
ATOM     23  C   UNL     1      32.410 -23.994 -17.897  0.00  0.00    +0.018 C 
ATOM     24  C   UNL     1      32.821 -21.546 -18.109  0.00  0.00    +0.018 C 
BRANCH  22  27
ATOM     25  O   UNL     1      32.027 -22.314 -14.843  0.00  0.00    -0.275 OA
ATOM     26  N   UNL     1      30.441 -22.436 -16.523  0.00  0.00    -0.299 N 
ATOM     27  C   UNL     1      31.737 -22.475 -16.028  0.00  0.00    +0.230 C 
ATOM     28  H   UNL     1      30.295 -22.576 -17.486  0.00  0.00    +0.150 HD
BRANCH  26  29
ATOM     29  C   UNL     1      29.299 -22.199 -15.673  0.00  0.00    +0.166 C 
BRANCH  29  32
ATOM     30  F   UNL     1      27.185 -23.072 -15.133  0.00  0.00    -0.193 F 
ATOM     31  F   UNL     1      28.268 -23.994 -16.786  0.00  0.00    -0.193 F 
ATOM     32  C   UNL     1      28.422 -23.432 -15.560  0.00  0.00    +0.367 C 
BRANCH  32  36
ATOM     33  F   UNL     1      27.985 -25.202 -14.072  0.00  0.00    -0.165 F 
ATOM     34  F   UNL     1      29.670 -23.895 -13.610  0.00  0.00    -0.165 F 
ATOM     35  F   UNL     1      29.811 -25.317 -15.260  0.00  0.00    -0.165 F 
ATOM     36  C   UNL     1      28.979 -24.469 -14.618  0.00  0.00    +0.456 C 
ENDBRANCH  32  36
ENDBRANCH  29  32
ENDBRANCH  26  29
ENDBRANCH  22  27
ENDBRANCH   3  22
TORSDOF 6
ENDMDL
