MODEL 1
REMARK VINA RESULT:     -13.8      0.000      0.000
REMARK  Name = 7297549
REMARK  3 active torsions:
REMARK  status: ('A' for Active; 'I' for Inactive)
REMARK    1  A    between atoms: N_3  and  S_16
REMARK    2  A    between atoms: C_7  and  C_11
REMARK    3  A    between atoms: S_16  and  C_19
REMARK                            x       y       z     vdW  Elec       q    Type
REMARK                         _______ _______ _______ _____ _____    ______ ____
ROOT
ATOM      1  S   UNL     1      33.684 -14.518 -21.690  0.00  0.00    -0.025 S 
ATOM      2  O   UNL     1      33.467 -15.180 -25.438  0.00  0.00    -0.209 OA
ATOM      3  N   UNL     1      34.999 -16.832 -21.329  0.00  0.00    -0.183 N 
ATOM      4  N   UNL     1      34.323 -16.220 -23.549  0.00  0.00    -0.309 NA
ATOM      5  C   UNL     1      34.393 -15.987 -22.280  0.00  0.00    +0.243 C 
ATOM      6  C   UNL     1      33.226 -14.132 -23.300  0.00  0.00    +0.131 C 
ATOM      7  C   UNL     1      32.572 -13.037 -23.688  0.00  0.00    +0.057 C 
ATOM      8  C   UNL     1      33.668 -15.209 -24.232  0.00  0.00    +0.213 C 
ATOM      9  H   UNL     1      34.960 -16.561 -20.383  0.00  0.00    +0.177 HD
ENDROOT
BRANCH   7  11
ATOM     10  O   UNL     1      32.309 -10.690 -23.128  0.00  0.00    -0.458 OA
ATOM     11  C   UNL     1      32.138 -11.989 -22.808  0.00  0.00    +0.146 C 
ATOM     12  C   UNL     1      31.794  -9.983 -22.088  0.00  0.00    +0.123 C 
ATOM     13  C   UNL     1      31.531 -12.143 -21.598  0.00  0.00    +0.040 C 
ATOM     14  C   UNL     1      31.304 -10.830 -21.122  0.00  0.00    +0.036 C 
ATOM     15  C   UNL     1      31.863  -8.519 -22.202  0.00  0.00    +0.072 C 
ENDBRANCH   7  11
BRANCH   3  16
ATOM     16  S   UNL     1      35.800 -18.298 -21.707  0.00  0.00    +0.076 S 
ATOM     17  O   UNL     1      37.187 -18.202 -21.271  0.00  0.00    -0.150 OA
ATOM     18  O   UNL     1      35.507 -18.647 -23.091  0.00  0.00    -0.150 OA
BRANCH  16  19
ATOM     19  C   UNL     1      34.963 -19.433 -20.679  0.00  0.00    +0.125 C 
ATOM     20  C   UNL     1      33.570 -19.499 -20.700  0.00  0.00    +0.020 C 
ATOM     21  C   UNL     1      35.687 -20.275 -19.835  0.00  0.00    +0.020 C 
ATOM     22  C   UNL     1      33.625 -21.249 -19.037  0.00  0.00    -0.022 C 
ATOM     23  C   UNL     1      32.901 -20.407 -19.880  0.00  0.00    -0.003 C 
ATOM     24  C   UNL     1      35.019 -21.184 -19.015  0.00  0.00    -0.003 C 
ATOM     25  C   UNL     1      32.911 -22.220 -18.159  0.00  0.00    +0.031 C 
ENDBRANCH  16  19
ENDBRANCH   3  16
TORSDOF 3
ENDMDL
MODEL 2
REMARK VINA RESULT:     -11.7      0.959      1.620
REMARK  Name = 7297549
REMARK  3 active torsions:
REMARK  status: ('A' for Active; 'I' for Inactive)
REMARK    1  A    between atoms: N_3  and  S_16
REMARK    2  A    between atoms: C_7  and  C_11
REMARK    3  A    between atoms: S_16  and  C_19
REMARK                            x       y       z     vdW  Elec       q    Type
REMARK                         _______ _______ _______ _____ _____    ______ ____
ROOT
ATOM      1  S   UNL     1      34.016 -15.030 -21.701  0.00  0.00    -0.025 S 
ATOM      2  O   UNL     1      34.183 -15.896 -25.410  0.00  0.00    -0.209 OA
ATOM      3  N   UNL     1      35.092 -17.408 -21.068  0.00  0.00    -0.183 N 
ATOM      4  N   UNL     1      34.729 -16.882 -23.382  0.00  0.00    -0.309 NA
ATOM      5  C   UNL     1      34.670 -16.579 -22.127  0.00  0.00    +0.243 C 
ATOM      6  C   UNL     1      33.780 -14.708 -23.372  0.00  0.00    +0.131 C 
ATOM      7  C   UNL     1      33.264 -13.594 -23.890  0.00  0.00    +0.057 C 
ATOM      8  C   UNL     1      34.240 -15.868 -24.188  0.00  0.00    +0.213 C 
ATOM      9  H   UNL     1      34.965 -17.079 -20.149  0.00  0.00    +0.177 HD
ENDROOT
BRANCH   7  11
ATOM     10  O   UNL     1      32.053 -12.626 -22.023  0.00  0.00    -0.458 OA
ATOM     11  C   UNL     1      32.816 -12.467 -23.123  0.00  0.00    +0.146 C 
ATOM     12  C   UNL     1      31.815 -11.373 -21.553  0.00  0.00    +0.123 C 
ATOM     13  C   UNL     1      33.078 -11.154 -23.379  0.00  0.00    +0.040 C 
ATOM     14  C   UNL     1      32.424 -10.433 -22.352  0.00  0.00    +0.036 C 
ATOM     15  C   UNL     1      30.992 -11.281 -20.339  0.00  0.00    +0.072 C 
ENDBRANCH   7  11
BRANCH   3  16
ATOM     16  S   UNL     1      35.813 -18.948 -21.273  0.00  0.00    +0.076 S 
ATOM     17  O   UNL     1      37.159 -18.916 -20.715  0.00  0.00    -0.150 OA
ATOM     18  O   UNL     1      35.619 -19.375 -22.652  0.00  0.00    -0.150 OA
BRANCH  16  19
ATOM     19  C   UNL     1      34.806 -19.947 -20.256  0.00  0.00    +0.125 C 
ATOM     20  C   UNL     1      35.386 -20.897 -19.416  0.00  0.00    +0.020 C 
ATOM     21  C   UNL     1      33.419 -19.795 -20.283  0.00  0.00    +0.020 C 
ATOM     22  C   UNL     1      33.196 -21.542 -18.629  0.00  0.00    -0.022 C 
ATOM     23  C   UNL     1      34.581 -21.694 -18.602  0.00  0.00    -0.003 C 
ATOM     24  C   UNL     1      32.614 -20.592 -19.470  0.00  0.00    -0.003 C 
ATOM     25  C   UNL     1      32.334 -22.394 -17.760  0.00  0.00    +0.031 C 
ENDBRANCH  16  19
ENDBRANCH   3  16
TORSDOF 3
ENDMDL
MODEL 3
REMARK VINA RESULT:     -11.4      3.158      9.227
REMARK  Name = 7297549
REMARK  3 active torsions:
REMARK  status: ('A' for Active; 'I' for Inactive)
REMARK    1  A    between atoms: N_3  and  S_16
REMARK    2  A    between atoms: C_7  and  C_11
REMARK    3  A    between atoms: S_16  and  C_19
REMARK                            x       y       z     vdW  Elec       q    Type
REMARK                         _______ _______ _______ _____ _____    ______ ____
ROOT
ATOM      1  S   UNL     1      32.861 -20.871 -19.091  0.00  0.00    -0.025 S 
ATOM      2  O   UNL     1      36.377 -21.842 -17.982  0.00  0.00    -0.209 OA
ATOM      3  N   UNL     1      33.869 -19.435 -21.125  0.00  0.00    -0.183 N 
ATOM      4  N   UNL     1      35.383 -20.577 -19.654  0.00  0.00    -0.309 NA
ATOM      5  C   UNL     1      34.188 -20.254 -20.023  0.00  0.00    +0.243 C 
ATOM      6  C   UNL     1      33.992 -21.666 -18.071  0.00  0.00    +0.131 C 
ATOM      7  C   UNL     1      33.697 -22.424 -17.015  0.00  0.00    +0.057 C 
ATOM      8  C   UNL     1      35.382 -21.393 -18.535  0.00  0.00    +0.213 C 
ATOM      9  H   UNL     1      32.919 -19.233 -21.287  0.00  0.00    +0.177 HD
ENDROOT
BRANCH   7  11
ATOM     10  O   UNL     1      32.143 -23.545 -15.525  0.00  0.00    -0.458 OA
ATOM     11  C   UNL     1      32.367 -22.700 -16.553  0.00  0.00    +0.146 C 
ATOM     12  C   UNL     1      30.795 -23.574 -15.358  0.00  0.00    +0.123 C 
ATOM     13  C   UNL     1      31.209 -22.184 -17.053  0.00  0.00    +0.040 C 
ATOM     14  C   UNL     1      30.176 -22.754 -16.273  0.00  0.00    +0.036 C 
ATOM     15  C   UNL     1      30.293 -24.438 -14.280  0.00  0.00    +0.072 C 
ENDBRANCH   7  11
BRANCH   3  16
ATOM     16  S   UNL     1      35.022 -18.770 -22.203  0.00  0.00    +0.076 S 
ATOM     17  O   UNL     1      34.791 -19.316 -23.534  0.00  0.00    -0.150 OA
ATOM     18  O   UNL     1      36.344 -18.884 -21.601  0.00  0.00    -0.150 OA
BRANCH  16  19
ATOM     19  C   UNL     1      34.576 -17.083 -22.200  0.00  0.00    +0.125 C 
ATOM     20  C   UNL     1      34.431 -16.401 -20.991  0.00  0.00    +0.020 C 
ATOM     21  C   UNL     1      34.364 -16.415 -23.406  0.00  0.00    +0.020 C 
ATOM     22  C   UNL     1      33.865 -14.385 -22.195  0.00  0.00    -0.022 C 
ATOM     23  C   UNL     1      34.076 -15.052 -20.990  0.00  0.00    -0.003 C 
ATOM     24  C   UNL     1      34.009 -15.067 -23.404  0.00  0.00    -0.003 C 
ATOM     25  C   UNL     1      33.485 -12.943 -22.194  0.00  0.00    +0.031 C 
ENDBRANCH  16  19
ENDBRANCH   3  16
TORSDOF 3
ENDMDL
MODEL 4
REMARK VINA RESULT:     -11.3      6.361     11.538
REMARK  Name = 7297549
REMARK  3 active torsions:
REMARK  status: ('A' for Active; 'I' for Inactive)
REMARK    1  A    between atoms: N_3  and  S_16
REMARK    2  A    between atoms: C_7  and  C_11
REMARK    3  A    between atoms: S_16  and  C_19
REMARK                            x       y       z     vdW  Elec       q    Type
REMARK                         _______ _______ _______ _____ _____    ______ ____
ROOT
ATOM      1  S   UNL     1      34.703 -22.919 -15.149  0.00  0.00    -0.025 S 
ATOM      2  O   UNL     1      31.055 -23.714 -14.378  0.00  0.00    -0.209 OA
ATOM      3  N   UNL     1      34.039 -22.149 -17.635  0.00  0.00    -0.183 N 
ATOM      4  N   UNL     1      32.306 -22.913 -16.160  0.00  0.00    -0.309 NA
ATOM      5  C   UNL     1      33.545 -22.646 -16.412  0.00  0.00    +0.243 C 
ATOM      6  C   UNL     1      33.422 -23.457 -14.138  0.00  0.00    +0.131 C 
ATOM      7  C   UNL     1      33.541 -23.878 -12.879  0.00  0.00    +0.057 C 
ATOM      8  C   UNL     1      32.126 -23.388 -14.871  0.00  0.00    +0.213 C 
ATOM      9  H   UNL     1      35.011 -22.015 -17.717  0.00  0.00    +0.177 HD
ENDROOT
BRANCH   7  11
ATOM     10  O   UNL     1      35.785 -24.748 -12.565  0.00  0.00    -0.458 OA
ATOM     11  C   UNL     1      34.778 -23.950 -12.155  0.00  0.00    +0.146 C 
ATOM     12  C   UNL     1      36.786 -24.574 -11.663  0.00  0.00    +0.123 C 
ATOM     13  C   UNL     1      35.096 -23.269 -11.018  0.00  0.00    +0.040 C 
ATOM     14  C   UNL     1      36.411 -23.675 -10.692  0.00  0.00    +0.036 C 
ATOM     15  C   UNL     1      38.012 -25.349 -11.897  0.00  0.00    +0.072 C 
ENDBRANCH   7  11
BRANCH   3  16
ATOM     16  S   UNL     1      33.062 -21.761 -18.987  0.00  0.00    +0.076 S 
ATOM     17  O   UNL     1      31.865 -21.072 -18.521  0.00  0.00    -0.150 OA
ATOM     18  O   UNL     1      32.926 -22.948 -19.821  0.00  0.00    -0.150 OA
BRANCH  16  19
ATOM     19  C   UNL     1      34.073 -20.621 -19.838  0.00  0.00    +0.125 C 
ATOM     20  C   UNL     1      33.512 -19.756 -20.778  0.00  0.00    +0.020 C 
ATOM     21  C   UNL     1      35.443 -20.574 -19.578  0.00  0.00    +0.020 C 
ATOM     22  C   UNL     1      35.689 -18.797 -21.197  0.00  0.00    -0.022 C 
ATOM     23  C   UNL     1      34.320 -18.844 -21.456  0.00  0.00    -0.003 C 
ATOM     24  C   UNL     1      36.251 -19.663 -20.257  0.00  0.00    -0.003 C 
ATOM     25  C   UNL     1      36.554 -17.823 -21.922  0.00  0.00    +0.031 C 
ENDBRANCH  16  19
ENDBRANCH   3  16
TORSDOF 3
ENDMDL
MODEL 5
REMARK VINA RESULT:     -11.0      5.324     10.070
REMARK  Name = 7297549
REMARK  3 active torsions:
REMARK  status: ('A' for Active; 'I' for Inactive)
REMARK    1  A    between atoms: N_3  and  S_16
REMARK    2  A    between atoms: C_7  and  C_11
REMARK    3  A    between atoms: S_16  and  C_19
REMARK                            x       y       z     vdW  Elec       q    Type
REMARK                         _______ _______ _______ _____ _____    ______ ____
ROOT
ATOM      1  S   UNL     1      32.102 -22.337 -17.219  0.00  0.00    -0.025 S 
ATOM      2  O   UNL     1      34.697 -23.465 -14.664  0.00  0.00    -0.209 OA
ATOM      3  N   UNL     1      34.036 -21.299 -18.767  0.00  0.00    -0.183 N 
ATOM      4  N   UNL     1      34.651 -22.359 -16.704  0.00  0.00    -0.309 NA
ATOM      5  C   UNL     1      33.765 -21.982 -17.564  0.00  0.00    +0.243 C 
ATOM      6  C   UNL     1      32.601 -23.084 -15.754  0.00  0.00    +0.131 C 
ATOM      7  C   UNL     1      31.802 -23.655 -14.854  0.00  0.00    +0.057 C 
ATOM      8  C   UNL     1      34.084 -23.007 -15.619  0.00  0.00    +0.213 C 
ATOM      9  H   UNL     1      33.270 -21.034 -19.327  0.00  0.00    +0.177 HD
ENDROOT
BRANCH   7  11
ATOM     10  O   UNL     1      29.628 -22.656 -15.261  0.00  0.00    -0.458 OA
ATOM     11  C   UNL     1      30.374 -23.740 -14.965  0.00  0.00    +0.146 C 
ATOM     12  C   UNL     1      28.340 -23.089 -15.286  0.00  0.00    +0.123 C 
ATOM     13  C   UNL     1      29.610 -24.857 -14.798  0.00  0.00    +0.040 C 
ATOM     14  C   UNL     1      28.276 -24.434 -15.007  0.00  0.00    +0.036 C 
ATOM     15  C   UNL     1      27.320 -22.076 -15.592  0.00  0.00    +0.072 C 
ENDBRANCH   7  11
BRANCH   3  16
ATOM     16  S   UNL     1      35.607 -20.901 -19.321  0.00  0.00    +0.076 S 
ATOM     17  O   UNL     1      36.191 -22.072 -19.961  0.00  0.00    -0.150 OA
ATOM     18  O   UNL     1      36.328 -20.239 -18.241  0.00  0.00    -0.150 OA
BRANCH  16  19
ATOM     19  C   UNL     1      35.257 -19.705 -20.543  0.00  0.00    +0.125 C 
ATOM     20  C   UNL     1      36.182 -18.698 -20.820  0.00  0.00    +0.020 C 
ATOM     21  C   UNL     1      34.053 -19.756 -21.245  0.00  0.00    +0.020 C 
ATOM     22  C   UNL     1      34.700 -17.795 -22.499  0.00  0.00    -0.022 C 
ATOM     23  C   UNL     1      35.904 -17.744 -21.798  0.00  0.00    -0.003 C 
ATOM     24  C   UNL     1      33.774 -18.802 -22.223  0.00  0.00    -0.003 C 
ATOM     25  C   UNL     1      34.401 -16.775 -23.545  0.00  0.00    +0.031 C 
ENDBRANCH  16  19
ENDBRANCH   3  16
TORSDOF 3
ENDMDL
