MODEL 1
REMARK VINA RESULT:     -13.4      0.000      0.000
REMARK  Name = 60149
REMARK  5 active torsions:
REMARK  status: ('A' for Active; 'I' for Inactive)
REMARK    1  A    between atoms: N_2  and  C_12
REMARK    2  A    between atoms: C_3  and  C_19
REMARK    3  A    between atoms: N_18  and  C_25
REMARK    4  A    between atoms: C_25  and  C_26
REMARK    5  A    between atoms: C_26  and  N_28
REMARK                            x       y       z     vdW  Elec       q    Type
REMARK                         _______ _______ _______ _____ _____    ______ ____
ROOT
ATOM      1 CL   UNL     1      28.831 -22.625 -16.136  0.00  0.00    -0.082 Cl
ATOM      2  N   UNL     1      34.608 -23.158 -15.438  0.00  0.00    -0.265 N 
ATOM      3  C   UNL     1      33.980 -22.269 -17.367  0.00  0.00    -0.006 C 
ATOM      4  C   UNL     1      32.810 -22.561 -16.617  0.00  0.00    +0.012 C 
ATOM      5  C   UNL     1      35.069 -22.645 -16.620  0.00  0.00    +0.065 C 
ATOM      6  C   UNL     1      33.232 -23.118 -15.408  0.00  0.00    +0.055 C 
ATOM      7  C   UNL     1      31.428 -22.406 -16.847  0.00  0.00    +0.012 C 
ATOM      8  C   UNL     1      32.337 -23.529 -14.414  0.00  0.00    +0.016 C 
ATOM      9  C   UNL     1      30.523 -22.813 -15.862  0.00  0.00    +0.058 C 
ATOM     10  C   UNL     1      30.972 -23.366 -14.664  0.00  0.00    +0.013 C 
ENDROOT
BRANCH   2  12
ATOM     11  F   UNL     1      37.862 -25.070 -11.422  0.00  0.00    -0.204 F 
ATOM     12  C   UNL     1      35.433 -23.643 -14.420  0.00  0.00    +0.056 C 
ATOM     13  C   UNL     1      35.872 -22.778 -13.428  0.00  0.00    +0.017 C 
ATOM     14  C   UNL     1      35.799 -24.981 -14.418  0.00  0.00    +0.017 C 
ATOM     15  C   UNL     1      36.697 -23.262 -12.412  0.00  0.00    +0.031 C 
ATOM     16  C   UNL     1      36.624 -25.464 -13.401  0.00  0.00    +0.031 C 
ATOM     17  C   UNL     1      37.072 -24.605 -12.398  0.00  0.00    +0.140 C 
ENDBRANCH   2  12
BRANCH   3  19
ATOM     18  N   UNL     1      34.167 -19.379 -20.594  0.00  0.00    +0.388 N 
ATOM     19  C   UNL     1      34.029 -21.654 -18.747  0.00  0.00    +0.019 C 
ATOM     20  C   UNL     1      32.818 -20.753 -19.039  0.00  0.00    -0.018 C 
ATOM     21  C   UNL     1      35.330 -20.878 -19.006  0.00  0.00    -0.018 C 
ATOM     22  C   UNL     1      32.913 -20.129 -20.433  0.00  0.00    -0.077 C 
ATOM     23  C   UNL     1      35.334 -20.249 -20.401  0.00  0.00    -0.077 C 
ATOM     24  H   UNL     1      34.193 -18.653 -19.878  0.00  0.00    -0.080 HD
BRANCH  18  25
ATOM     25  C   UNL     1      34.216 -18.742 -21.910  0.00  0.00    -0.055 C 
BRANCH  25  26
ATOM     26  C   UNL     1      35.166 -17.554 -21.887  0.00  0.00    +0.077 C 
BRANCH  26  28
ATOM     27  O   UNL     1      34.263 -15.046 -20.498  0.00  0.00    -0.252 OA
ATOM     28  N   UNL     1      34.541 -16.377 -22.427  0.00  0.00    -0.243 N 
ATOM     29  N   UNL     1      33.616 -14.323 -22.628  0.00  0.00    -0.266 N 
ATOM     30  C   UNL     1      34.311 -16.201 -23.850  0.00  0.00    +0.085 C 
ATOM     31  C   UNL     1      33.584 -14.870 -23.960  0.00  0.00    +0.082 C 
ATOM     32  C   UNL     1      34.154 -15.232 -21.703  0.00  0.00    +0.311 C 
ATOM     33  H   UNL     1      33.298 -13.421 -22.395  0.00  0.00    +0.157 HD
ENDBRANCH  26  28
ENDBRANCH  25  26
ENDBRANCH  18  25
ENDBRANCH   3  19
TORSDOF 5
ENDMDL
MODEL 2
REMARK VINA RESULT:     -12.6      3.005      4.532
REMARK  Name = 60149
REMARK  5 active torsions:
REMARK  status: ('A' for Active; 'I' for Inactive)
REMARK    1  A    between atoms: N_2  and  C_12
REMARK    2  A    between atoms: C_3  and  C_19
REMARK    3  A    between atoms: N_18  and  C_25
REMARK    4  A    between atoms: C_25  and  C_26
REMARK    5  A    between atoms: C_26  and  N_28
REMARK                            x       y       z     vdW  Elec       q    Type
REMARK                         _______ _______ _______ _____ _____    ______ ____
ROOT
ATOM      1 CL   UNL     1      38.170 -22.558 -15.392  0.00  0.00    -0.082 Cl
ATOM      2  N   UNL     1      32.496 -22.547 -16.786  0.00  0.00    -0.265 N 
ATOM      3  C   UNL     1      33.829 -21.637 -18.302  0.00  0.00    -0.006 C 
ATOM      4  C   UNL     1      34.634 -22.077 -17.217  0.00  0.00    +0.012 C 
ATOM      5  C   UNL     1      32.522 -21.938 -18.011  0.00  0.00    +0.065 C 
ATOM      6  C   UNL     1      33.772 -22.646 -16.278  0.00  0.00    +0.055 C 
ATOM      7  C   UNL     1      36.016 -22.048 -16.940  0.00  0.00    +0.012 C 
ATOM      8  C   UNL     1      34.224 -23.190 -15.070  0.00  0.00    +0.016 C 
ATOM      9  C   UNL     1      36.481 -22.588 -15.736  0.00  0.00    +0.058 C 
ATOM     10  C   UNL     1      35.598 -23.150 -14.817  0.00  0.00    +0.013 C 
ENDROOT
BRANCH   2  12
ATOM     11  F   UNL     1      27.900 -24.330 -14.321  0.00  0.00    -0.204 F 
ATOM     12  C   UNL     1      31.330 -22.999 -16.161  0.00  0.00    +0.056 C 
ATOM     13  C   UNL     1      31.413 -24.002 -15.206  0.00  0.00    +0.017 C 
ATOM     14  C   UNL     1      30.110 -22.437 -16.506  0.00  0.00    +0.017 C 
ATOM     15  C   UNL     1      30.250 -24.454 -14.583  0.00  0.00    +0.031 C 
ATOM     16  C   UNL     1      28.946 -22.890 -15.883  0.00  0.00    +0.031 C 
ATOM     17  C   UNL     1      29.016 -23.897 -14.920  0.00  0.00    +0.140 C 
ENDBRANCH   2  12
BRANCH   3  19
ATOM     18  N   UNL     1      35.037 -18.593 -21.143  0.00  0.00    +0.388 N 
ATOM     19  C   UNL     1      34.318 -20.955 -19.560  0.00  0.00    +0.019 C 
ATOM     20  C   UNL     1      33.263 -20.021 -20.177  0.00  0.00    -0.018 C 
ATOM     21  C   UNL     1      35.632 -20.187 -19.346  0.00  0.00    -0.018 C 
ATOM     22  C   UNL     1      33.800 -19.331 -21.432  0.00  0.00    -0.077 C 
ATOM     23  C   UNL     1      36.082 -19.488 -20.632  0.00  0.00    -0.077 C 
ATOM     24  H   UNL     1      34.831 -17.904 -20.420  0.00  0.00    -0.080 HD
BRANCH  18  25
ATOM     25  C   UNL     1      35.505 -17.891 -22.339  0.00  0.00    -0.055 C 
BRANCH  25  26
ATOM     26  C   UNL     1      34.332 -17.559 -23.249  0.00  0.00    +0.077 C 
BRANCH  26  28
ATOM     27  O   UNL     1      33.151 -15.833 -25.408  0.00  0.00    -0.252 OA
ATOM     28  N   UNL     1      34.061 -16.147 -23.254  0.00  0.00    -0.243 N 
ATOM     29  N   UNL     1      33.382 -14.081 -23.873  0.00  0.00    -0.266 N 
ATOM     30  C   UNL     1      34.274 -15.310 -22.085  0.00  0.00    +0.085 C 
ATOM     31  C   UNL     1      33.924 -13.905 -22.550  0.00  0.00    +0.082 C 
ATOM     32  C   UNL     1      33.492 -15.410 -24.310  0.00  0.00    +0.311 C 
ATOM     33  H   UNL     1      32.982 -13.355 -24.405  0.00  0.00    +0.157 HD
ENDBRANCH  26  28
ENDBRANCH  25  26
ENDBRANCH  18  25
ENDBRANCH   3  19
TORSDOF 5
ENDMDL
MODEL 3
REMARK VINA RESULT:     -11.2      1.537      2.046
REMARK  Name = 60149
REMARK  5 active torsions:
REMARK  status: ('A' for Active; 'I' for Inactive)
REMARK    1  A    between atoms: N_2  and  C_12
REMARK    2  A    between atoms: C_3  and  C_19
REMARK    3  A    between atoms: N_18  and  C_25
REMARK    4  A    between atoms: C_25  and  C_26
REMARK    5  A    between atoms: C_26  and  N_28
REMARK                            x       y       z     vdW  Elec       q    Type
REMARK                         _______ _______ _______ _____ _____    ______ ____
ROOT
ATOM      1 CL   UNL     1      30.535 -23.211 -14.442  0.00  0.00    -0.082 Cl
ATOM      2  N   UNL     1      36.300 -23.380 -15.376  0.00  0.00    -0.265 N 
ATOM      3  C   UNL     1      35.174 -22.044 -16.737  0.00  0.00    -0.006 C 
ATOM      4  C   UNL     1      34.246 -22.644 -15.845  0.00  0.00    +0.012 C 
ATOM      5  C   UNL     1      36.426 -22.512 -16.427  0.00  0.00    +0.065 C 
ATOM      6  C   UNL     1      34.979 -23.479 -14.999  0.00  0.00    +0.055 C 
ATOM      7  C   UNL     1      32.850 -22.558 -15.671  0.00  0.00    +0.012 C 
ATOM      8  C   UNL     1      34.383 -24.236 -13.984  0.00  0.00    +0.016 C 
ATOM      9  C   UNL     1      32.241 -23.311 -14.661  0.00  0.00    +0.058 C 
ATOM     10  C   UNL     1      32.998 -24.137 -13.832  0.00  0.00    +0.013 C 
ENDROOT
BRANCH   2  12
ATOM     11  F   UNL     1      40.524 -26.041 -13.041  0.00  0.00    -0.204 F 
ATOM     12  C   UNL     1      37.371 -24.055 -14.784  0.00  0.00    +0.056 C 
ATOM     13  C   UNL     1      37.143 -24.857 -13.676  0.00  0.00    +0.017 C 
ATOM     14  C   UNL     1      38.644 -23.911 -15.315  0.00  0.00    +0.017 C 
ATOM     15  C   UNL     1      38.212 -25.530 -13.084  0.00  0.00    +0.031 C 
ATOM     16  C   UNL     1      39.714 -24.584 -14.723  0.00  0.00    +0.031 C 
ATOM     17  C   UNL     1      39.498 -25.394 -13.608  0.00  0.00    +0.140 C 
ENDBRANCH   2  12
BRANCH   3  19
ATOM     18  N   UNL     1      34.552 -20.290 -20.654  0.00  0.00    +0.388 N 
ATOM     19  C   UNL     1      34.849 -21.060 -17.839  0.00  0.00    +0.019 C 
ATOM     20  C   UNL     1      36.055 -20.765 -18.746  0.00  0.00    -0.018 C 
ATOM     21  C   UNL     1      33.650 -21.501 -18.693  0.00  0.00    -0.018 C 
ATOM     22  C   UNL     1      35.684 -19.787 -19.862  0.00  0.00    -0.077 C 
ATOM     23  C   UNL     1      33.366 -20.496 -19.813  0.00  0.00    -0.077 C 
ATOM     24  H   UNL     1      34.820 -21.192 -21.047  0.00  0.00    -0.080 HD
BRANCH  18  25
ATOM     25  C   UNL     1      34.248 -19.371 -21.751  0.00  0.00    -0.055 C 
BRANCH  25  26
ATOM     26  C   UNL     1      35.073 -18.100 -21.620  0.00  0.00    +0.077 C 
BRANCH  26  28
ATOM     27  O   UNL     1      34.413 -15.254 -20.912  0.00  0.00    -0.252 OA
ATOM     28  N   UNL     1      34.541 -17.047 -22.441  0.00  0.00    -0.243 N 
ATOM     29  N   UNL     1      33.791 -15.038 -23.159  0.00  0.00    -0.266 N 
ATOM     30  C   UNL     1      34.301 -17.216 -23.864  0.00  0.00    +0.085 C 
ATOM     31  C   UNL     1      33.689 -15.898 -24.310  0.00  0.00    +0.082 C 
ATOM     32  C   UNL     1      34.267 -15.727 -22.032  0.00  0.00    +0.311 C 
ATOM     33  H   UNL     1      33.556 -14.081 -23.162  0.00  0.00    +0.157 HD
ENDBRANCH  26  28
ENDBRANCH  25  26
ENDBRANCH  18  25
ENDBRANCH   3  19
TORSDOF 5
ENDMDL
MODEL 4
REMARK VINA RESULT:     -11.0      7.520     13.891
REMARK  Name = 60149
REMARK  5 active torsions:
REMARK  status: ('A' for Active; 'I' for Inactive)
REMARK    1  A    between atoms: N_2  and  C_12
REMARK    2  A    between atoms: C_3  and  C_19
REMARK    3  A    between atoms: N_18  and  C_25
REMARK    4  A    between atoms: C_25  and  C_26
REMARK    5  A    between atoms: C_26  and  N_28
REMARK                            x       y       z     vdW  Elec       q    Type
REMARK                         _______ _______ _______ _____ _____    ______ ____
ROOT
ATOM      1 CL   UNL     1      31.036 -10.147 -17.469  0.00  0.00    -0.082 Cl
ATOM      2  N   UNL     1      32.143  -8.867 -23.061  0.00  0.00    -0.265 N 
ATOM      3  C   UNL     1      32.265 -11.020 -22.556  0.00  0.00    -0.006 C 
ATOM      4  C   UNL     1      31.925 -10.311 -21.373  0.00  0.00    +0.012 C 
ATOM      5  C   UNL     1      32.393 -10.111 -23.576  0.00  0.00    +0.065 C 
ATOM      6  C   UNL     1      31.854  -8.959 -21.718  0.00  0.00    +0.055 C 
ATOM      7  C   UNL     1      31.669 -10.685 -20.039  0.00  0.00    +0.012 C 
ATOM      8  C   UNL     1      31.537  -7.960 -20.790  0.00  0.00    +0.016 C 
ATOM      9  C   UNL     1      31.352  -9.696 -19.102  0.00  0.00    +0.058 C 
ATOM     10  C   UNL     1      31.288  -8.355 -19.473  0.00  0.00    +0.013 C 
ENDROOT
BRANCH   2  12
ATOM     11  F   UNL     1      32.284  -4.216 -26.014  0.00  0.00    -0.204 F 
ATOM     12  C   UNL     1      32.179  -7.688 -23.810  0.00  0.00    +0.056 C 
ATOM     13  C   UNL     1      33.365  -6.974 -23.903  0.00  0.00    +0.017 C 
ATOM     14  C   UNL     1      31.027  -7.250 -24.447  0.00  0.00    +0.017 C 
ATOM     15  C   UNL     1      33.400  -5.796 -24.650  0.00  0.00    +0.031 C 
ATOM     16  C   UNL     1      31.063  -6.072 -25.194  0.00  0.00    +0.031 C 
ATOM     17  C   UNL     1      32.249  -5.345 -25.296  0.00  0.00    +0.140 C 
ENDBRANCH   2  12
BRANCH   3  19
ATOM     18  N   UNL     1      34.047 -14.908 -23.269  0.00  0.00    +0.388 N 
ATOM     19  C   UNL     1      32.457 -12.515 -22.680  0.00  0.00    +0.019 C 
ATOM     20  C   UNL     1      32.786 -12.955 -24.115  0.00  0.00    -0.018 C 
ATOM     21  C   UNL     1      33.520 -13.059 -21.712  0.00  0.00    -0.018 C 
ATOM     22  C   UNL     1      32.997 -14.468 -24.198  0.00  0.00    -0.077 C 
ATOM     23  C   UNL     1      33.705 -14.569 -21.882  0.00  0.00    -0.077 C 
ATOM     24  H   UNL     1      34.907 -14.416 -23.511  0.00  0.00    -0.080 HD
BRANCH  18  25
ATOM     25  C   UNL     1      34.276 -16.347 -23.402  0.00  0.00    -0.055 C 
BRANCH  25  26
ATOM     26  C   UNL     1      35.358 -16.802 -22.433  0.00  0.00    +0.077 C 
BRANCH  26  28
ATOM     27  O   UNL     1      36.772 -18.319 -20.258  0.00  0.00    -0.252 OA
ATOM     28  N   UNL     1      34.978 -18.014 -21.761  0.00  0.00    -0.243 N 
ATOM     29  N   UNL     1      34.949 -19.784 -20.354  0.00  0.00    -0.266 N 
ATOM     30  C   UNL     1      33.714 -18.682 -22.017  0.00  0.00    +0.085 C 
ATOM     31  C   UNL     1      33.758 -19.932 -21.152  0.00  0.00    +0.082 C 
ATOM     32  C   UNL     1      35.698 -18.660 -20.737  0.00  0.00    +0.311 C 
ATOM     33  H   UNL     1      35.206 -20.398 -19.628  0.00  0.00    +0.157 HD
ENDBRANCH  26  28
ENDBRANCH  25  26
ENDBRANCH  18  25
ENDBRANCH   3  19
TORSDOF 5
ENDMDL
