MODEL 1
REMARK VINA RESULT:     -11.2      0.000      0.000
REMARK  Name = 42615254
REMARK  7 active torsions:
REMARK  status: ('A' for Active; 'I' for Inactive)
REMARK    1  A    between atoms: C_3  and  C_10
REMARK    2  A    between atoms: C_7  and  C_20
REMARK    3  A    between atoms: N_9  and  C_12
REMARK    4  A    between atoms: C_12  and  C_14
REMARK    5  A    between atoms: C_20  and  N_21
REMARK    6  A    between atoms: C_20  and  C_25
REMARK    7  A    between atoms: C_25  and  C_26
REMARK                            x       y       z     vdW  Elec       q    Type
REMARK                         _______ _______ _______ _____ _____    ______ ____
ROOT
ATOM      1  O   UNL     1      35.888 -21.727 -18.350  0.00  0.00    -0.277 OA
ATOM      2  N   UNL     1      34.349 -22.279 -16.712  0.00  0.00    -0.275 N 
ATOM      3  C   UNL     1      33.375 -22.900 -17.601  0.00  0.00    +0.152 C 
ATOM      4  C   UNL     1      32.439 -23.667 -16.674  0.00  0.00    +0.031 C 
ATOM      5  C   UNL     1      33.933 -22.387 -15.316  0.00  0.00    +0.094 C 
ATOM      6  C   UNL     1      32.490 -22.866 -15.376  0.00  0.00    +0.024 C 
ATOM      7  C   UNL     1      35.571 -21.803 -17.162  0.00  0.00    +0.205 C 
ENDROOT
BRANCH   3  10
ATOM      8  O   UNL     1      31.570 -21.374 -17.943  0.00  0.00    -0.273 OA
ATOM      9  N   UNL     1      33.368 -21.344 -19.421  0.00  0.00    -0.299 N 
ATOM     10  C   UNL     1      32.663 -21.791 -18.318  0.00  0.00    +0.241 C 
ATOM     11  H   UNL     1      34.239 -21.758 -19.621  0.00  0.00    +0.150 HD
BRANCH   9  12
ATOM     12  C   UNL     1      32.889 -20.297 -20.295  0.00  0.00    +0.116 C 
BRANCH  12  14
ATOM     13 CL   UNL     1      34.529 -16.783 -23.771  0.00  0.00    -0.082 Cl
ATOM     14  C   UNL     1      34.013 -19.480 -20.863  0.00  0.00    -0.002 C 
ATOM     15  C   UNL     1      33.777 -18.612 -21.929  0.00  0.00    +0.009 C 
ATOM     16  C   UNL     1      35.295 -19.589 -20.323  0.00  0.00    -0.003 C 
ATOM     17  C   UNL     1      34.821 -17.853 -22.454  0.00  0.00    +0.057 C 
ATOM     18  C   UNL     1      36.340 -18.829 -20.849  0.00  0.00    +0.001 C 
ATOM     19  C   UNL     1      36.104 -17.961 -21.915  0.00  0.00    +0.011 C 
ENDBRANCH  12  14
ENDBRANCH   9  12
ENDBRANCH   3  10
BRANCH   7  20
ATOM     20  C   UNL     1      36.529 -21.354 -16.089  0.00  0.00    +0.013 C 
BRANCH  20  21
ATOM     21  N   UNL     1      37.060 -20.081 -16.556  0.00  0.00    +0.387 N 
ATOM     22  H   UNL     1      36.873 -19.359 -15.860  0.00  0.00    -0.089 HD
ATOM     23  H   UNL     1      36.613 -19.828 -17.437  0.00  0.00    -0.089 HD
ATOM     24  H   UNL     1      38.067 -20.163 -16.696  0.00  0.00    -0.089 HD
ENDBRANCH  20  21
BRANCH  20  25
ATOM     25  C   UNL     1      37.641 -22.378 -15.878  0.00  0.00    -0.013 C 
BRANCH  25  26
ATOM     26  C   UNL     1      37.299 -23.396 -14.792  0.00  0.00    -0.002 C 
ATOM     27  C   UNL     1      38.499 -24.309 -14.507  0.00  0.00    -0.000 C 
ATOM     28  C   UNL     1      36.837 -22.688 -13.512  0.00  0.00    -0.000 C 
ATOM     29  C   UNL     1      38.200 -25.301 -13.387  0.00  0.00    -0.000 C 
ATOM     30  C   UNL     1      36.540 -23.683 -12.393  0.00  0.00    -0.000 C 
ATOM     31  C   UNL     1      37.732 -24.594 -12.119  0.00  0.00    -0.000 C 
ENDBRANCH  25  26
ENDBRANCH  20  25
ENDBRANCH   7  20
TORSDOF 7
ENDMDL
MODEL 2
REMARK VINA RESULT:     -10.6      5.445      8.434
REMARK  Name = 42615254
REMARK  7 active torsions:
REMARK  status: ('A' for Active; 'I' for Inactive)
REMARK    1  A    between atoms: C_3  and  C_10
REMARK    2  A    between atoms: C_7  and  C_20
REMARK    3  A    between atoms: N_9  and  C_12
REMARK    4  A    between atoms: C_12  and  C_14
REMARK    5  A    between atoms: C_20  and  N_21
REMARK    6  A    between atoms: C_20  and  C_25
REMARK    7  A    between atoms: C_25  and  C_26
REMARK                            x       y       z     vdW  Elec       q    Type
REMARK                         _______ _______ _______ _____ _____    ______ ____
ROOT
ATOM      1  O   UNL     1      35.572 -17.292 -20.620  0.00  0.00    -0.277 OA
ATOM      2  N   UNL     1      34.413 -16.667 -22.524  0.00  0.00    -0.275 N 
ATOM      3  C   UNL     1      34.702 -15.241 -22.433  0.00  0.00    +0.152 C 
ATOM      4  C   UNL     1      34.335 -14.685 -23.804  0.00  0.00    +0.031 C 
ATOM      5  C   UNL     1      33.661 -16.976 -23.737  0.00  0.00    +0.094 C 
ATOM      6  C   UNL     1      33.233 -15.624 -24.285  0.00  0.00    +0.024 C 
ATOM      7  C   UNL     1      34.941 -17.591 -21.636  0.00  0.00    +0.205 C 
ENDROOT
BRANCH   3  10
ATOM      8  O   UNL     1      33.966 -14.998 -20.174  0.00  0.00    -0.273 OA
ATOM      9  N   UNL     1      32.866 -13.817 -21.852  0.00  0.00    -0.299 N 
ATOM     10  C   UNL     1      33.825 -14.682 -21.353  0.00  0.00    +0.241 C 
ATOM     11  H   UNL     1      32.853 -13.641 -22.820  0.00  0.00    +0.150 HD
BRANCH   9  12
ATOM     12  C   UNL     1      31.883 -13.161 -21.020  0.00  0.00    +0.116 C 
BRANCH  12  14
ATOM     13 CL   UNL     1      30.981  -8.311 -19.351  0.00  0.00    -0.082 Cl
ATOM     14  C   UNL     1      31.774 -11.696 -21.330  0.00  0.00    -0.002 C 
ATOM     15  C   UNL     1      31.465 -10.789 -20.315  0.00  0.00    +0.009 C 
ATOM     16  C   UNL     1      31.983 -11.242 -22.632  0.00  0.00    -0.003 C 
ATOM     17  C   UNL     1      31.365  -9.429 -20.603  0.00  0.00    +0.057 C 
ATOM     18  C   UNL     1      31.883  -9.880 -22.919  0.00  0.00    +0.001 C 
ATOM     19  C   UNL     1      31.574  -8.973 -21.905  0.00  0.00    +0.011 C 
ENDBRANCH  12  14
ENDBRANCH   9  12
ENDBRANCH   3  10
BRANCH   7  20
ATOM     20  C   UNL     1      34.687 -19.038 -21.975  0.00  0.00    +0.013 C 
BRANCH  20  21
ATOM     21  N   UNL     1      34.663 -19.092 -23.431  0.00  0.00    +0.387 N 
ATOM     22  H   UNL     1      35.584 -19.364 -23.777  0.00  0.00    -0.089 HD
ATOM     23  H   UNL     1      34.416 -18.175 -23.802  0.00  0.00    -0.089 HD
ATOM     24  H   UNL     1      33.971 -19.779 -23.733  0.00  0.00    -0.089 HD
ENDBRANCH  20  21
BRANCH  20  25
ATOM     25  C   UNL     1      33.370 -19.523 -21.377  0.00  0.00    -0.013 C 
BRANCH  25  26
ATOM     26  C   UNL     1      33.543 -20.096 -19.972  0.00  0.00    -0.002 C 
ATOM     27  C   UNL     1      32.368 -21.016 -19.613  0.00  0.00    -0.000 C 
ATOM     28  C   UNL     1      34.877 -20.845 -19.854  0.00  0.00    -0.000 C 
ATOM     29  C   UNL     1      32.545 -21.644 -18.234  0.00  0.00    -0.000 C 
ATOM     30  C   UNL     1      35.050 -21.475 -18.474  0.00  0.00    -0.000 C 
ATOM     31  C   UNL     1      33.876 -22.380 -18.117  0.00  0.00    -0.000 C 
ENDBRANCH  25  26
ENDBRANCH  20  25
ENDBRANCH   7  20
TORSDOF 7
ENDMDL
MODEL 3
REMARK VINA RESULT:     -10.4      7.753     10.814
REMARK  Name = 42615254
REMARK  7 active torsions:
REMARK  status: ('A' for Active; 'I' for Inactive)
REMARK    1  A    between atoms: C_3  and  C_10
REMARK    2  A    between atoms: C_7  and  C_20
REMARK    3  A    between atoms: N_9  and  C_12
REMARK    4  A    between atoms: C_12  and  C_14
REMARK    5  A    between atoms: C_20  and  N_21
REMARK    6  A    between atoms: C_20  and  C_25
REMARK    7  A    between atoms: C_25  and  C_26
REMARK                            x       y       z     vdW  Elec       q    Type
REMARK                         _______ _______ _______ _____ _____    ______ ____
ROOT
ATOM      1  O   UNL     1      32.691 -14.378 -24.672  0.00  0.00    -0.277 OA
ATOM      2  N   UNL     1      33.199 -14.029 -22.441  0.00  0.00    -0.275 N 
ATOM      3  C   UNL     1      32.107 -13.105 -22.164  0.00  0.00    +0.152 C 
ATOM      4  C   UNL     1      32.037 -13.034 -20.643  0.00  0.00    +0.031 C 
ATOM      5  C   UNL     1      33.964 -14.319 -21.231  0.00  0.00    +0.094 C 
ATOM      6  C   UNL     1      33.475 -13.305 -20.208  0.00  0.00    +0.024 C 
ATOM      7  C   UNL     1      33.356 -14.649 -23.670  0.00  0.00    +0.205 C 
ENDROOT
BRANCH   3  10
ATOM      8  O   UNL     1      33.541 -11.625 -23.371  0.00  0.00    -0.273 OA
ATOM      9  N   UNL     1      31.527 -10.811 -22.534  0.00  0.00    -0.299 N 
ATOM     10  C   UNL     1      32.484 -11.784 -22.766  0.00  0.00    +0.241 C 
ATOM     11  H   UNL     1      30.716 -11.061 -22.034  0.00  0.00    +0.150 HD
BRANCH   9  12
ATOM     12  C   UNL     1      31.660  -9.446 -22.990  0.00  0.00    +0.116 C 
BRANCH  12  14
ATOM     13 CL   UNL     1      31.873  -4.507 -21.352  0.00  0.00    -0.082 Cl
ATOM     14  C   UNL     1      31.617  -8.467 -21.852  0.00  0.00    -0.002 C 
ATOM     15  C   UNL     1      31.748  -7.101 -22.101  0.00  0.00    +0.009 C 
ATOM     16  C   UNL     1      31.442  -8.925 -20.546  0.00  0.00    -0.003 C 
ATOM     17  C   UNL     1      31.707  -6.193 -21.044  0.00  0.00    +0.057 C 
ATOM     18  C   UNL     1      31.401  -8.016 -19.489  0.00  0.00    +0.001 C 
ATOM     19  C   UNL     1      31.533  -6.649 -19.737  0.00  0.00    +0.011 C 
ENDBRANCH  12  14
ENDBRANCH   9  12
ENDBRANCH   3  10
BRANCH   7  20
ATOM     20  C   UNL     1      34.429 -15.707 -23.734  0.00  0.00    +0.013 C 
BRANCH  20  21
ATOM     21  N   UNL     1      34.983 -15.611 -25.077  0.00  0.00    +0.387 N 
ATOM     22  H   UNL     1      34.292 -15.935 -25.755  0.00  0.00    -0.089 HD
ATOM     23  H   UNL     1      35.820 -16.189 -25.142  0.00  0.00    -0.089 HD
ATOM     24  H   UNL     1      35.225 -14.640 -25.277  0.00  0.00    -0.089 HD
ENDBRANCH  20  21
BRANCH  20  25
ATOM     25  C   UNL     1      33.853 -17.094 -23.466  0.00  0.00    -0.013 C 
BRANCH  25  26
ATOM     26  C   UNL     1      34.350 -17.687 -22.148  0.00  0.00    -0.002 C 
ATOM     27  C   UNL     1      33.695 -19.050 -21.886  0.00  0.00    -0.000 C 
ATOM     28  C   UNL     1      35.879 -17.810 -22.153  0.00  0.00    -0.000 C 
ATOM     29  C   UNL     1      34.215 -19.688 -20.601  0.00  0.00    -0.000 C 
ATOM     30  C   UNL     1      36.397 -18.450 -20.867  0.00  0.00    -0.000 C 
ATOM     31  C   UNL     1      35.736 -19.800 -20.605  0.00  0.00    -0.000 C 
ENDBRANCH  25  26
ENDBRANCH  20  25
ENDBRANCH   7  20
TORSDOF 7
ENDMDL
MODEL 4
REMARK VINA RESULT:     -10.4      8.435     13.005
REMARK  Name = 42615254
REMARK  7 active torsions:
REMARK  status: ('A' for Active; 'I' for Inactive)
REMARK    1  A    between atoms: C_3  and  C_10
REMARK    2  A    between atoms: C_7  and  C_20
REMARK    3  A    between atoms: N_9  and  C_12
REMARK    4  A    between atoms: C_12  and  C_14
REMARK    5  A    between atoms: C_20  and  N_21
REMARK    6  A    between atoms: C_20  and  C_25
REMARK    7  A    between atoms: C_25  and  C_26
REMARK                            x       y       z     vdW  Elec       q    Type
REMARK                         _______ _______ _______ _____ _____    ______ ____
ROOT
ATOM      1  O   UNL     1      32.726 -10.226 -23.467  0.00  0.00    -0.277 OA
ATOM      2  N   UNL     1      32.404 -11.725 -21.734  0.00  0.00    -0.275 N 
ATOM      3  C   UNL     1      33.570 -12.553 -22.011  0.00  0.00    +0.152 C 
ATOM      4  C   UNL     1      33.755 -13.395 -20.754  0.00  0.00    +0.031 C 
ATOM      5  C   UNL     1      31.712 -12.176 -20.529  0.00  0.00    +0.094 C 
ATOM      6  C   UNL     1      32.338 -13.523 -20.200  0.00  0.00    +0.024 C 
ATOM      7  C   UNL     1      32.119 -10.575 -22.453  0.00  0.00    +0.205 C 
ENDROOT
BRANCH   3  10
ATOM      8  O   UNL     1      32.308 -13.121 -23.957  0.00  0.00    -0.273 OA
ATOM      9  N   UNL     1      34.070 -14.500 -23.314  0.00  0.00    -0.299 N 
ATOM     10  C   UNL     1      33.237 -13.400 -23.204  0.00  0.00    +0.241 C 
ATOM     11  H   UNL     1      34.783 -14.617 -22.646  0.00  0.00    +0.150 HD
BRANCH   9  12
ATOM     12  C   UNL     1      33.944 -15.485 -24.364  0.00  0.00    +0.116 C 
BRANCH  12  14
ATOM     13 CL   UNL     1      36.255 -18.661 -20.945  0.00  0.00    -0.082 Cl
ATOM     14  C   UNL     1      34.168 -16.880 -23.855  0.00  0.00    -0.002 C 
ATOM     15  C   UNL     1      35.009 -17.098 -22.763  0.00  0.00    +0.009 C 
ATOM     16  C   UNL     1      33.533 -17.957 -24.473  0.00  0.00    -0.003 C 
ATOM     17  C   UNL     1      35.215 -18.393 -22.290  0.00  0.00    +0.057 C 
ATOM     18  C   UNL     1      33.740 -19.253 -23.999  0.00  0.00    +0.001 C 
ATOM     19  C   UNL     1      34.581 -19.471 -22.908  0.00  0.00    +0.011 C 
ENDBRANCH  12  14
ENDBRANCH   9  12
ENDBRANCH   3  10
BRANCH   7  20
ATOM     20  C   UNL     1      30.979  -9.743 -21.925  0.00  0.00    +0.013 C 
BRANCH  20  21
ATOM     21  N   UNL     1      29.823 -10.629 -21.927  0.00  0.00    +0.387 N 
ATOM     22  H   UNL     1      30.073 -11.514 -22.368  0.00  0.00    -0.089 HD
ATOM     23  H   UNL     1      29.061 -10.194 -22.447  0.00  0.00    -0.089 HD
ATOM     24  H   UNL     1      29.524 -10.801 -20.967  0.00  0.00    -0.089 HD
ENDBRANCH  20  21
BRANCH  20  25
ATOM     25  C   UNL     1      30.741  -8.514 -22.798  0.00  0.00    -0.013 C 
BRANCH  25  26
ATOM     26  C   UNL     1      31.352  -7.247 -22.201  0.00  0.00    -0.002 C 
ATOM     27  C   UNL     1      30.460  -6.031 -22.483  0.00  0.00    -0.000 C 
ATOM     28  C   UNL     1      31.583  -7.416 -20.694  0.00  0.00    -0.000 C 
ATOM     29  C   UNL     1      31.023  -4.761 -21.851  0.00  0.00    -0.000 C 
ATOM     30  C   UNL     1      32.144  -6.143 -20.063  0.00  0.00    -0.000 C 
ATOM     31  C   UNL     1      31.260  -4.935 -20.355  0.00  0.00    -0.000 C 
ENDBRANCH  25  26
ENDBRANCH  20  25
ENDBRANCH   7  20
TORSDOF 7
ENDMDL
MODEL 5
REMARK VINA RESULT:     -10.4      1.959      2.779
REMARK  Name = 42615254
REMARK  7 active torsions:
REMARK  status: ('A' for Active; 'I' for Inactive)
REMARK    1  A    between atoms: C_3  and  C_10
REMARK    2  A    between atoms: C_7  and  C_20
REMARK    3  A    between atoms: N_9  and  C_12
REMARK    4  A    between atoms: C_12  and  C_14
REMARK    5  A    between atoms: C_20  and  N_21
REMARK    6  A    between atoms: C_20  and  C_25
REMARK    7  A    between atoms: C_25  and  C_26
REMARK                            x       y       z     vdW  Elec       q    Type
REMARK                         _______ _______ _______ _____ _____    ______ ____
ROOT
ATOM      1  O   UNL     1      33.773 -23.357 -16.451  0.00  0.00    -0.277 OA
ATOM      2  N   UNL     1      31.964 -23.125 -15.026  0.00  0.00    -0.275 N 
ATOM      3  C   UNL     1      30.943 -23.510 -15.991  0.00  0.00    +0.152 C 
ATOM      4  C   UNL     1      29.700 -23.782 -15.151  0.00  0.00    +0.031 C 
ATOM      5  C   UNL     1      31.382 -22.885 -13.709  0.00  0.00    +0.094 C 
ATOM      6  C   UNL     1      29.879 -22.863 -13.945  0.00  0.00    +0.024 C 
ATOM      7  C   UNL     1      33.318 -23.151 -15.325  0.00  0.00    +0.205 C 
ENDROOT
BRANCH   3  10
ATOM      8  O   UNL     1      29.738 -21.645 -16.870  0.00  0.00    -0.273 OA
ATOM      9  N   UNL     1      31.801 -22.194 -17.798  0.00  0.00    -0.299 N 
ATOM     10  C   UNL     1      30.746 -22.345 -16.915  0.00  0.00    +0.241 C 
ATOM     11  H   UNL     1      32.558 -22.820 -17.736  0.00  0.00    +0.150 HD
BRANCH   9  12
ATOM     12  C   UNL     1      31.846 -21.159 -18.806  0.00  0.00    +0.116 C 
BRANCH  12  14
ATOM     13 CL   UNL     1      35.076 -18.550 -21.950  0.00  0.00    -0.082 Cl
ATOM     14  C   UNL     1      33.252 -20.861 -19.242  0.00  0.00    -0.002 C 
ATOM     15  C   UNL     1      33.484 -19.950 -20.273  0.00  0.00    +0.009 C 
ATOM     16  C   UNL     1      34.324 -21.494 -18.615  0.00  0.00    -0.003 C 
ATOM     17  C   UNL     1      34.790 -19.673 -20.677  0.00  0.00    +0.057 C 
ATOM     18  C   UNL     1      35.631 -21.216 -19.019  0.00  0.00    +0.001 C 
ATOM     19  C   UNL     1      35.864 -20.305 -20.050  0.00  0.00    +0.011 C 
ENDBRANCH  12  14
ENDBRANCH   9  12
ENDBRANCH   3  10
BRANCH   7  20
ATOM     20  C   UNL     1      34.245 -22.894 -14.165  0.00  0.00    +0.013 C 
BRANCH  20  21
ATOM     21  N   UNL     1      35.226 -21.938 -14.661  0.00  0.00    +0.387 N 
ATOM     22  H   UNL     1      35.291 -21.151 -14.015  0.00  0.00    -0.089 HD
ATOM     23  H   UNL     1      34.938 -21.601 -15.579  0.00  0.00    -0.089 HD
ATOM     24  H   UNL     1      36.136 -22.392 -14.735  0.00  0.00    -0.089 HD
ENDBRANCH  20  21
BRANCH  20  25
ATOM     25  C   UNL     1      34.912 -24.183 -13.694  0.00  0.00    -0.013 C 
BRANCH  25  26
ATOM     26  C   UNL     1      36.436 -24.119 -13.787  0.00  0.00    -0.002 C 
ATOM     27  C   UNL     1      37.063 -24.109 -12.386  0.00  0.00    -0.000 C 
ATOM     28  C   UNL     1      36.977 -25.288 -14.619  0.00  0.00    -0.000 C 
ATOM     29  C   UNL     1      38.588 -24.100 -12.452  0.00  0.00    -0.000 C 
ATOM     30  C   UNL     1      38.502 -25.277 -14.682  0.00  0.00    -0.000 C 
ATOM     31  C   UNL     1      39.122 -25.259 -13.288  0.00  0.00    -0.000 C 
ENDBRANCH  25  26
ENDBRANCH  20  25
ENDBRANCH   7  20
TORSDOF 7
ENDMDL
MODEL 6
REMARK VINA RESULT:     -10.3      2.648      6.090
REMARK  Name = 42615254
REMARK  7 active torsions:
REMARK  status: ('A' for Active; 'I' for Inactive)
REMARK    1  A    between atoms: C_3  and  C_10
REMARK    2  A    between atoms: C_7  and  C_20
REMARK    3  A    between atoms: N_9  and  C_12
REMARK    4  A    between atoms: C_12  and  C_14
REMARK    5  A    between atoms: C_20  and  N_21
REMARK    6  A    between atoms: C_20  and  C_25
REMARK    7  A    between atoms: C_25  and  C_26
REMARK                            x       y       z     vdW  Elec       q    Type
REMARK                         _______ _______ _______ _____ _____    ______ ____
ROOT
ATOM      1  O   UNL     1      33.908 -22.148 -14.352  0.00  0.00    -0.277 OA
ATOM      2  N   UNL     1      35.422 -23.407 -13.136  0.00  0.00    -0.275 N 
ATOM      3  C   UNL     1      36.545 -22.488 -13.266  0.00  0.00    +0.152 C 
ATOM      4  C   UNL     1      37.550 -22.954 -12.220  0.00  0.00    +0.031 C 
ATOM      5  C   UNL     1      35.767 -24.543 -12.286  0.00  0.00    +0.094 C 
ATOM      6  C   UNL     1      37.274 -24.451 -12.104  0.00  0.00    +0.024 C 
ATOM      7  C   UNL     1      34.162 -23.119 -13.637  0.00  0.00    +0.205 C 
ENDROOT
BRANCH   3  10
ATOM      8  O   UNL     1      38.001 -23.411 -14.919  0.00  0.00    -0.273 OA
ATOM      9  N   UNL     1      36.435 -21.813 -15.562  0.00  0.00    -0.299 N 
ATOM     10  C   UNL     1      37.081 -22.641 -14.659  0.00  0.00    +0.241 C 
ATOM     11  H   UNL     1      35.708 -21.238 -15.233  0.00  0.00    +0.150 HD
BRANCH   9  12
ATOM     12  C   UNL     1      36.778 -21.753 -16.965  0.00  0.00    +0.116 C 
BRANCH  12  14
ATOM     13 CL   UNL     1      34.636 -19.591 -21.190  0.00  0.00    -0.082 Cl
ATOM     14  C   UNL     1      35.569 -21.551 -17.830  0.00  0.00    -0.002 C 
ATOM     15  C   UNL     1      35.654 -20.758 -18.975  0.00  0.00    +0.009 C 
ATOM     16  C   UNL     1      34.360 -22.157 -17.490  0.00  0.00    -0.003 C 
ATOM     17  C   UNL     1      34.531 -20.572 -19.779  0.00  0.00    +0.057 C 
ATOM     18  C   UNL     1      33.236 -21.970 -18.295  0.00  0.00    +0.001 C 
ATOM     19  C   UNL     1      33.320 -21.177 -19.440  0.00  0.00    +0.011 C 
ENDBRANCH  12  14
ENDBRANCH   9  12
ENDBRANCH   3  10
BRANCH   7  20
ATOM     20  C   UNL     1      33.075 -24.093 -13.263  0.00  0.00    +0.013 C 
BRANCH  20  21
ATOM     21  N   UNL     1      33.041 -25.066 -14.347  0.00  0.00    +0.387 N 
ATOM     22  H   UNL     1      33.772 -25.762 -14.202  0.00  0.00    -0.089 HD
ATOM     23  H   UNL     1      33.194 -24.591 -15.235  0.00  0.00    -0.089 HD
ATOM     24  H   UNL     1      32.131 -25.528 -14.360  0.00  0.00    -0.089 HD
ENDBRANCH  20  21
BRANCH  20  25
ATOM     25  C   UNL     1      31.731 -23.387 -13.105  0.00  0.00    -0.013 C 
BRANCH  25  26
ATOM     26  C   UNL     1      30.775 -23.688 -14.258  0.00  0.00    -0.002 C 
ATOM     27  C   UNL     1      29.526 -24.420 -13.750  0.00  0.00    -0.000 C 
ATOM     28  C   UNL     1      30.390 -22.397 -14.992  0.00  0.00    -0.000 C 
ATOM     29  C   UNL     1      28.530 -24.685 -14.876  0.00  0.00    -0.000 C 
ATOM     30  C   UNL     1      29.392 -22.664 -16.117  0.00  0.00    -0.000 C 
ATOM     31  C   UNL     1      28.156 -23.400 -15.609  0.00  0.00    -0.000 C 
ENDBRANCH  25  26
ENDBRANCH  20  25
ENDBRANCH   7  20
TORSDOF 7
ENDMDL
MODEL 7
REMARK VINA RESULT:     -10.3      3.101      7.675
REMARK  Name = 42615254
REMARK  7 active torsions:
REMARK  status: ('A' for Active; 'I' for Inactive)
REMARK    1  A    between atoms: C_3  and  C_10
REMARK    2  A    between atoms: C_7  and  C_20
REMARK    3  A    between atoms: N_9  and  C_12
REMARK    4  A    between atoms: C_12  and  C_14
REMARK    5  A    between atoms: C_20  and  N_21
REMARK    6  A    between atoms: C_20  and  C_25
REMARK    7  A    between atoms: C_25  and  C_26
REMARK                            x       y       z     vdW  Elec       q    Type
REMARK                         _______ _______ _______ _____ _____    ______ ____
ROOT
ATOM      1  O   UNL     1      32.986 -23.537 -17.336  0.00  0.00    -0.277 OA
ATOM      2  N   UNL     1      34.815 -22.384 -16.511  0.00  0.00    -0.275 N 
ATOM      3  C   UNL     1      35.318 -23.455 -15.662  0.00  0.00    +0.152 C 
ATOM      4  C   UNL     1      36.737 -23.031 -15.303  0.00  0.00    +0.031 C 
ATOM      5  C   UNL     1      35.707 -21.227 -16.484  0.00  0.00    +0.094 C 
ATOM      6  C   UNL     1      36.673 -21.506 -15.343  0.00  0.00    +0.024 C 
ATOM      7  C   UNL     1      33.717 -22.545 -17.341  0.00  0.00    +0.205 C 
ENDROOT
BRANCH   3  10
ATOM      8  O   UNL     1      34.741 -24.154 -13.453  0.00  0.00    -0.273 OA
ATOM      9  N   UNL     1      33.262 -22.794 -14.627  0.00  0.00    -0.299 N 
ATOM     10  C   UNL     1      34.432 -23.513 -14.453  0.00  0.00    +0.241 C 
ATOM     11  H   UNL     1      33.127 -22.317 -15.478  0.00  0.00    +0.150 HD
BRANCH   9  12
ATOM     12  C   UNL     1      32.229 -22.708 -13.620  0.00  0.00    +0.116 C 
BRANCH  12  14
ATOM     13 CL   UNL     1      27.873 -22.141 -16.416  0.00  0.00    -0.082 Cl
ATOM     14  C   UNL     1      30.928 -23.282 -14.100  0.00  0.00    -0.002 C 
ATOM     15  C   UNL     1      30.101 -22.533 -14.938  0.00  0.00    +0.009 C 
ATOM     16  C   UNL     1      30.547 -24.565 -13.710  0.00  0.00    -0.003 C 
ATOM     17  C   UNL     1      28.893 -23.067 -15.384  0.00  0.00    +0.057 C 
ATOM     18  C   UNL     1      29.338 -25.100 -14.157  0.00  0.00    +0.001 C 
ATOM     19  C   UNL     1      28.511 -24.351 -14.994  0.00  0.00    +0.011 C 
ENDBRANCH  12  14
ENDBRANCH   9  12
ENDBRANCH   3  10
BRANCH   7  20
ATOM     20  C   UNL     1      33.438 -21.399 -18.281  0.00  0.00    +0.013 C 
BRANCH  20  21
ATOM     21  N   UNL     1      32.038 -21.543 -18.658  0.00  0.00    +0.387 N 
ATOM     22  H   UNL     1      31.957 -21.531 -19.675  0.00  0.00    -0.089 HD
ATOM     23  H   UNL     1      31.499 -20.774 -18.263  0.00  0.00    -0.089 HD
ATOM     24  H   UNL     1      31.680 -22.429 -18.299  0.00  0.00    -0.089 HD
ENDBRANCH  20  21
BRANCH  20  25
ATOM     25  C   UNL     1      34.352 -21.451 -19.502  0.00  0.00    -0.013 C 
BRANCH  25  26
ATOM     26  C   UNL     1      34.658 -20.063 -20.061  0.00  0.00    -0.002 C 
ATOM     27  C   UNL     1      36.170 -19.877 -20.251  0.00  0.00    -0.000 C 
ATOM     28  C   UNL     1      33.911 -19.834 -21.381  0.00  0.00    -0.000 C 
ATOM     29  C   UNL     1      36.498 -18.516 -20.859  0.00  0.00    -0.000 C 
ATOM     30  C   UNL     1      34.243 -18.473 -21.989  0.00  0.00    -0.000 C 
ATOM     31  C   UNL     1      35.746 -18.288 -22.167  0.00  0.00    -0.000 C 
ENDBRANCH  25  26
ENDBRANCH  20  25
ENDBRANCH   7  20
TORSDOF 7
ENDMDL
MODEL 8
REMARK VINA RESULT:     -10.2      2.716      4.396
REMARK  Name = 42615254
REMARK  7 active torsions:
REMARK  status: ('A' for Active; 'I' for Inactive)
REMARK    1  A    between atoms: C_3  and  C_10
REMARK    2  A    between atoms: C_7  and  C_20
REMARK    3  A    between atoms: N_9  and  C_12
REMARK    4  A    between atoms: C_12  and  C_14
REMARK    5  A    between atoms: C_20  and  N_21
REMARK    6  A    between atoms: C_20  and  C_25
REMARK    7  A    between atoms: C_25  and  C_26
REMARK                            x       y       z     vdW  Elec       q    Type
REMARK                         _______ _______ _______ _____ _____    ______ ____
ROOT
ATOM      1  O   UNL     1      35.950 -22.627 -16.490  0.00  0.00    -0.277 OA
ATOM      2  N   UNL     1      34.016 -21.973 -17.582  0.00  0.00    -0.275 N 
ATOM      3  C   UNL     1      34.562 -22.023 -18.931  0.00  0.00    +0.152 C 
ATOM      4  C   UNL     1      33.342 -21.982 -19.844  0.00  0.00    +0.031 C 
ATOM      5  C   UNL     1      32.594 -21.642 -17.600  0.00  0.00    +0.094 C 
ATOM      6  C   UNL     1      32.315 -21.201 -19.029  0.00  0.00    +0.024 C 
ATOM      7  C   UNL     1      34.748 -22.354 -16.468  0.00  0.00    +0.205 C 
ENDROOT
BRANCH   3  10
ATOM      8  O   UNL     1      36.299 -20.515 -18.291  0.00  0.00    -0.273 OA
ATOM      9  N   UNL     1      35.099 -20.090 -20.240  0.00  0.00    -0.299 N 
ATOM     10  C   UNL     1      35.426 -20.809 -19.103  0.00  0.00    +0.241 C 
ATOM     11  H   UNL     1      34.377 -20.429 -20.817  0.00  0.00    +0.150 HD
BRANCH   9  12
ATOM     12  C   UNL     1      35.768 -18.867 -20.621  0.00  0.00    +0.116 C 
BRANCH  12  14
ATOM     13 CL   UNL     1      34.232 -14.447 -22.908  0.00  0.00    -0.082 Cl
ATOM     14  C   UNL     1      35.081 -18.187 -21.770  0.00  0.00    -0.002 C 
ATOM     15  C   UNL     1      34.987 -16.795 -21.802  0.00  0.00    +0.009 C 
ATOM     16  C   UNL     1      34.539 -18.947 -22.806  0.00  0.00    -0.003 C 
ATOM     17  C   UNL     1      34.351 -16.164 -22.870  0.00  0.00    +0.057 C 
ATOM     18  C   UNL     1      33.902 -18.315 -23.875  0.00  0.00    +0.001 C 
ATOM     19  C   UNL     1      33.808 -16.923 -23.907  0.00  0.00    +0.011 C 
ENDBRANCH  12  14
ENDBRANCH   9  12
ENDBRANCH   3  10
BRANCH   7  20
ATOM     20  C   UNL     1      33.979 -22.411 -15.172  0.00  0.00    +0.013 C 
BRANCH  20  21
ATOM     21  N   UNL     1      34.977 -22.235 -14.126  0.00  0.00    +0.387 N 
ATOM     22  H   UNL     1      35.806 -21.788 -14.518  0.00  0.00    -0.089 HD
ATOM     23  H   UNL     1      35.231 -23.144 -13.741  0.00  0.00    -0.089 HD
ATOM     24  H   UNL     1      34.593 -21.648 -13.385  0.00  0.00    -0.089 HD
ENDBRANCH  20  21
BRANCH  20  25
ATOM     25  C   UNL     1      33.244 -23.740 -15.024  0.00  0.00    -0.013 C 
BRANCH  25  26
ATOM     26  C   UNL     1      31.831 -23.566 -14.469  0.00  0.00    -0.002 C 
ATOM     27  C   UNL     1      30.801 -23.544 -15.606  0.00  0.00    -0.000 C 
ATOM     28  C   UNL     1      31.506 -24.675 -13.460  0.00  0.00    -0.000 C 
ATOM     29  C   UNL     1      29.376 -23.425 -15.073  0.00  0.00    -0.000 C 
ATOM     30  C   UNL     1      30.079 -24.555 -12.930  0.00  0.00    -0.000 C 
ATOM     31  C   UNL     1      29.059 -24.524 -14.064  0.00  0.00    -0.000 C 
ENDBRANCH  25  26
ENDBRANCH  20  25
ENDBRANCH   7  20
TORSDOF 7
ENDMDL
MODEL 9
REMARK VINA RESULT:     -10.2      8.994     13.954
REMARK  Name = 42615254
REMARK  7 active torsions:
REMARK  status: ('A' for Active; 'I' for Inactive)
REMARK    1  A    between atoms: C_3  and  C_10
REMARK    2  A    between atoms: C_7  and  C_20
REMARK    3  A    between atoms: N_9  and  C_12
REMARK    4  A    between atoms: C_12  and  C_14
REMARK    5  A    between atoms: C_20  and  N_21
REMARK    6  A    between atoms: C_20  and  C_25
REMARK    7  A    between atoms: C_25  and  C_26
REMARK                            x       y       z     vdW  Elec       q    Type
REMARK                         _______ _______ _______ _____ _____    ______ ____
ROOT
ATOM      1  O   UNL     1      30.549  -9.654 -20.347  0.00  0.00    -0.277 OA
ATOM      2  N   UNL     1      32.047 -10.033 -22.070  0.00  0.00    -0.275 N 
ATOM      3  C   UNL     1      31.570 -11.366 -22.414  0.00  0.00    +0.152 C 
ATOM      4  C   UNL     1      32.185 -11.657 -23.778  0.00  0.00    +0.031 C 
ATOM      5  C   UNL     1      33.102  -9.599 -22.982  0.00  0.00    +0.094 C 
ATOM      6  C   UNL     1      33.479 -10.847 -23.764  0.00  0.00    +0.024 C 
ATOM      7  C   UNL     1      31.439  -9.253 -21.100  0.00  0.00    +0.205 C 
ENDROOT
BRANCH   3  10
ATOM      8  O   UNL     1      31.584 -12.356 -20.241  0.00  0.00    -0.273 OA
ATOM      9  N   UNL     1      33.165 -13.046 -21.804  0.00  0.00    -0.299 N 
ATOM     10  C   UNL     1      32.084 -12.303 -21.361  0.00  0.00    +0.241 C 
ATOM     11  H   UNL     1      33.477 -12.914 -22.728  0.00  0.00    +0.150 HD
BRANCH   9  12
ATOM     12  C   UNL     1      33.858 -14.005 -20.974  0.00  0.00    +0.116 C 
BRANCH  12  14
ATOM     13 CL   UNL     1      35.344 -18.995 -20.853  0.00  0.00    -0.082 Cl
ATOM     14  C   UNL     1      34.167 -15.272 -21.719  0.00  0.00    -0.002 C 
ATOM     15  C   UNL     1      34.565 -16.413 -21.022  0.00  0.00    +0.009 C 
ATOM     16  C   UNL     1      34.053 -15.308 -23.109  0.00  0.00    -0.003 C 
ATOM     17  C   UNL     1      34.850 -17.589 -21.714  0.00  0.00    +0.057 C 
ATOM     18  C   UNL     1      34.339 -16.485 -23.801  0.00  0.00    +0.001 C 
ATOM     19  C   UNL     1      34.737 -17.626 -23.104  0.00  0.00    +0.011 C 
ENDBRANCH  12  14
ENDBRANCH   9  12
ENDBRANCH   3  10
BRANCH   7  20
ATOM     20  C   UNL     1      31.944  -7.836 -20.993  0.00  0.00    +0.013 C 
BRANCH  20  21
ATOM     21  N   UNL     1      32.061  -7.577 -19.564  0.00  0.00    +0.387 N 
ATOM     22  H   UNL     1      31.889  -8.439 -19.046  0.00  0.00    -0.089 HD
ATOM     23  H   UNL     1      31.378  -6.872 -19.289  0.00  0.00    -0.089 HD
ATOM     24  H   UNL     1      33.001  -7.239 -19.356  0.00  0.00    -0.089 HD
ENDBRANCH  20  21
BRANCH  20  25
ATOM     25  C   UNL     1      30.984  -6.856 -21.660  0.00  0.00    -0.013 C 
BRANCH  25  26
ATOM     26  C   UNL     1      31.637  -6.090 -22.809  0.00  0.00    -0.002 C 
ATOM     27  C   UNL     1      33.157  -6.007 -22.610  0.00  0.00    -0.000 C 
ATOM     28  C   UNL     1      31.299  -6.743 -24.156  0.00  0.00    -0.000 C 
ATOM     29  C   UNL     1      33.839  -5.292 -23.774  0.00  0.00    -0.000 C 
ATOM     30  C   UNL     1      31.984  -6.027 -25.317  0.00  0.00    -0.000 C 
ATOM     31  C   UNL     1      33.493  -5.938 -25.111  0.00  0.00    -0.000 C 
ENDBRANCH  25  26
ENDBRANCH  20  25
ENDBRANCH   7  20
TORSDOF 7
ENDMDL
