MODEL 1
REMARK VINA RESULT:     -13.2      0.000      0.000
REMARK  Name = 445770
REMARK  5 active torsions:
REMARK  status: ('A' for Active; 'I' for Inactive)
REMARK    1  A    between atoms: N_2  and  C_17
REMARK    2  A    between atoms: C_3  and  C_5
REMARK    3  A    between atoms: C_6  and  S_11
REMARK    4  A    between atoms: S_11  and  N_14
REMARK    5  A    between atoms: C_17  and  C_23
REMARK                            x       y       z     vdW  Elec       q    Type
REMARK                         _______ _______ _______ _____ _____    ______ ____
ROOT
ATOM      1  O   UNL     1      36.381 -18.437 -21.873  0.00  0.00    -0.270 OA
ATOM      2  N   UNL     1      34.203 -17.950 -22.501  0.00  0.00    -0.297 N 
ATOM      3  C   UNL     1      35.159 -18.623 -21.732  0.00  0.00    +0.246 C 
ATOM      4  H   UNL     1      33.251 -18.146 -22.338  0.00  0.00    +0.150 HD
ENDROOT
BRANCH   3   5
ATOM      5  C   UNL     1      34.666 -19.588 -20.762  0.00  0.00    +0.053 C 
ATOM      6  C   UNL     1      33.722 -21.439 -18.901  0.00  0.00    +0.122 C 
ATOM      7  C   UNL     1      33.294 -19.765 -20.590  0.00  0.00    +0.006 C 
ATOM      8  C   UNL     1      35.567 -20.336 -20.003  0.00  0.00    +0.006 C 
ATOM      9  C   UNL     1      32.822 -20.690 -19.659  0.00  0.00    +0.020 C 
ATOM     10  C   UNL     1      35.094 -21.262 -19.073  0.00  0.00    +0.020 C 
BRANCH   6  11
ATOM     11  S   UNL     1      33.131 -22.598 -17.737  0.00  0.00    +0.057 S 
ATOM     12  O   UNL     1      33.842 -22.398 -16.482  0.00  0.00    -0.153 OA
ATOM     13  O   UNL     1      33.122 -23.914 -18.362  0.00  0.00    -0.153 OA
BRANCH  11  14
ATOM     14  N   UNL     1      31.517 -22.071 -17.543  0.00  0.00    -0.203 NA
ATOM     15  H   UNL     1      31.099 -21.910 -18.459  0.00  0.00    +0.144 HD
ATOM     16  H   UNL     1      31.505 -21.203 -17.007  0.00  0.00    +0.144 HD
ENDBRANCH  11  14
ENDBRANCH   6  11
ENDBRANCH   3   5
BRANCH   2  17
ATOM     17  C   UNL     1      34.536 -16.981 -23.521  0.00  0.00    +0.121 C 
BRANCH  17  23
ATOM     18  F   UNL     1      33.332 -15.248 -25.398  0.00  0.00    -0.202 F 
ATOM     19  F   UNL     1      34.752 -15.915 -20.917  0.00  0.00    -0.202 F 
ATOM     20  F   UNL     1      33.871 -13.416 -20.273  0.00  0.00    -0.199 F 
ATOM     21  F   UNL     1      32.451 -12.753 -24.742  0.00  0.00    -0.199 F 
ATOM     22  F   UNL     1      32.720 -11.833 -22.180  0.00  0.00    -0.199 F 
ATOM     23  C   UNL     1      34.049 -15.602 -23.163  0.00  0.00    +0.057 A 
ATOM     24  C   UNL     1      33.466 -14.806 -24.140  0.00  0.00    +0.170 A 
ATOM     25  C   UNL     1      34.189 -15.146 -21.860  0.00  0.00    +0.170 A 
ATOM     26  C   UNL     1      33.739 -13.868 -21.527  0.00  0.00    +0.197 A 
ATOM     27  C   UNL     1      33.017 -13.529 -23.807  0.00  0.00    +0.197 A 
ATOM     28  C   UNL     1      33.152 -13.059 -22.501  0.00  0.00    +0.199 A 
ENDBRANCH  17  23
ENDBRANCH   2  17
TORSDOF 5
ENDMDL
MODEL 2
REMARK VINA RESULT:     -13.2      0.030      2.338
REMARK  Name = 445770
REMARK  5 active torsions:
REMARK  status: ('A' for Active; 'I' for Inactive)
REMARK    1  A    between atoms: N_2  and  C_17
REMARK    2  A    between atoms: C_3  and  C_5
REMARK    3  A    between atoms: C_6  and  S_11
REMARK    4  A    between atoms: S_11  and  N_14
REMARK    5  A    between atoms: C_17  and  C_23
REMARK                            x       y       z     vdW  Elec       q    Type
REMARK                         _______ _______ _______ _____ _____    ______ ____
ROOT
ATOM      1  O   UNL     1      36.387 -18.444 -21.882  0.00  0.00    -0.270 OA
ATOM      2  N   UNL     1      34.209 -17.930 -22.487  0.00  0.00    -0.297 N 
ATOM      3  C   UNL     1      35.165 -18.618 -21.731  0.00  0.00    +0.246 C 
ATOM      4  H   UNL     1      33.257 -18.117 -22.316  0.00  0.00    +0.150 HD
ENDROOT
BRANCH   3   5
ATOM      5  C   UNL     1      34.670 -19.582 -20.761  0.00  0.00    +0.053 C 
ATOM      6  C   UNL     1      33.721 -21.432 -18.901  0.00  0.00    +0.122 C 
ATOM      7  C   UNL     1      35.569 -20.328 -19.999  0.00  0.00    +0.006 C 
ATOM      8  C   UNL     1      33.297 -19.762 -20.595  0.00  0.00    +0.006 C 
ATOM      9  C   UNL     1      35.094 -21.253 -19.069  0.00  0.00    +0.020 C 
ATOM     10  C   UNL     1      32.823 -20.687 -19.664  0.00  0.00    +0.020 C 
BRANCH   6  11
ATOM     11  S   UNL     1      33.127 -22.589 -17.737  0.00  0.00    +0.057 S 
ATOM     12  O   UNL     1      33.832 -22.384 -16.479  0.00  0.00    -0.153 OA
ATOM     13  O   UNL     1      33.124 -23.906 -18.357  0.00  0.00    -0.153 OA
BRANCH  11  14
ATOM     14  N   UNL     1      31.512 -22.064 -17.552  0.00  0.00    -0.203 NA
ATOM     15  H   UNL     1      31.309 -21.338 -18.239  0.00  0.00    +0.144 HD
ATOM     16  H   UNL     1      31.382 -21.689 -16.612  0.00  0.00    +0.144 HD
ENDBRANCH  11  14
ENDBRANCH   6  11
ENDBRANCH   3   5
BRANCH   2  17
ATOM     17  C   UNL     1      34.543 -16.959 -23.505  0.00  0.00    +0.121 C 
BRANCH  17  23
ATOM     18  F   UNL     1      34.723 -15.882 -20.900  0.00  0.00    -0.202 F 
ATOM     19  F   UNL     1      33.340 -15.247 -25.398  0.00  0.00    -0.202 F 
ATOM     20  F   UNL     1      32.426 -12.759 -24.759  0.00  0.00    -0.199 F 
ATOM     21  F   UNL     1      33.809 -13.391 -20.274  0.00  0.00    -0.199 F 
ATOM     22  F   UNL     1      32.659 -11.826 -22.200  0.00  0.00    -0.199 F 
ATOM     23  C   UNL     1      34.039 -15.584 -23.154  0.00  0.00    +0.057 A 
ATOM     24  C   UNL     1      34.162 -15.121 -21.851  0.00  0.00    +0.170 A 
ATOM     25  C   UNL     1      33.458 -14.799 -24.140  0.00  0.00    +0.170 A 
ATOM     26  C   UNL     1      32.991 -13.525 -23.817  0.00  0.00    +0.197 A 
ATOM     27  C   UNL     1      33.694 -13.849 -21.528  0.00  0.00    +0.197 A 
ATOM     28  C   UNL     1      33.108 -13.049 -22.510  0.00  0.00    +0.199 A 
ENDBRANCH  17  23
ENDBRANCH   2  17
TORSDOF 5
ENDMDL
MODEL 3
REMARK VINA RESULT:     -12.1      6.657     10.570
REMARK  Name = 445770
REMARK  5 active torsions:
REMARK  status: ('A' for Active; 'I' for Inactive)
REMARK    1  A    between atoms: N_2  and  C_17
REMARK    2  A    between atoms: C_3  and  C_5
REMARK    3  A    between atoms: C_6  and  S_11
REMARK    4  A    between atoms: S_11  and  N_14
REMARK    5  A    between atoms: C_17  and  C_23
REMARK                            x       y       z     vdW  Elec       q    Type
REMARK                         _______ _______ _______ _____ _____    ______ ____
ROOT
ATOM      1  O   UNL     1      33.068 -23.616 -18.139  0.00  0.00    -0.270 OA
ATOM      2  N   UNL     1      34.308 -22.658 -16.432  0.00  0.00    -0.297 N 
ATOM      3  C   UNL     1      33.800 -22.696 -17.735  0.00  0.00    +0.246 C 
ATOM      4  H   UNL     1      34.883 -21.899 -16.177  0.00  0.00    +0.150 HD
ENDROOT
BRANCH   3   5
ATOM      5  C   UNL     1      34.188 -21.614 -18.627  0.00  0.00    +0.053 C 
ATOM      6  C   UNL     1      34.931 -19.540 -20.337  0.00  0.00    +0.122 C 
ATOM      7  C   UNL     1      35.530 -21.257 -18.747  0.00  0.00    +0.006 C 
ATOM      8  C   UNL     1      33.216 -20.935 -19.361  0.00  0.00    +0.006 C 
ATOM      9  C   UNL     1      35.902 -20.220 -19.602  0.00  0.00    +0.020 C 
ATOM     10  C   UNL     1      33.588 -19.897 -20.217  0.00  0.00    +0.020 C 
BRANCH   6  11
ATOM     11  S   UNL     1      35.396 -18.243 -21.409  0.00  0.00    +0.057 S 
ATOM     12  O   UNL     1      34.964 -16.981 -20.823  0.00  0.00    -0.153 OA
ATOM     13  O   UNL     1      34.980 -18.591 -22.760  0.00  0.00    -0.153 OA
BRANCH  11  14
ATOM     14  N   UNL     1      37.099 -18.338 -21.315  0.00  0.00    -0.203 NA
ATOM     15  H   UNL     1      37.444 -18.978 -22.029  0.00  0.00    +0.144 HD
ATOM     16  H   UNL     1      37.370 -18.679 -20.392  0.00  0.00    +0.144 HD
ENDBRANCH  11  14
ENDBRANCH   6  11
ENDBRANCH   3   5
BRANCH   2  17
ATOM     17  C   UNL     1      34.033 -23.671 -15.436  0.00  0.00    +0.121 C 
BRANCH  17  23
ATOM     18  F   UNL     1      35.242 -21.946 -13.555  0.00  0.00    -0.202 F 
ATOM     19  F   UNL     1      35.332 -26.156 -15.749  0.00  0.00    -0.202 F 
ATOM     20  F   UNL     1      37.572 -26.830 -14.348  0.00  0.00    -0.199 F 
ATOM     21  F   UNL     1      37.480 -22.633 -12.157  0.00  0.00    -0.199 F 
ATOM     22  F   UNL     1      38.649 -25.074 -12.551  0.00  0.00    -0.199 F 
ATOM     23  C   UNL     1      35.269 -24.045 -14.663  0.00  0.00    +0.057 A 
ATOM     24  C   UNL     1      35.807 -23.145 -13.754  0.00  0.00    +0.170 A 
ATOM     25  C   UNL     1      35.853 -25.287 -14.870  0.00  0.00    +0.170 A 
ATOM     26  C   UNL     1      36.999 -25.636 -14.155  0.00  0.00    +0.197 A 
ATOM     27  C   UNL     1      36.953 -23.493 -13.039  0.00  0.00    +0.197 A 
ATOM     28  C   UNL     1      37.549 -24.739 -13.238  0.00  0.00    +0.199 A 
ENDBRANCH  17  23
ENDBRANCH   2  17
TORSDOF 5
ENDMDL
MODEL 4
REMARK VINA RESULT:     -12.0      6.401     10.214
REMARK  Name = 445770
REMARK  5 active torsions:
REMARK  status: ('A' for Active; 'I' for Inactive)
REMARK    1  A    between atoms: N_2  and  C_17
REMARK    2  A    between atoms: C_3  and  C_5
REMARK    3  A    between atoms: C_6  and  S_11
REMARK    4  A    between atoms: S_11  and  N_14
REMARK    5  A    between atoms: C_17  and  C_23
REMARK                            x       y       z     vdW  Elec       q    Type
REMARK                         _______ _______ _______ _____ _____    ______ ____
ROOT
ATOM      1  O   UNL     1      33.067 -23.637 -18.367  0.00  0.00    -0.270 OA
ATOM      2  N   UNL     1      33.852 -22.477 -16.520  0.00  0.00    -0.297 N 
ATOM      3  C   UNL     1      33.609 -22.625 -17.891  0.00  0.00    +0.246 C 
ATOM      4  H   UNL     1      34.286 -21.649 -16.210  0.00  0.00    +0.150 HD
ENDROOT
BRANCH   3   5
ATOM      5  C   UNL     1      34.045 -21.542 -18.759  0.00  0.00    +0.053 C 
ATOM      6  C   UNL     1      34.882 -19.467 -20.424  0.00  0.00    +0.122 C 
ATOM      7  C   UNL     1      33.109 -20.827 -19.505  0.00  0.00    +0.006 C 
ATOM      8  C   UNL     1      35.400 -21.221 -18.845  0.00  0.00    +0.006 C 
ATOM      9  C   UNL     1      33.528 -19.789 -20.338  0.00  0.00    +0.020 C 
ATOM     10  C   UNL     1      35.818 -20.182 -19.677  0.00  0.00    +0.020 C 
BRANCH   6  11
ATOM     11  S   UNL     1      35.406 -18.167 -21.465  0.00  0.00    +0.057 S 
ATOM     12  O   UNL     1      34.979 -16.904 -20.879  0.00  0.00    -0.153 OA
ATOM     13  O   UNL     1      35.030 -18.493 -22.833  0.00  0.00    -0.153 OA
BRANCH  11  14
ATOM     14  N   UNL     1      37.104 -18.294 -21.315  0.00  0.00    -0.203 NA
ATOM     15  H   UNL     1      37.347 -18.469 -20.341  0.00  0.00    +0.144 HD
ATOM     16  H   UNL     1      37.538 -17.424 -21.623  0.00  0.00    +0.144 HD
ENDBRANCH  11  14
ENDBRANCH   6  11
ENDBRANCH   3   5
BRANCH   2  17
ATOM     17  C   UNL     1      33.500 -23.474 -15.534  0.00  0.00    +0.121 C 
BRANCH  17  23
ATOM     18  F   UNL     1      36.252 -23.100 -16.043  0.00  0.00    -0.202 F 
ATOM     19  F   UNL     1      32.881 -24.104 -12.854  0.00  0.00    -0.202 F 
ATOM     20  F   UNL     1      34.789 -24.334 -10.920  0.00  0.00    -0.199 F 
ATOM     21  F   UNL     1      38.151 -23.329 -14.100  0.00  0.00    -0.199 F 
ATOM     22  F   UNL     1      37.423 -23.946 -11.537  0.00  0.00    -0.199 F 
ATOM     23  C   UNL     1      34.551 -23.600 -14.464  0.00  0.00    +0.057 A 
ATOM     24  C   UNL     1      35.886 -23.402 -14.790  0.00  0.00    +0.170 A 
ATOM     25  C   UNL     1      34.171 -23.913 -13.167  0.00  0.00    +0.170 A 
ATOM     26  C   UNL     1      35.144 -24.030 -12.175  0.00  0.00    +0.197 A 
ATOM     27  C   UNL     1      36.859 -23.520 -13.798  0.00  0.00    +0.197 A 
ATOM     28  C   UNL     1      36.489 -23.833 -12.490  0.00  0.00    +0.199 A 
ENDBRANCH  17  23
ENDBRANCH   2  17
TORSDOF 5
ENDMDL
MODEL 5
REMARK VINA RESULT:     -12.0      6.402     10.312
REMARK  Name = 445770
REMARK  5 active torsions:
REMARK  status: ('A' for Active; 'I' for Inactive)
REMARK    1  A    between atoms: N_2  and  C_17
REMARK    2  A    between atoms: C_3  and  C_5
REMARK    3  A    between atoms: C_6  and  S_11
REMARK    4  A    between atoms: S_11  and  N_14
REMARK    5  A    between atoms: C_17  and  C_23
REMARK                            x       y       z     vdW  Elec       q    Type
REMARK                         _______ _______ _______ _____ _____    ______ ____
ROOT
ATOM      1  O   UNL     1      33.067 -23.637 -18.371  0.00  0.00    -0.270 OA
ATOM      2  N   UNL     1      33.853 -22.480 -16.522  0.00  0.00    -0.297 N 
ATOM      3  C   UNL     1      33.609 -22.625 -17.893  0.00  0.00    +0.246 C 
ATOM      4  H   UNL     1      34.287 -21.652 -16.211  0.00  0.00    +0.150 HD
ENDROOT
BRANCH   3   5
ATOM      5  C   UNL     1      34.045 -21.541 -18.759  0.00  0.00    +0.053 C 
ATOM      6  C   UNL     1      34.883 -19.463 -20.421  0.00  0.00    +0.122 C 
ATOM      7  C   UNL     1      33.110 -20.828 -19.508  0.00  0.00    +0.006 C 
ATOM      8  C   UNL     1      35.400 -21.217 -18.841  0.00  0.00    +0.006 C 
ATOM      9  C   UNL     1      33.529 -19.789 -20.339  0.00  0.00    +0.020 C 
ATOM     10  C   UNL     1      35.818 -20.177 -19.672  0.00  0.00    +0.020 C 
BRANCH   6  11
ATOM     11  S   UNL     1      35.407 -18.162 -21.460  0.00  0.00    +0.057 S 
ATOM     12  O   UNL     1      34.980 -16.900 -20.872  0.00  0.00    -0.153 OA
ATOM     13  O   UNL     1      35.030 -18.486 -22.828  0.00  0.00    -0.153 OA
BRANCH  11  14
ATOM     14  N   UNL     1      37.104 -18.290 -21.311  0.00  0.00    -0.203 NA
ATOM     15  H   UNL     1      37.538 -17.412 -21.596  0.00  0.00    +0.144 HD
ATOM     16  H   UNL     1      37.442 -19.046 -21.907  0.00  0.00    +0.144 HD
ENDBRANCH  11  14
ENDBRANCH   6  11
ENDBRANCH   3   5
BRANCH   2  17
ATOM     17  C   UNL     1      33.500 -23.479 -15.537  0.00  0.00    +0.121 C 
BRANCH  17  23
ATOM     18  F   UNL     1      32.876 -24.101 -12.854  0.00  0.00    -0.202 F 
ATOM     19  F   UNL     1      36.251 -23.102 -16.041  0.00  0.00    -0.202 F 
ATOM     20  F   UNL     1      38.145 -23.321 -14.093  0.00  0.00    -0.199 F 
ATOM     21  F   UNL     1      34.780 -24.322 -10.916  0.00  0.00    -0.199 F 
ATOM     22  F   UNL     1      37.416 -23.931 -11.530  0.00  0.00    -0.199 F 
ATOM     23  C   UNL     1      34.548 -23.600 -14.464  0.00  0.00    +0.057 A 
ATOM     24  C   UNL     1      34.165 -23.910 -13.165  0.00  0.00    +0.170 A 
ATOM     25  C   UNL     1      35.883 -23.401 -14.787  0.00  0.00    +0.170 A 
ATOM     26  C   UNL     1      36.855 -23.513 -13.793  0.00  0.00    +0.197 A 
ATOM     27  C   UNL     1      35.137 -24.022 -12.172  0.00  0.00    +0.197 A 
ATOM     28  C   UNL     1      36.482 -23.824 -12.484  0.00  0.00    +0.199 A 
ENDBRANCH  17  23
ENDBRANCH   2  17
TORSDOF 5
ENDMDL
MODEL 6
REMARK VINA RESULT:     -11.6      4.411      6.620
REMARK  Name = 445770
REMARK  5 active torsions:
REMARK  status: ('A' for Active; 'I' for Inactive)
REMARK    1  A    between atoms: N_2  and  C_17
REMARK    2  A    between atoms: C_3  and  C_5
REMARK    3  A    between atoms: C_6  and  S_11
REMARK    4  A    between atoms: S_11  and  N_14
REMARK    5  A    between atoms: C_17  and  C_23
REMARK                            x       y       z     vdW  Elec       q    Type
REMARK                         _______ _______ _______ _____ _____    ______ ____
ROOT
ATOM      1  O   UNL     1      32.694 -12.680 -25.193  0.00  0.00    -0.270 OA
ATOM      2  N   UNL     1      32.675 -11.692 -23.097  0.00  0.00    -0.297 N 
ATOM      3  C   UNL     1      32.932 -12.751 -23.975  0.00  0.00    +0.246 C 
ATOM      4  H   UNL     1      32.887 -11.815 -22.142  0.00  0.00    +0.150 HD
ENDROOT
BRANCH   3   5
ATOM      5  C   UNL     1      33.472 -13.971 -23.397  0.00  0.00    +0.053 C 
ATOM      6  C   UNL     1      34.508 -16.312 -22.289  0.00  0.00    +0.122 C 
ATOM      7  C   UNL     1      33.742 -15.069 -24.214  0.00  0.00    +0.006 C 
ATOM      8  C   UNL     1      33.718 -14.043 -22.026  0.00  0.00    +0.006 C 
ATOM      9  C   UNL     1      34.260 -16.239 -23.659  0.00  0.00    +0.020 C 
ATOM     10  C   UNL     1      34.237 -15.214 -21.472  0.00  0.00    +0.020 C 
BRANCH   6  11
ATOM     11  S   UNL     1      35.157 -17.776 -21.595  0.00  0.00    +0.057 S 
ATOM     12  O   UNL     1      34.280 -18.884 -21.947  0.00  0.00    -0.153 OA
ATOM     13  O   UNL     1      35.475 -17.522 -20.197  0.00  0.00    -0.153 OA
BRANCH  11  14
ATOM     14  N   UNL     1      36.616 -17.932 -22.471  0.00  0.00    -0.203 NA
ATOM     15  H   UNL     1      37.406 -17.889 -21.827  0.00  0.00    +0.144 HD
ATOM     16  H   UNL     1      36.688 -17.174 -23.149  0.00  0.00    +0.144 HD
ENDBRANCH  11  14
ENDBRANCH   6  11
ENDBRANCH   3   5
BRANCH   2  17
ATOM     17  C   UNL     1      32.117 -10.424 -23.514  0.00  0.00    +0.121 C 
BRANCH  17  23
ATOM     18  F   UNL     1      33.213  -7.821 -23.479  0.00  0.00    -0.202 F 
ATOM     19  F   UNL     1      30.665 -11.113 -21.195  0.00  0.00    -0.202 F 
ATOM     20  F   UNL     1      30.350  -9.403 -19.095  0.00  0.00    -0.199 F 
ATOM     21  F   UNL     1      32.888  -6.118 -21.375  0.00  0.00    -0.199 F 
ATOM     22  F   UNL     1      31.458  -6.906 -19.180  0.00  0.00    -0.199 F 
ATOM     23  C   UNL     1      31.941  -9.481 -22.354  0.00  0.00    +0.057 A 
ATOM     24  C   UNL     1      32.509  -8.215 -22.408  0.00  0.00    +0.170 A 
ATOM     25  C   UNL     1      31.213  -9.891 -21.246  0.00  0.00    +0.170 A 
ATOM     26  C   UNL     1      31.049  -9.018 -20.170  0.00  0.00    +0.197 A 
ATOM     27  C   UNL     1      32.346  -7.343 -21.333  0.00  0.00    +0.197 A 
ATOM     28  C   UNL     1      31.615  -7.743 -20.213  0.00  0.00    +0.199 A 
ENDBRANCH  17  23
ENDBRANCH   2  17
TORSDOF 5
ENDMDL
MODEL 7
REMARK VINA RESULT:     -11.6      4.388      6.746
REMARK  Name = 445770
REMARK  5 active torsions:
REMARK  status: ('A' for Active; 'I' for Inactive)
REMARK    1  A    between atoms: N_2  and  C_17
REMARK    2  A    between atoms: C_3  and  C_5
REMARK    3  A    between atoms: C_6  and  S_11
REMARK    4  A    between atoms: S_11  and  N_14
REMARK    5  A    between atoms: C_17  and  C_23
REMARK                            x       y       z     vdW  Elec       q    Type
REMARK                         _______ _______ _______ _____ _____    ______ ____
ROOT
ATOM      1  O   UNL     1      32.694 -12.686 -25.173  0.00  0.00    -0.270 OA
ATOM      2  N   UNL     1      32.710 -11.682 -23.084  0.00  0.00    -0.297 N 
ATOM      3  C   UNL     1      32.945 -12.750 -23.957  0.00  0.00    +0.246 C 
ATOM      4  H   UNL     1      32.932 -11.801 -22.131  0.00  0.00    +0.150 HD
ENDROOT
BRANCH   3   5
ATOM      5  C   UNL     1      33.479 -13.972 -23.376  0.00  0.00    +0.053 C 
ATOM      6  C   UNL     1      34.502 -16.316 -22.263  0.00  0.00    +0.122 C 
ATOM      7  C   UNL     1      33.752 -15.070 -24.192  0.00  0.00    +0.006 C 
ATOM      8  C   UNL     1      33.716 -14.046 -22.004  0.00  0.00    +0.006 C 
ATOM      9  C   UNL     1      34.264 -16.242 -23.635  0.00  0.00    +0.020 C 
ATOM     10  C   UNL     1      34.229 -15.218 -21.447  0.00  0.00    +0.020 C 
BRANCH   6  11
ATOM     11  S   UNL     1      35.144 -17.782 -21.566  0.00  0.00    +0.057 S 
ATOM     12  O   UNL     1      34.231 -18.876 -21.867  0.00  0.00    -0.153 OA
ATOM     13  O   UNL     1      35.516 -17.511 -20.184  0.00  0.00    -0.153 OA
BRANCH  11  14
ATOM     14  N   UNL     1      36.567 -17.986 -22.489  0.00  0.00    -0.203 NA
ATOM     15  H   UNL     1      36.768 -18.981 -22.590  0.00  0.00    +0.144 HD
ATOM     16  H   UNL     1      37.347 -17.528 -22.017  0.00  0.00    +0.144 HD
ENDBRANCH  11  14
ENDBRANCH   6  11
ENDBRANCH   3   5
BRANCH   2  17
ATOM     17  C   UNL     1      32.161 -10.412 -23.504  0.00  0.00    +0.121 C 
BRANCH  17  23
ATOM     18  F   UNL     1      30.735 -11.141 -21.178  0.00  0.00    -0.202 F 
ATOM     19  F   UNL     1      33.185  -7.782 -23.471  0.00  0.00    -0.202 F 
ATOM     20  F   UNL     1      32.821  -6.089 -21.366  0.00  0.00    -0.199 F 
ATOM     21  F   UNL     1      30.381  -9.441 -19.077  0.00  0.00    -0.199 F 
ATOM     22  F   UNL     1      31.422  -6.913 -19.167  0.00  0.00    -0.199 F 
ATOM     23  C   UNL     1      31.963  -9.476 -22.342  0.00  0.00    +0.057 A 
ATOM     24  C   UNL     1      31.250  -9.905 -21.230  0.00  0.00    +0.170 A 
ATOM     25  C   UNL     1      32.496  -8.196 -22.398  0.00  0.00    +0.170 A 
ATOM     26  C   UNL     1      32.313  -7.327 -21.322  0.00  0.00    +0.197 A 
ATOM     27  C   UNL     1      31.066  -9.037 -20.155  0.00  0.00    +0.197 A 
ATOM     28  C   UNL     1      31.597  -7.747 -20.200  0.00  0.00    +0.199 A 
ENDBRANCH  17  23
ENDBRANCH   2  17
TORSDOF 5
ENDMDL
MODEL 8
REMARK VINA RESULT:     -11.6      5.937      9.445
REMARK  Name = 445770
REMARK  5 active torsions:
REMARK  status: ('A' for Active; 'I' for Inactive)
REMARK    1  A    between atoms: N_2  and  C_17
REMARK    2  A    between atoms: C_3  and  C_5
REMARK    3  A    between atoms: C_6  and  S_11
REMARK    4  A    between atoms: S_11  and  N_14
REMARK    5  A    between atoms: C_17  and  C_23
REMARK                            x       y       z     vdW  Elec       q    Type
REMARK                         _______ _______ _______ _____ _____    ______ ____
ROOT
ATOM      1  O   UNL     1      33.247 -23.784 -18.587  0.00  0.00    -0.270 OA
ATOM      2  N   UNL     1      33.251 -22.410 -16.720  0.00  0.00    -0.297 N 
ATOM      3  C   UNL     1      33.442 -22.664 -18.082  0.00  0.00    +0.246 C 
ATOM      4  H   UNL     1      33.425 -21.499 -16.386  0.00  0.00    +0.150 HD
ENDROOT
BRANCH   3   5
ATOM      5  C   UNL     1      33.912 -21.557 -18.901  0.00  0.00    +0.053 C 
ATOM      6  C   UNL     1      34.814 -19.435 -20.470  0.00  0.00    +0.122 C 
ATOM      7  C   UNL     1      35.272 -21.248 -18.941  0.00  0.00    +0.006 C 
ATOM      8  C   UNL     1      33.003 -20.805 -19.645  0.00  0.00    +0.006 C 
ATOM      9  C   UNL     1      35.722 -20.187 -19.725  0.00  0.00    +0.020 C 
ATOM     10  C   UNL     1      33.454 -19.744 -20.431  0.00  0.00    +0.020 C 
BRANCH   6  11
ATOM     11  S   UNL     1      35.378 -18.107 -21.454  0.00  0.00    +0.057 S 
ATOM     12  O   UNL     1      34.974 -16.859 -20.823  0.00  0.00    -0.153 OA
ATOM     13  O   UNL     1      35.009 -18.370 -22.837  0.00  0.00    -0.153 OA
BRANCH  11  14
ATOM     14  N   UNL     1      37.071 -18.280 -21.293  0.00  0.00    -0.203 NA
ATOM     15  H   UNL     1      37.395 -17.728 -20.499  0.00  0.00    +0.144 HD
ATOM     16  H   UNL     1      37.528 -17.952 -22.145  0.00  0.00    +0.144 HD
ENDBRANCH  11  14
ENDBRANCH   6  11
ENDBRANCH   3   5
BRANCH   2  17
ATOM     17  C   UNL     1      32.810 -23.411 -15.774  0.00  0.00    +0.121 C 
BRANCH  17  23
ATOM     18  F   UNL     1      31.113 -21.680 -17.223  0.00  0.00    -0.202 F 
ATOM     19  F   UNL     1      31.482 -25.057 -13.906  0.00  0.00    -0.202 F 
ATOM     20  F   UNL     1      28.782 -24.976 -13.533  0.00  0.00    -0.199 F 
ATOM     21  F   UNL     1      28.414 -21.611 -16.844  0.00  0.00    -0.199 F 
ATOM     22  F   UNL     1      27.245 -23.257 -15.000  0.00  0.00    -0.199 F 
ATOM     23  C   UNL     1      31.320 -23.369 -15.568  0.00  0.00    +0.057 A 
ATOM     24  C   UNL     1      30.549 -22.491 -16.318  0.00  0.00    +0.170 A 
ATOM     25  C   UNL     1      30.737 -24.210 -14.630  0.00  0.00    +0.170 A 
ATOM     26  C   UNL     1      29.356 -24.172 -14.437  0.00  0.00    +0.197 A 
ATOM     27  C   UNL     1      29.168 -22.453 -16.125  0.00  0.00    +0.197 A 
ATOM     28  C   UNL     1      28.571 -23.293 -15.185  0.00  0.00    +0.199 A 
ENDBRANCH  17  23
ENDBRANCH   2  17
TORSDOF 5
ENDMDL
MODEL 9
REMARK VINA RESULT:     -11.3      5.920      9.641
REMARK  Name = 445770
REMARK  5 active torsions:
REMARK  status: ('A' for Active; 'I' for Inactive)
REMARK    1  A    between atoms: N_2  and  C_17
REMARK    2  A    between atoms: C_3  and  C_5
REMARK    3  A    between atoms: C_6  and  S_11
REMARK    4  A    between atoms: S_11  and  N_14
REMARK    5  A    between atoms: C_17  and  C_23
REMARK                            x       y       z     vdW  Elec       q    Type
REMARK                         _______ _______ _______ _____ _____    ______ ____
ROOT
ATOM      1  O   UNL     1      33.260 -23.813 -18.495  0.00  0.00    -0.270 OA
ATOM      2  N   UNL     1      33.220 -22.350 -16.697  0.00  0.00    -0.297 N 
ATOM      3  C   UNL     1      33.423 -22.665 -18.045  0.00  0.00    +0.246 C 
ATOM      4  H   UNL     1      33.369 -21.419 -16.408  0.00  0.00    +0.150 HD
ENDROOT
BRANCH   3   5
ATOM      5  C   UNL     1      33.867 -21.587 -18.916  0.00  0.00    +0.053 C 
ATOM      6  C   UNL     1      34.717 -19.521 -20.586  0.00  0.00    +0.122 C 
ATOM      7  C   UNL     1      35.227 -21.302 -19.035  0.00  0.00    +0.006 C 
ATOM      8  C   UNL     1      32.931 -20.839 -19.631  0.00  0.00    +0.006 C 
ATOM      9  C   UNL     1      35.651 -20.269 -19.870  0.00  0.00    +0.020 C 
ATOM     10  C   UNL     1      33.357 -19.806 -20.467  0.00  0.00    +0.020 C 
BRANCH   6  11
ATOM     11  S   UNL     1      35.249 -18.228 -21.632  0.00  0.00    +0.057 S 
ATOM     12  O   UNL     1      34.390 -18.201 -22.807  0.00  0.00    -0.153 OA
ATOM     13  O   UNL     1      36.692 -18.332 -21.794  0.00  0.00    -0.153 OA
BRANCH  11  14
ATOM     14  N   UNL     1      34.900 -16.863 -20.665  0.00  0.00    -0.203 NA
ATOM     15  H   UNL     1      34.929 -17.127 -19.681  0.00  0.00    +0.144 HD
ATOM     16  H   UNL     1      33.971 -16.511 -20.896  0.00  0.00    +0.144 HD
ENDBRANCH  11  14
ENDBRANCH   6  11
ENDBRANCH   3   5
BRANCH   2  17
ATOM     17  C   UNL     1      32.803 -23.315 -15.704  0.00  0.00    +0.121 C 
BRANCH  17  23
ATOM     18  F   UNL     1      31.491 -25.025 -13.880  0.00  0.00    -0.202 F 
ATOM     19  F   UNL     1      31.081 -21.638 -17.181  0.00  0.00    -0.202 F 
ATOM     20  F   UNL     1      28.372 -21.672 -16.870  0.00  0.00    -0.199 F 
ATOM     21  F   UNL     1      28.782 -25.048 -13.574  0.00  0.00    -0.199 F 
ATOM     22  F   UNL     1      27.219 -23.373 -15.068  0.00  0.00    -0.199 F 
ATOM     23  C   UNL     1      31.308 -23.331 -15.533  0.00  0.00    +0.057 A 
ATOM     24  C   UNL     1      30.733 -24.200 -14.615  0.00  0.00    +0.170 A 
ATOM     25  C   UNL     1      30.524 -22.476 -16.295  0.00  0.00    +0.170 A 
ATOM     26  C   UNL     1      29.138 -22.490 -16.138  0.00  0.00    +0.197 A 
ATOM     27  C   UNL     1      29.348 -24.215 -14.458  0.00  0.00    +0.197 A 
ATOM     28  C   UNL     1      28.549 -23.360 -15.219  0.00  0.00    +0.199 A 
ENDBRANCH  17  23
ENDBRANCH   2  17
TORSDOF 5
ENDMDL
