MODEL 1
REMARK VINA RESULT:     -10.5      0.000      0.000
REMARK  Name = 15604015
REMARK  4 active torsions:
REMARK  status: ('A' for Active; 'I' for Inactive)
REMARK    1  A    between atoms: C_1  and  C_12
REMARK    2  A    between atoms: C_2  and  C_20
REMARK    3  A    between atoms: N_19  and  C_22
REMARK    4  A    between atoms: C_22  and  C_24
REMARK                            x       y       z     vdW  Elec       q    Type
REMARK                         _______ _______ _______ _____ _____    ______ ____
ROOT
ATOM      1  C   UNL     1      33.040 -23.802 -13.966  0.00  0.00    +0.019 C 
ATOM      2  C   UNL     1      31.174 -22.852 -15.433  0.00  0.00    +0.069 C 
ATOM      3  C   UNL     1      30.693 -24.832 -13.960  0.00  0.00    +0.001 C 
ATOM      4  C   UNL     1      31.056 -22.570 -12.929  0.00  0.00    +0.001 C 
ATOM      5  C   UNL     1      32.685 -23.143 -15.331  0.00  0.00    +0.013 C 
ATOM      6  C   UNL     1      32.202 -25.112 -13.858  0.00  0.00    +0.004 C 
ATOM      7  C   UNL     1      32.564 -22.858 -12.823  0.00  0.00    +0.004 C 
ATOM      8  C   UNL     1      30.393 -24.171 -15.314  0.00  0.00    +0.009 C 
ATOM      9  C   UNL     1      30.761 -21.910 -14.286  0.00  0.00    +0.009 C 
ATOM     10  C   UNL     1      30.276 -23.887 -12.825  0.00  0.00    +0.000 C 
ENDROOT
BRANCH   1  12
ATOM     11 CL   UNL     1      39.012 -24.680 -13.579  0.00  0.00    -0.082 Cl
ATOM     12  C   UNL     1      34.558 -24.026 -13.867  0.00  0.00    -0.023 C 
ATOM     13  C   UNL     1      35.308 -23.315 -12.929  0.00  0.00    -0.003 C 
ATOM     14  C   UNL     1      35.185 -24.938 -14.715  0.00  0.00    -0.003 C 
ATOM     15  C   UNL     1      36.685 -23.518 -12.840  0.00  0.00    +0.011 C 
ATOM     16  C   UNL     1      36.563 -25.140 -14.625  0.00  0.00    +0.011 C 
ATOM     17  C   UNL     1      37.313 -24.430 -13.689  0.00  0.00    +0.058 C 
ENDBRANCH   1  12
BRANCH   2  20
ATOM     18  O   UNL     1      29.715 -21.906 -17.074  0.00  0.00    -0.275 OA
ATOM     19  N   UNL     1      31.991 -22.055 -17.541  0.00  0.00    -0.300 N 
ATOM     20  C   UNL     1      30.862 -22.215 -16.758  0.00  0.00    +0.222 C 
ATOM     21  H   UNL     1      32.859 -22.341 -17.177  0.00  0.00    +0.150 HD
BRANCH  19  22
ATOM     22  C   UNL     1      31.957 -21.486 -18.870  0.00  0.00    +0.116 C 
BRANCH  22  24
ATOM     23  N   UNL     1      35.791 -19.998 -20.079  0.00  0.00    -0.242 NA
ATOM     24  C   UNL     1      33.300 -20.965 -19.293  0.00  0.00    +0.001 C 
ATOM     25  C   UNL     1      34.449 -21.458 -18.696  0.00  0.00    +0.018 C 
ATOM     26  C   UNL     1      33.381 -19.995 -20.279  0.00  0.00    +0.018 C 
ATOM     27  C   UNL     1      35.663 -20.945 -19.122  0.00  0.00    +0.099 C 
ATOM     28  C   UNL     1      34.643 -19.546 -20.634  0.00  0.00    +0.099 C 
ENDBRANCH  22  24
ENDBRANCH  19  22
ENDBRANCH   2  20
TORSDOF 4
ENDMDL
MODEL 2
REMARK VINA RESULT:     -10.4      3.028      5.160
REMARK  Name = 15604015
REMARK  4 active torsions:
REMARK  status: ('A' for Active; 'I' for Inactive)
REMARK    1  A    between atoms: C_1  and  C_12
REMARK    2  A    between atoms: C_2  and  C_20
REMARK    3  A    between atoms: N_19  and  C_22
REMARK    4  A    between atoms: C_22  and  C_24
REMARK                            x       y       z     vdW  Elec       q    Type
REMARK                         _______ _______ _______ _____ _____    ______ ____
ROOT
ATOM      1  C   UNL     1      33.947 -23.761 -14.023  0.00  0.00    +0.019 C 
ATOM      2  C   UNL     1      36.136 -22.840 -14.971  0.00  0.00    +0.069 C 
ATOM      3  C   UNL     1      35.872 -23.062 -12.481  0.00  0.00    +0.001 C 
ATOM      4  C   UNL     1      36.105 -25.122 -13.898  0.00  0.00    +0.001 C 
ATOM      5  C   UNL     1      34.604 -22.896 -15.139  0.00  0.00    +0.013 C 
ATOM      6  C   UNL     1      34.345 -23.124 -12.656  0.00  0.00    +0.004 C 
ATOM      7  C   UNL     1      34.576 -25.184 -14.066  0.00  0.00    +0.004 C 
ATOM      8  C   UNL     1      36.476 -22.213 -13.609  0.00  0.00    +0.009 C 
ATOM      9  C   UNL     1      36.705 -24.270 -15.029  0.00  0.00    +0.009 C 
ATOM     10  C   UNL     1      36.446 -24.484 -12.546  0.00  0.00    +0.000 C 
ENDROOT
BRANCH   1  12
ATOM     11 CL   UNL     1      27.974 -24.103 -14.909  0.00  0.00    -0.082 Cl
ATOM     12  C   UNL     1      32.429 -23.848 -14.248  0.00  0.00    -0.023 C 
ATOM     13  C   UNL     1      31.829 -23.097 -15.260  0.00  0.00    -0.003 C 
ATOM     14  C   UNL     1      31.651 -24.678 -13.442  0.00  0.00    -0.003 C 
ATOM     15  C   UNL     1      30.452 -23.176 -15.464  0.00  0.00    +0.011 C 
ATOM     16  C   UNL     1      30.272 -24.757 -13.647  0.00  0.00    +0.011 C 
ATOM     17  C   UNL     1      29.674 -24.006 -14.657  0.00  0.00    +0.058 C 
ENDBRANCH   1  12
BRANCH   2  20
ATOM     18  O   UNL     1      37.849 -21.483 -15.941  0.00  0.00    -0.275 OA
ATOM     19  N   UNL     1      35.905 -21.885 -17.158  0.00  0.00    -0.300 N 
ATOM     20  C   UNL     1      36.742 -22.002 -16.062  0.00  0.00    +0.222 C 
ATOM     21  H   UNL     1      35.038 -22.350 -17.138  0.00  0.00    +0.150 HD
BRANCH  19  22
ATOM     22  C   UNL     1      36.245 -21.114 -18.332  0.00  0.00    +0.116 C 
BRANCH  22  24
ATOM     23  N   UNL     1      32.781 -20.088 -20.637  0.00  0.00    -0.242 NA
ATOM     24  C   UNL     1      35.032 -20.754 -19.140  0.00  0.00    +0.001 C 
ATOM     25  C   UNL     1      35.153 -19.891 -20.216  0.00  0.00    +0.018 C 
ATOM     26  C   UNL     1      33.799 -21.290 -18.803  0.00  0.00    +0.018 C 
ATOM     27  C   UNL     1      34.004 -19.591 -20.929  0.00  0.00    +0.099 C 
ATOM     28  C   UNL     1      32.710 -20.927 -19.579  0.00  0.00    +0.099 C 
ENDBRANCH  22  24
ENDBRANCH  19  22
ENDBRANCH   2  20
TORSDOF 4
ENDMDL
MODEL 3
REMARK VINA RESULT:      -9.6     13.589     18.112
REMARK  Name = 15604015
REMARK  4 active torsions:
REMARK  status: ('A' for Active; 'I' for Inactive)
REMARK    1  A    between atoms: C_1  and  C_12
REMARK    2  A    between atoms: C_2  and  C_20
REMARK    3  A    between atoms: N_19  and  C_22
REMARK    4  A    between atoms: C_22  and  C_24
REMARK                            x       y       z     vdW  Elec       q    Type
REMARK                         _______ _______ _______ _____ _____    ______ ____
ROOT
ATOM      1  C   UNL     1      32.725  -5.724 -24.025  0.00  0.00    +0.019 C 
ATOM      2  C   UNL     1      31.347  -7.300 -22.558  0.00  0.00    +0.069 C 
ATOM      3  C   UNL     1      33.143  -5.893 -21.502  0.00  0.00    +0.001 C 
ATOM      4  C   UNL     1      31.038  -4.807 -22.339  0.00  0.00    +0.001 C 
ATOM      5  C   UNL     1      32.002  -7.100 -23.939  0.00  0.00    +0.013 C 
ATOM      6  C   UNL     1      33.787  -5.693 -22.883  0.00  0.00    +0.004 C 
ATOM      7  C   UNL     1      31.690  -4.602 -23.719  0.00  0.00    +0.004 C 
ATOM      8  C   UNL     1      32.431  -7.254 -21.468  0.00  0.00    +0.009 C 
ATOM      9  C   UNL     1      30.329  -6.171 -22.311  0.00  0.00    +0.009 C 
ATOM     10  C   UNL     1      32.121  -4.775 -21.253  0.00  0.00    +0.000 C 
ENDROOT
BRANCH   1  12
ATOM     11 CL   UNL     1      35.054  -4.941 -29.551  0.00  0.00    -0.082 Cl
ATOM     12  C   UNL     1      33.317  -5.526 -25.429  0.00  0.00    -0.023 C 
ATOM     13  C   UNL     1      34.649  -5.137 -25.577  0.00  0.00    -0.003 C 
ATOM     14  C   UNL     1      32.523  -5.735 -26.557  0.00  0.00    -0.003 C 
ATOM     15  C   UNL     1      35.186  -4.956 -26.851  0.00  0.00    +0.011 C 
ATOM     16  C   UNL     1      33.061  -5.554 -27.832  0.00  0.00    +0.011 C 
ATOM     17  C   UNL     1      34.392  -5.164 -27.979  0.00  0.00    +0.058 C 
ENDBRANCH   1  12
BRANCH   2  20
ATOM     18  O   UNL     1      29.663  -8.877 -23.187  0.00  0.00    -0.275 OA
ATOM     19  N   UNL     1      31.253  -9.498 -21.604  0.00  0.00    -0.300 N 
ATOM     20  C   UNL     1      30.655  -8.634 -22.505  0.00  0.00    +0.222 C 
ATOM     21  H   UNL     1      32.048  -9.189 -21.113  0.00  0.00    +0.150 HD
BRANCH  19  22
ATOM     22  C   UNL     1      30.766 -10.835 -21.350  0.00  0.00    +0.116 C 
BRANCH  22  24
ATOM     23  N   UNL     1      33.788 -13.800 -22.019  0.00  0.00    -0.242 NA
ATOM     24  C   UNL     1      31.824 -11.873 -21.585  0.00  0.00    +0.001 C 
ATOM     25  C   UNL     1      32.579 -11.837 -22.745  0.00  0.00    +0.018 C 
ATOM     26  C   UNL     1      32.039 -12.862 -20.637  0.00  0.00    +0.018 C 
ATOM     27  C   UNL     1      33.543 -12.817 -22.914  0.00  0.00    +0.099 C 
ATOM     28  C   UNL     1      33.028 -13.797 -20.901  0.00  0.00    +0.099 C 
ENDBRANCH  22  24
ENDBRANCH  19  22
ENDBRANCH   2  20
TORSDOF 4
ENDMDL
MODEL 4
REMARK VINA RESULT:      -9.2      3.079      5.923
REMARK  Name = 15604015
REMARK  4 active torsions:
REMARK  status: ('A' for Active; 'I' for Inactive)
REMARK    1  A    between atoms: C_1  and  C_12
REMARK    2  A    between atoms: C_2  and  C_20
REMARK    3  A    between atoms: N_19  and  C_22
REMARK    4  A    between atoms: C_22  and  C_24
REMARK                            x       y       z     vdW  Elec       q    Type
REMARK                         _______ _______ _______ _____ _____    ______ ____
ROOT
ATOM      1  C   UNL     1      34.806 -22.835 -15.818  0.00  0.00    +0.019 C 
ATOM      2  C   UNL     1      33.333 -23.689 -13.912  0.00  0.00    +0.069 C 
ATOM      3  C   UNL     1      35.392 -24.983 -14.549  0.00  0.00    +0.001 C 
ATOM      4  C   UNL     1      35.622 -22.762 -13.398  0.00  0.00    +0.001 C 
ATOM      5  C   UNL     1      33.352 -22.983 -15.282  0.00  0.00    +0.013 C 
ATOM      6  C   UNL     1      35.409 -24.270 -15.911  0.00  0.00    +0.004 C 
ATOM      7  C   UNL     1      35.645 -22.053 -14.764  0.00  0.00    +0.004 C 
ATOM      8  C   UNL     1      33.943 -25.094 -14.054  0.00  0.00    +0.009 C 
ATOM      9  C   UNL     1      34.169 -22.872 -12.908  0.00  0.00    +0.009 C 
ATOM     10  C   UNL     1      36.216 -24.169 -13.543  0.00  0.00    +0.000 C 
ENDROOT
BRANCH   1  12
ATOM     11 CL   UNL     1      34.783 -19.846 -21.077  0.00  0.00    -0.082 Cl
ATOM     12  C   UNL     1      34.800 -22.076 -17.155  0.00  0.00    -0.023 C 
ATOM     13  C   UNL     1      35.964 -21.454 -17.610  0.00  0.00    -0.003 C 
ATOM     14  C   UNL     1      33.632 -22.008 -17.914  0.00  0.00    -0.003 C 
ATOM     15  C   UNL     1      35.959 -20.765 -18.822  0.00  0.00    +0.011 C 
ATOM     16  C   UNL     1      33.627 -21.318 -19.127  0.00  0.00    +0.011 C 
ATOM     17  C   UNL     1      34.790 -20.697 -19.581  0.00  0.00    +0.058 C 
ENDBRANCH   1  12
BRANCH   2  20
ATOM     18  O   UNL     1      31.574 -24.723 -12.664  0.00  0.00    -0.275 OA
ATOM     19  N   UNL     1      31.096 -22.827 -13.928  0.00  0.00    -0.300 N 
ATOM     20  C   UNL     1      31.919 -23.816 -13.418  0.00  0.00    +0.222 C 
ATOM     21  H   UNL     1      31.490 -22.151 -14.525  0.00  0.00    +0.150 HD
BRANCH  19  22
ATOM     22  C   UNL     1      29.686 -22.738 -13.624  0.00  0.00    +0.116 C 
BRANCH  22  24
ATOM     23  N   UNL     1      27.253 -23.359 -17.097  0.00  0.00    -0.242 NA
ATOM     24  C   UNL     1      28.834 -22.956 -14.841  0.00  0.00    +0.001 C 
ATOM     25  C   UNL     1      28.815 -24.198 -15.454  0.00  0.00    +0.018 C 
ATOM     26  C   UNL     1      28.072 -21.913 -15.341  0.00  0.00    +0.018 C 
ATOM     27  C   UNL     1      28.012 -24.347 -16.573  0.00  0.00    +0.099 C 
ATOM     28  C   UNL     1      27.302 -22.164 -16.466  0.00  0.00    +0.099 C 
ENDBRANCH  22  24
ENDBRANCH  19  22
ENDBRANCH   2  20
TORSDOF 4
ENDMDL
MODEL 5
REMARK VINA RESULT:      -9.2      4.853      9.869
REMARK  Name = 15604015
REMARK  4 active torsions:
REMARK  status: ('A' for Active; 'I' for Inactive)
REMARK    1  A    between atoms: C_1  and  C_12
REMARK    2  A    between atoms: C_2  and  C_20
REMARK    3  A    between atoms: N_19  and  C_22
REMARK    4  A    between atoms: C_22  and  C_24
REMARK                            x       y       z     vdW  Elec       q    Type
REMARK                         _______ _______ _______ _____ _____    ______ ____
ROOT
ATOM      1  C   UNL     1      34.516 -16.944 -22.050  0.00  0.00    +0.019 C 
ATOM      2  C   UNL     1      34.346 -19.263 -20.987  0.00  0.00    +0.069 C 
ATOM      3  C   UNL     1      34.849 -19.070 -23.442  0.00  0.00    +0.001 C 
ATOM      4  C   UNL     1      36.590 -18.407 -21.757  0.00  0.00    +0.001 C 
ATOM      5  C   UNL     1      33.795 -17.823 -20.986  0.00  0.00    +0.013 C 
ATOM      6  C   UNL     1      34.304 -17.633 -23.433  0.00  0.00    +0.004 C 
ATOM      7  C   UNL     1      36.045 -16.968 -21.756  0.00  0.00    +0.004 C 
ATOM      8  C   UNL     1      34.121 -19.894 -22.370  0.00  0.00    +0.009 C 
ATOM      9  C   UNL     1      35.856 -19.227 -20.684  0.00  0.00    +0.009 C 
ATOM     10  C   UNL     1      36.352 -19.042 -23.133  0.00  0.00    +0.000 C 
ENDROOT
BRANCH   1  12
ATOM     11 CL   UNL     1      32.441 -11.268 -21.803  0.00  0.00    -0.082 Cl
ATOM     12  C   UNL     1      33.989 -15.501 -21.988  0.00  0.00    -0.023 C 
ATOM     13  C   UNL     1      33.812 -14.876 -20.753  0.00  0.00    -0.003 C 
ATOM     14  C   UNL     1      33.687 -14.817 -23.165  0.00  0.00    -0.003 C 
ATOM     15  C   UNL     1      33.334 -13.567 -20.696  0.00  0.00    +0.011 C 
ATOM     16  C   UNL     1      33.208 -13.507 -23.107  0.00  0.00    +0.011 C 
ATOM     17  C   UNL     1      33.032 -12.883 -21.873  0.00  0.00    +0.058 C 
ENDBRANCH   1  12
BRANCH   2  20
ATOM     18  O   UNL     1      32.429 -19.965 -19.741  0.00  0.00    -0.275 OA
ATOM     19  N   UNL     1      34.493 -20.940 -19.280  0.00  0.00    -0.300 N 
ATOM     20  C   UNL     1      33.634 -20.086 -19.950  0.00  0.00    +0.222 C 
ATOM     21  H   UNL     1      35.443 -20.948 -19.538  0.00  0.00    +0.150 HD
BRANCH  19  22
ATOM     22  C   UNL     1      34.061 -21.823 -18.220  0.00  0.00    +0.116 C 
BRANCH  22  24
ATOM     23  N   UNL     1      36.955 -22.089 -15.071  0.00  0.00    -0.242 NA
ATOM     24  C   UNL     1      35.075 -21.916 -17.117  0.00  0.00    +0.001 C 
ATOM     25  C   UNL     1      36.320 -21.331 -17.276  0.00  0.00    +0.018 C 
ATOM     26  C   UNL     1      34.758 -22.586 -15.947  0.00  0.00    +0.018 C 
ATOM     27  C   UNL     1      37.220 -21.445 -16.229  0.00  0.00    +0.099 C 
ATOM     28  C   UNL     1      35.728 -22.644 -14.959  0.00  0.00    +0.099 C 
ENDBRANCH  22  24
ENDBRANCH  19  22
ENDBRANCH   2  20
TORSDOF 4
ENDMDL
MODEL 6
REMARK VINA RESULT:      -9.1      3.283      6.409
REMARK  Name = 15604015
REMARK  4 active torsions:
REMARK  status: ('A' for Active; 'I' for Inactive)
REMARK    1  A    between atoms: C_1  and  C_12
REMARK    2  A    between atoms: C_2  and  C_20
REMARK    3  A    between atoms: N_19  and  C_22
REMARK    4  A    between atoms: C_22  and  C_24
REMARK                            x       y       z     vdW  Elec       q    Type
REMARK                         _______ _______ _______ _____ _____    ______ ____
ROOT
ATOM      1  C   UNL     1      35.941 -22.810 -15.335  0.00  0.00    +0.019 C 
ATOM      2  C   UNL     1      35.012 -23.862 -13.198  0.00  0.00    +0.069 C 
ATOM      3  C   UNL     1      37.198 -24.687 -14.124  0.00  0.00    +0.001 C 
ATOM      4  C   UNL     1      37.069 -22.407 -13.079  0.00  0.00    +0.001 C 
ATOM      5  C   UNL     1      34.660 -23.254 -14.570  0.00  0.00    +0.013 C 
ATOM      6  C   UNL     1      36.843 -24.073 -15.489  0.00  0.00    +0.004 C 
ATOM      7  C   UNL     1      36.720 -21.796 -14.447  0.00  0.00    +0.004 C 
ATOM      8  C   UNL     1      35.906 -25.096 -13.402  0.00  0.00    +0.009 C 
ATOM      9  C   UNL     1      35.773 -22.816 -12.361  0.00  0.00    +0.009 C 
ATOM     10  C   UNL     1      37.949 -23.647 -13.282  0.00  0.00    +0.000 C 
ENDROOT
BRANCH   1  12
ATOM     11 CL   UNL     1      34.431 -20.229 -20.592  0.00  0.00    -0.082 Cl
ATOM     12  C   UNL     1      35.557 -22.155 -16.671  0.00  0.00    -0.023 C 
ATOM     13  C   UNL     1      36.490 -21.379 -17.361  0.00  0.00    -0.003 C 
ATOM     14  C   UNL     1      34.277 -22.334 -17.194  0.00  0.00    -0.003 C 
ATOM     15  C   UNL     1      36.142 -20.784 -18.574  0.00  0.00    +0.011 C 
ATOM     16  C   UNL     1      33.929 -21.738 -18.407  0.00  0.00    +0.011 C 
ATOM     17  C   UNL     1      34.861 -20.964 -19.096  0.00  0.00    +0.058 C 
ENDBRANCH   1  12
BRANCH   2  20
ATOM     18  O   UNL     1      33.756 -24.557 -11.285  0.00  0.00    -0.275 OA
ATOM     19  N   UNL     1      32.663 -24.321 -13.327  0.00  0.00    -0.300 N 
ATOM     20  C   UNL     1      33.757 -24.277 -12.482  0.00  0.00    +0.222 C 
ATOM     21  H   UNL     1      32.789 -24.073 -14.271  0.00  0.00    +0.150 HD
BRANCH  19  22
ATOM     22  C   UNL     1      31.342 -24.713 -12.890  0.00  0.00    +0.116 C 
BRANCH  22  24
ATOM     23  N   UNL     1      28.272 -23.103 -15.410  0.00  0.00    -0.242 NA
ATOM     24  C   UNL     1      30.267 -24.149 -13.772  0.00  0.00    +0.001 C 
ATOM     25  C   UNL     1      29.294 -24.987 -14.293  0.00  0.00    +0.018 C 
ATOM     26  C   UNL     1      30.254 -22.794 -14.059  0.00  0.00    +0.018 C 
ATOM     27  C   UNL     1      28.325 -24.418 -15.102  0.00  0.00    +0.099 C 
ATOM     28  C   UNL     1      29.240 -22.322 -14.879  0.00  0.00    +0.099 C 
ENDBRANCH  22  24
ENDBRANCH  19  22
ENDBRANCH   2  20
TORSDOF 4
ENDMDL
MODEL 7
REMARK VINA RESULT:      -9.0     13.856     18.201
REMARK  Name = 15604015
REMARK  4 active torsions:
REMARK  status: ('A' for Active; 'I' for Inactive)
REMARK    1  A    between atoms: C_1  and  C_12
REMARK    2  A    between atoms: C_2  and  C_20
REMARK    3  A    between atoms: N_19  and  C_22
REMARK    4  A    between atoms: C_22  and  C_24
REMARK                            x       y       z     vdW  Elec       q    Type
REMARK                         _______ _______ _______ _____ _____    ______ ____
ROOT
ATOM      1  C   UNL     1      32.307  -5.249 -23.453  0.00  0.00    +0.019 C 
ATOM      2  C   UNL     1      31.439  -6.706 -21.540  0.00  0.00    +0.069 C 
ATOM      3  C   UNL     1      31.241  -4.206 -21.368  0.00  0.00    +0.001 C 
ATOM      4  C   UNL     1      29.802  -5.462 -22.999  0.00  0.00    +0.001 C 
ATOM      5  C   UNL     1      32.527  -6.547 -22.620  0.00  0.00    +0.013 C 
ATOM      6  C   UNL     1      32.322  -4.054 -22.451  0.00  0.00    +0.004 C 
ATOM      7  C   UNL     1      30.884  -5.301 -24.082  0.00  0.00    +0.004 C 
ATOM      8  C   UNL     1      31.490  -5.504 -20.584  0.00  0.00    +0.009 C 
ATOM      9  C   UNL     1      30.057  -6.760 -22.217  0.00  0.00    +0.009 C 
ATOM     10  C   UNL     1      29.862  -4.269 -22.037  0.00  0.00    +0.000 C 
ENDROOT
BRANCH   1  12
ATOM     11 CL   UNL     1      36.488  -4.842 -27.804  0.00  0.00    -0.082 Cl
ATOM     12  C   UNL     1      33.369  -5.146 -24.559  0.00  0.00    -0.023 C 
ATOM     13  C   UNL     1      33.966  -6.302 -25.064  0.00  0.00    -0.003 C 
ATOM     14  C   UNL     1      33.736  -3.897 -25.059  0.00  0.00    -0.003 C 
ATOM     15  C   UNL     1      34.930  -6.208 -26.067  0.00  0.00    +0.011 C 
ATOM     16  C   UNL     1      34.702  -3.803 -26.063  0.00  0.00    +0.011 C 
ATOM     17  C   UNL     1      35.298  -4.958 -26.566  0.00  0.00    +0.058 C 
ENDBRANCH   1  12
BRANCH   2  20
ATOM     18  O   UNL     1      32.368  -7.978 -19.740  0.00  0.00    -0.275 OA
ATOM     19  N   UNL     1      31.051  -9.063 -21.325  0.00  0.00    -0.300 N 
ATOM     20  C   UNL     1      31.675  -7.967 -20.755  0.00  0.00    +0.222 C 
ATOM     21  H   UNL     1      30.520  -8.927 -22.142  0.00  0.00    +0.150 HD
BRANCH  19  22
ATOM     22  C   UNL     1      31.141 -10.397 -20.776  0.00  0.00    +0.116 C 
BRANCH  22  24
ATOM     23  N   UNL     1      33.381 -13.028 -23.311  0.00  0.00    -0.242 NA
ATOM     24  C   UNL     1      31.925 -11.319 -21.664  0.00  0.00    +0.001 C 
ATOM     25  C   UNL     1      32.220 -12.602 -21.234  0.00  0.00    +0.018 C 
ATOM     26  C   UNL     1      32.349 -10.879 -22.908  0.00  0.00    +0.018 C 
ATOM     27  C   UNL     1      32.946 -13.413 -22.091  0.00  0.00    +0.099 C 
ATOM     28  C   UNL     1      33.070 -11.768 -23.690  0.00  0.00    +0.099 C 
ENDBRANCH  22  24
ENDBRANCH  19  22
ENDBRANCH   2  20
TORSDOF 4
ENDMDL
MODEL 8
REMARK VINA RESULT:      -8.8     14.593     18.634
REMARK  Name = 15604015
REMARK  4 active torsions:
REMARK  status: ('A' for Active; 'I' for Inactive)
REMARK    1  A    between atoms: C_1  and  C_12
REMARK    2  A    between atoms: C_2  and  C_20
REMARK    3  A    between atoms: N_19  and  C_22
REMARK    4  A    between atoms: C_22  and  C_24
REMARK                            x       y       z     vdW  Elec       q    Type
REMARK                         _______ _______ _______ _____ _____    ______ ____
ROOT
ATOM      1  C   UNL     1      31.718  -7.351 -22.641  0.00  0.00    +0.019 C 
ATOM      2  C   UNL     1      32.179  -5.861 -24.666  0.00  0.00    +0.069 C 
ATOM      3  C   UNL     1      30.442  -5.156 -22.991  0.00  0.00    +0.001 C 
ATOM      4  C   UNL     1      32.874  -5.090 -22.367  0.00  0.00    +0.001 C 
ATOM      5  C   UNL     1      32.086  -7.312 -24.153  0.00  0.00    +0.013 C 
ATOM      6  C   UNL     1      30.359  -6.604 -22.480  0.00  0.00    +0.004 C 
ATOM      7  C   UNL     1      32.785  -6.536 -21.851  0.00  0.00    +0.004 C 
ATOM      8  C   UNL     1      30.821  -5.167 -24.480  0.00  0.00    +0.009 C 
ATOM      9  C   UNL     1      33.252  -5.106 -23.858  0.00  0.00    +0.009 C 
ATOM     10  C   UNL     1      31.515  -4.400 -22.196  0.00  0.00    +0.000 C 
ENDROOT
BRANCH   1  12
ATOM     11 CL   UNL     1      31.606 -13.072 -20.681  0.00  0.00    -0.082 Cl
ATOM     12  C   UNL     1      31.690  -8.805 -22.142  0.00  0.00    -0.023 C 
ATOM     13  C   UNL     1      32.135  -9.836 -22.971  0.00  0.00    -0.003 C 
ATOM     14  C   UNL     1      31.220  -9.095 -20.862  0.00  0.00    -0.003 C 
ATOM     15  C   UNL     1      32.109 -11.155 -22.519  0.00  0.00    +0.011 C 
ATOM     16  C   UNL     1      31.194 -10.415 -20.410  0.00  0.00    +0.011 C 
ATOM     17  C   UNL     1      31.638 -11.444 -21.238  0.00  0.00    +0.058 C 
ENDBRANCH   1  12
BRANCH   2  20
ATOM     18  O   UNL     1      31.872  -6.462 -26.960  0.00  0.00    -0.275 OA
ATOM     19  N   UNL     1      33.684  -5.120 -26.380  0.00  0.00    -0.300 N 
ATOM     20  C   UNL     1      32.538  -5.854 -26.126  0.00  0.00    +0.222 C 
ATOM     21  H   UNL     1      34.133  -4.675 -25.625  0.00  0.00    +0.150 HD
BRANCH  19  22
ATOM     22  C   UNL     1      34.253  -4.976 -27.700  0.00  0.00    +0.116 C 
BRANCH  22  24
ATOM     23  N   UNL     1      38.373  -3.806 -27.555  0.00  0.00    -0.242 NA
ATOM     24  C   UNL     1      35.696  -4.566 -27.650  0.00  0.00    +0.001 C 
ATOM     25  C   UNL     1      36.549  -4.921 -28.682  0.00  0.00    +0.018 C 
ATOM     26  C   UNL     1      36.165  -3.834 -26.570  0.00  0.00    +0.018 C 
ATOM     27  C   UNL     1      37.871  -4.519 -28.587  0.00  0.00    +0.099 C 
ATOM     28  C   UNL     1      37.505  -3.481 -26.570  0.00  0.00    +0.099 C 
ENDBRANCH  22  24
ENDBRANCH  19  22
ENDBRANCH   2  20
TORSDOF 4
ENDMDL
MODEL 9
REMARK VINA RESULT:      -8.8     14.609     18.636
REMARK  Name = 15604015
REMARK  4 active torsions:
REMARK  status: ('A' for Active; 'I' for Inactive)
REMARK    1  A    between atoms: C_1  and  C_12
REMARK    2  A    between atoms: C_2  and  C_20
REMARK    3  A    between atoms: N_19  and  C_22
REMARK    4  A    between atoms: C_22  and  C_24
REMARK                            x       y       z     vdW  Elec       q    Type
REMARK                         _______ _______ _______ _____ _____    ______ ____
ROOT
ATOM      1  C   UNL     1      31.736  -7.330 -22.676  0.00  0.00    +0.019 C 
ATOM      2  C   UNL     1      32.222  -5.847 -24.701  0.00  0.00    +0.069 C 
ATOM      3  C   UNL     1      30.463  -5.137 -23.051  0.00  0.00    +0.001 C 
ATOM      4  C   UNL     1      32.887  -5.067 -22.397  0.00  0.00    +0.001 C 
ATOM      5  C   UNL     1      32.123  -7.296 -24.183  0.00  0.00    +0.013 C 
ATOM      6  C   UNL     1      30.374  -6.583 -22.536  0.00  0.00    +0.004 C 
ATOM      7  C   UNL     1      32.792  -6.511 -21.876  0.00  0.00    +0.004 C 
ATOM      8  C   UNL     1      30.860  -5.153 -24.535  0.00  0.00    +0.009 C 
ATOM      9  C   UNL     1      33.283  -5.088 -23.882  0.00  0.00    +0.009 C 
ATOM     10  C   UNL     1      31.525  -4.378 -22.245  0.00  0.00    +0.000 C 
ENDROOT
BRANCH   1  12
ATOM     11 CL   UNL     1      31.607 -13.042 -20.692  0.00  0.00    -0.082 Cl
ATOM     12  C   UNL     1      31.702  -8.782 -22.172  0.00  0.00    -0.023 C 
ATOM     13  C   UNL     1      31.204  -9.068 -20.900  0.00  0.00    -0.003 C 
ATOM     14  C   UNL     1      32.171  -9.814 -22.985  0.00  0.00    -0.003 C 
ATOM     15  C   UNL     1      31.174 -10.385 -20.443  0.00  0.00    +0.011 C 
ATOM     16  C   UNL     1      32.141 -11.132 -22.527  0.00  0.00    +0.011 C 
ATOM     17  C   UNL     1      31.643 -11.417 -21.256  0.00  0.00    +0.058 C 
ENDBRANCH   1  12
BRANCH   2  20
ATOM     18  O   UNL     1      31.909  -6.405 -27.005  0.00  0.00    -0.275 OA
ATOM     19  N   UNL     1      33.789  -5.177 -26.388  0.00  0.00    -0.300 N 
ATOM     20  C   UNL     1      32.599  -5.846 -26.156  0.00  0.00    +0.222 C 
ATOM     21  H   UNL     1      34.253  -4.767 -25.623  0.00  0.00    +0.150 HD
BRANCH  19  22
ATOM     22  C   UNL     1      34.381  -5.052 -27.700  0.00  0.00    +0.116 C 
BRANCH  22  24
ATOM     23  N   UNL     1      38.454  -3.733 -27.503  0.00  0.00    -0.242 NA
ATOM     24  C   UNL     1      35.808  -4.590 -27.630  0.00  0.00    +0.001 C 
ATOM     25  C   UNL     1      36.229  -3.815 -26.562  0.00  0.00    +0.018 C 
ATOM     26  C   UNL     1      36.694  -4.942 -28.636  0.00  0.00    +0.018 C 
ATOM     27  C   UNL     1      37.555  -3.415 -26.545  0.00  0.00    +0.099 C 
ATOM     28  C   UNL     1      38.000  -4.490 -28.526  0.00  0.00    +0.099 C 
ENDBRANCH  22  24
ENDBRANCH  19  22
ENDBRANCH   2  20
TORSDOF 4
ENDMDL
