MODEL 1
REMARK VINA RESULT:     -12.5      0.000      0.000
REMARK  Name = 6914613
REMARK  8 active torsions:
REMARK  status: ('A' for Active; 'I' for Inactive)
REMARK    1  A    between atoms: C_1  and  N_2
REMARK    2  A    between atoms: C_1  and  C_6
REMARK    3  A    between atoms: C_1  and  C_17
REMARK    4  A    between atoms: C_6  and  C_8
REMARK    5  A    between atoms: C_17  and  O_18
REMARK    6  A    between atoms: O_18  and  C_20
REMARK    7  A    between atoms: C_23  and  C_25
REMARK    8  A    between atoms: C_26  and  C_28
REMARK                            x       y       z     vdW  Elec       q    Type
REMARK                         _______ _______ _______ _____ _____    ______ ____
ROOT
ATOM      1  C   UNL     1      36.067 -18.186 -21.118  0.00  0.00    -0.017 C 
ENDROOT
BRANCH   1   2
ATOM      2  N   UNL     1      37.199 -18.052 -22.042  0.00  0.00    +0.384 N 
ATOM      3  H   UNL     1      37.802 -17.290 -21.732  0.00  0.00    -0.089 HD
ATOM      4  H   UNL     1      36.851 -17.850 -22.979  0.00  0.00    -0.089 HD
ATOM      5  H   UNL     1      37.731 -18.922 -22.057  0.00  0.00    -0.089 HD
ENDBRANCH   1   2
BRANCH   1   6
ATOM      6  C   UNL     1      34.746 -18.261 -21.928  0.00  0.00    +0.009 C 
BRANCH   6   8
ATOM      7  N   UNL     1      34.060 -15.693 -24.432  0.00  0.00    -0.312 N 
ATOM      8  C   UNL     1      34.442 -17.050 -22.716  0.00  0.00    -0.008 C 
ATOM      9  C   UNL     1      34.188 -15.746 -22.204  0.00  0.00    +0.011 C 
ATOM     10  C   UNL     1      33.950 -14.914 -23.301  0.00  0.00    +0.048 C 
ATOM     11  C   UNL     1      34.356 -16.985 -24.088  0.00  0.00    +0.058 C 
ATOM     12  C   UNL     1      34.137 -15.193 -20.910  0.00  0.00    +0.001 C 
ATOM     13  C   UNL     1      33.663 -13.551 -23.167  0.00  0.00    +0.015 C 
ATOM     14  C   UNL     1      33.850 -13.831 -20.760  0.00  0.00    +0.000 C 
ATOM     15  C   UNL     1      33.618 -13.025 -21.872  0.00  0.00    +0.001 C 
ATOM     16  H   UNL     1      33.941 -15.368 -25.353  0.00  0.00    +0.152 HD
ENDBRANCH   6   8
ENDBRANCH   1   6
BRANCH   1  17
ATOM     17  C   UNL     1      36.309 -19.409 -20.222  0.00  0.00    +0.184 C 
BRANCH  17  18
ATOM     18  O   UNL     1      35.195 -20.292 -20.224  0.00  0.00    -0.476 OA
BRANCH  18  20
ATOM     19  N   UNL     1      35.837 -21.955 -17.044  0.00  0.00    -0.239 NA
ATOM     20  C   UNL     1      34.965 -20.999 -19.072  0.00  0.00    +0.158 C 
ATOM     21  C   UNL     1      33.696 -21.460 -18.773  0.00  0.00    +0.040 C 
ATOM     22  C   UNL     1      35.995 -21.263 -18.196  0.00  0.00    +0.136 C 
ATOM     23  C   UNL     1      33.494 -22.176 -17.597  0.00  0.00    +0.022 C 
ATOM     24  C   UNL     1      34.588 -22.394 -16.775  0.00  0.00    +0.099 C 
BRANCH  23  25
ATOM     25  C   UNL     1      32.179 -22.679 -17.244  0.00  0.00    +0.002 C 
ATOM     26  C   UNL     1      31.686 -22.766 -15.984  0.00  0.00    +0.000 C 
BRANCH  26  28
ATOM     27  N   UNL     1      27.816 -24.188 -14.956  0.00  0.00    -0.242 NA
ATOM     28  C   UNL     1      30.344 -23.259 -15.626  0.00  0.00    +0.003 C 
ATOM     29  C   UNL     1      29.230 -22.611 -16.122  0.00  0.00    +0.021 C 
ATOM     30  C   UNL     1      30.223 -24.360 -14.802  0.00  0.00    +0.021 C 
ATOM     31  C   UNL     1      27.991 -23.114 -15.758  0.00  0.00    +0.099 C 
ATOM     32  C   UNL     1      28.940 -24.785 -14.497  0.00  0.00    +0.099 C 
ENDBRANCH  26  28
ENDBRANCH  23  25
ENDBRANCH  18  20
ENDBRANCH  17  18
ENDBRANCH   1  17
TORSDOF 8
ENDMDL
MODEL 2
REMARK VINA RESULT:     -12.3      2.536      4.201
REMARK  Name = 6914613
REMARK  8 active torsions:
REMARK  status: ('A' for Active; 'I' for Inactive)
REMARK    1  A    between atoms: C_1  and  N_2
REMARK    2  A    between atoms: C_1  and  C_6
REMARK    3  A    between atoms: C_1  and  C_17
REMARK    4  A    between atoms: C_6  and  C_8
REMARK    5  A    between atoms: C_17  and  O_18
REMARK    6  A    between atoms: O_18  and  C_20
REMARK    7  A    between atoms: C_23  and  C_25
REMARK    8  A    between atoms: C_26  and  C_28
REMARK                            x       y       z     vdW  Elec       q    Type
REMARK                         _______ _______ _______ _____ _____    ______ ____
ROOT
ATOM      1  C   UNL     1      35.892 -18.226 -21.283  0.00  0.00    -0.017 C 
ENDROOT
BRANCH   1   2
ATOM      2  N   UNL     1      37.208 -18.112 -21.921  0.00  0.00    +0.384 N 
ATOM      3  H   UNL     1      37.183 -17.370 -22.621  0.00  0.00    -0.089 HD
ATOM      4  H   UNL     1      37.444 -18.996 -22.372  0.00  0.00    -0.089 HD
ATOM      5  H   UNL     1      37.910 -17.892 -21.216  0.00  0.00    -0.089 HD
ENDBRANCH   1   2
BRANCH   1   6
ATOM      6  C   UNL     1      34.793 -18.298 -22.376  0.00  0.00    +0.009 C 
BRANCH   6   8
ATOM      7  N   UNL     1      34.034 -15.443 -24.521  0.00  0.00    -0.312 N 
ATOM      8  C   UNL     1      34.463 -17.000 -22.999  0.00  0.00    -0.008 C 
ATOM      9  C   UNL     1      34.209 -15.774 -22.321  0.00  0.00    +0.011 C 
ATOM     10  C   UNL     1      33.942 -14.813 -23.299  0.00  0.00    +0.048 C 
ATOM     11  C   UNL     1      34.348 -16.764 -24.349  0.00  0.00    +0.058 C 
ATOM     12  C   UNL     1      34.180 -15.389 -20.967  0.00  0.00    +0.001 C 
ATOM     13  C   UNL     1      33.647 -13.481 -22.989  0.00  0.00    +0.015 C 
ATOM     14  C   UNL     1      33.886 -14.060 -20.641  0.00  0.00    +0.000 C 
ATOM     15  C   UNL     1      33.624 -13.123 -21.638  0.00  0.00    +0.001 C 
ATOM     16  H   UNL     1      33.893 -15.005 -25.392  0.00  0.00    +0.152 HD
ENDBRANCH   6   8
ENDBRANCH   1   6
BRANCH   1  17
ATOM     17  C   UNL     1      35.905 -19.439 -20.344  0.00  0.00    +0.184 C 
BRANCH  17  18
ATOM     18  O   UNL     1      34.754 -20.255 -20.519  0.00  0.00    -0.476 OA
BRANCH  18  20
ATOM     19  N   UNL     1      32.564 -22.135 -18.293  0.00  0.00    -0.239 NA
ATOM     20  C   UNL     1      34.340 -20.981 -19.432  0.00  0.00    +0.158 C 
ATOM     21  C   UNL     1      35.224 -21.282 -18.412  0.00  0.00    +0.040 C 
ATOM     22  C   UNL     1      33.038 -21.418 -19.338  0.00  0.00    +0.136 C 
ATOM     23  C   UNL     1      34.774 -22.018 -17.321  0.00  0.00    +0.022 C 
ATOM     24  C   UNL     1      33.448 -22.416 -17.309  0.00  0.00    +0.099 C 
BRANCH  23  25
ATOM     25  C   UNL     1      35.667 -22.358 -16.227  0.00  0.00    +0.002 C 
ATOM     26  C   UNL     1      35.283 -22.864 -15.030  0.00  0.00    +0.000 C 
BRANCH  26  28
ATOM     27  N   UNL     1      37.900 -23.912 -11.850  0.00  0.00    -0.242 NA
ATOM     28  C   UNL     1      36.191 -23.227 -13.927  0.00  0.00    +0.003 C 
ATOM     29  C   UNL     1      35.894 -22.820 -12.642  0.00  0.00    +0.021 C 
ATOM     30  C   UNL     1      37.325 -23.968 -14.197  0.00  0.00    +0.021 C 
ATOM     31  C   UNL     1      36.778 -23.187 -11.641  0.00  0.00    +0.099 C 
ATOM     32  C   UNL     1      38.145 -24.284 -13.127  0.00  0.00    +0.099 C 
ENDBRANCH  26  28
ENDBRANCH  23  25
ENDBRANCH  18  20
ENDBRANCH  17  18
ENDBRANCH   1  17
TORSDOF 8
ENDMDL
MODEL 3
REMARK VINA RESULT:     -12.3      4.000      7.723
REMARK  Name = 6914613
REMARK  8 active torsions:
REMARK  status: ('A' for Active; 'I' for Inactive)
REMARK    1  A    between atoms: C_1  and  N_2
REMARK    2  A    between atoms: C_1  and  C_6
REMARK    3  A    between atoms: C_1  and  C_17
REMARK    4  A    between atoms: C_6  and  C_8
REMARK    5  A    between atoms: C_17  and  O_18
REMARK    6  A    between atoms: O_18  and  C_20
REMARK    7  A    between atoms: C_23  and  C_25
REMARK    8  A    between atoms: C_26  and  C_28
REMARK                            x       y       z     vdW  Elec       q    Type
REMARK                         _______ _______ _______ _____ _____    ______ ____
ROOT
ATOM      1  C   UNL     1      32.714 -11.679 -22.260  0.00  0.00    -0.017 C 
ENDROOT
BRANCH   1   2
ATOM      2  N   UNL     1      32.537 -11.593 -23.714  0.00  0.00    +0.384 N 
ATOM      3  H   UNL     1      31.658 -12.039 -23.976  0.00  0.00    -0.089 HD
ATOM      4  H   UNL     1      33.310 -12.067 -24.179  0.00  0.00    -0.089 HD
ATOM      5  H   UNL     1      32.519 -10.613 -23.996  0.00  0.00    -0.089 HD
ENDBRANCH   1   2
BRANCH   1   6
ATOM      6  C   UNL     1      31.373 -11.341 -21.556  0.00  0.00    +0.009 C 
BRANCH   6   8
ATOM      7  N   UNL     1      31.459  -8.813 -18.922  0.00  0.00    -0.312 N 
ATOM      8  C   UNL     1      31.416 -10.133 -20.707  0.00  0.00    -0.008 C 
ATOM      9  C   UNL     1      31.466  -8.783 -21.154  0.00  0.00    +0.011 C 
ATOM     10  C   UNL     1      31.493  -7.974 -20.015  0.00  0.00    +0.048 C 
ATOM     11  C   UNL     1      31.412 -10.119 -19.331  0.00  0.00    +0.058 C 
ATOM     12  C   UNL     1      31.491  -8.169 -22.421  0.00  0.00    +0.001 C 
ATOM     13  C   UNL     1      31.544  -6.578 -20.081  0.00  0.00    +0.015 C 
ATOM     14  C   UNL     1      31.543  -6.772 -22.503  0.00  0.00    +0.000 C 
ATOM     15  C   UNL     1      31.568  -5.992 -21.350  0.00  0.00    +0.001 C 
ATOM     16  H   UNL     1      31.468  -8.515 -17.984  0.00  0.00    +0.152 HD
ENDBRANCH   6   8
ENDBRANCH   1   6
BRANCH   1  17
ATOM     17  C   UNL     1      33.254 -13.073 -21.914  0.00  0.00    +0.184 C 
BRANCH  17  18
ATOM     18  O   UNL     1      34.173 -13.541 -22.891  0.00  0.00    -0.476 OA
BRANCH  18  20
ATOM     19  N   UNL     1      33.826 -16.657 -24.750  0.00  0.00    -0.239 NA
ATOM     20  C   UNL     1      34.161 -14.886 -23.158  0.00  0.00    +0.158 C 
ATOM     21  C   UNL     1      34.451 -15.801 -22.163  0.00  0.00    +0.040 C 
ATOM     22  C   UNL     1      33.858 -15.345 -24.421  0.00  0.00    +0.136 C 
ATOM     23  C   UNL     1      34.428 -17.159 -22.463  0.00  0.00    +0.022 C 
ATOM     24  C   UNL     1      34.112 -17.531 -23.760  0.00  0.00    +0.099 C 
BRANCH  23  25
ATOM     25  C   UNL     1      34.726 -18.155 -21.450  0.00  0.00    +0.002 C 
ATOM     26  C   UNL     1      33.897 -19.157 -21.069  0.00  0.00    +0.000 C 
BRANCH  26  28
ATOM     27  N   UNL     1      34.788 -22.103 -18.139  0.00  0.00    -0.242 NA
ATOM     28  C   UNL     1      34.206 -20.180 -20.054  0.00  0.00    +0.003 C 
ATOM     29  C   UNL     1      35.516 -20.374 -19.664  0.00  0.00    +0.021 C 
ATOM     30  C   UNL     1      33.180 -20.926 -19.508  0.00  0.00    +0.021 C 
ATOM     31  C   UNL     1      35.754 -21.346 -18.705  0.00  0.00    +0.099 C 
ATOM     32  C   UNL     1      33.523 -21.873 -18.556  0.00  0.00    +0.099 C 
ENDBRANCH  26  28
ENDBRANCH  23  25
ENDBRANCH  18  20
ENDBRANCH  17  18
ENDBRANCH   1  17
TORSDOF 8
ENDMDL
MODEL 4
REMARK VINA RESULT:     -12.2      2.908     10.159
REMARK  Name = 6914613
REMARK  8 active torsions:
REMARK  status: ('A' for Active; 'I' for Inactive)
REMARK    1  A    between atoms: C_1  and  N_2
REMARK    2  A    between atoms: C_1  and  C_6
REMARK    3  A    between atoms: C_1  and  C_17
REMARK    4  A    between atoms: C_6  and  C_8
REMARK    5  A    between atoms: C_17  and  O_18
REMARK    6  A    between atoms: O_18  and  C_20
REMARK    7  A    between atoms: C_23  and  C_25
REMARK    8  A    between atoms: C_26  and  C_28
REMARK                            x       y       z     vdW  Elec       q    Type
REMARK                         _______ _______ _______ _____ _____    ______ ____
ROOT
ATOM      1  C   UNL     1      34.315 -18.935 -21.253  0.00  0.00    -0.017 C 
ENDROOT
BRANCH   1   2
ATOM      2  N   UNL     1      34.169 -19.418 -22.631  0.00  0.00    +0.384 N 
ATOM      3  H   UNL     1      33.582 -20.252 -22.639  0.00  0.00    -0.089 HD
ATOM      4  H   UNL     1      35.088 -19.646 -23.011  0.00  0.00    -0.089 HD
ATOM      5  H   UNL     1      33.737 -18.691 -23.202  0.00  0.00    -0.089 HD
ENDBRANCH   1   2
BRANCH   1   6
ATOM      6  C   UNL     1      35.181 -19.937 -20.445  0.00  0.00    +0.009 C 
BRANCH   6   8
ATOM      7  N   UNL     1      32.770 -21.908 -18.538  0.00  0.00    -0.312 N 
ATOM      8  C   UNL     1      34.421 -20.771 -19.492  0.00  0.00    -0.008 C 
ATOM      9  C   UNL     1      34.911 -21.334 -18.279  0.00  0.00    +0.011 C 
ATOM     10  C   UNL     1      33.856 -22.042 -17.700  0.00  0.00    +0.048 C 
ATOM     11  C   UNL     1      33.103 -21.142 -19.623  0.00  0.00    +0.058 C 
ATOM     12  C   UNL     1      36.154 -21.307 -17.617  0.00  0.00    +0.001 C 
ATOM     13  C   UNL     1      33.982 -22.729 -16.488  0.00  0.00    +0.015 C 
ATOM     14  C   UNL     1      36.296 -21.990 -16.403  0.00  0.00    +0.000 C 
ATOM     15  C   UNL     1      35.226 -22.688 -15.849  0.00  0.00    +0.001 C 
ATOM     16  H   UNL     1      31.884 -22.307 -18.379  0.00  0.00    +0.152 HD
ENDBRANCH   6   8
ENDBRANCH   1   6
BRANCH   1  17
ATOM     17  C   UNL     1      34.894 -17.515 -21.291  0.00  0.00    +0.184 C 
BRANCH  17  18
ATOM     18  O   UNL     1      35.273 -17.133 -22.607  0.00  0.00    -0.476 OA
BRANCH  18  20
ATOM     19  N   UNL     1      33.309 -15.382 -25.128  0.00  0.00    -0.239 NA
ATOM     20  C   UNL     1      34.529 -16.148 -23.203  0.00  0.00    +0.158 C 
ATOM     21  C   UNL     1      34.257 -14.971 -22.531  0.00  0.00    +0.040 C 
ATOM     22  C   UNL     1      34.045 -16.314 -24.482  0.00  0.00    +0.136 C 
ATOM     23  C   UNL     1      33.501 -13.988 -23.163  0.00  0.00    +0.022 C 
ATOM     24  C   UNL     1      33.056 -14.241 -24.450  0.00  0.00    +0.099 C 
BRANCH  23  25
ATOM     25  C   UNL     1      33.191 -12.737 -22.494  0.00  0.00    +0.002 C 
ATOM     26  C   UNL     1      31.947 -12.317 -22.156  0.00  0.00    +0.000 C 
BRANCH  26  28
ATOM     27  N   UNL     1      31.047  -8.680 -20.151  0.00  0.00    -0.242 NA
ATOM     28  C   UNL     1      31.634 -11.056 -21.460  0.00  0.00    +0.003 C 
ATOM     29  C   UNL     1      31.518 -11.051 -20.085  0.00  0.00    +0.021 C 
ATOM     30  C   UNL     1      31.462  -9.900 -22.196  0.00  0.00    +0.021 C 
ATOM     31  C   UNL     1      31.224  -9.840 -19.479  0.00  0.00    +0.099 C 
ATOM     32  C   UNL     1      31.171  -8.741 -21.496  0.00  0.00    +0.099 C 
ENDBRANCH  26  28
ENDBRANCH  23  25
ENDBRANCH  18  20
ENDBRANCH  17  18
ENDBRANCH   1  17
TORSDOF 8
ENDMDL
MODEL 5
REMARK VINA RESULT:     -12.2      3.385      6.845
REMARK  Name = 6914613
REMARK  8 active torsions:
REMARK  status: ('A' for Active; 'I' for Inactive)
REMARK    1  A    between atoms: C_1  and  N_2
REMARK    2  A    between atoms: C_1  and  C_6
REMARK    3  A    between atoms: C_1  and  C_17
REMARK    4  A    between atoms: C_6  and  C_8
REMARK    5  A    between atoms: C_17  and  O_18
REMARK    6  A    between atoms: O_18  and  C_20
REMARK    7  A    between atoms: C_23  and  C_25
REMARK    8  A    between atoms: C_26  and  C_28
REMARK                            x       y       z     vdW  Elec       q    Type
REMARK                         _______ _______ _______ _____ _____    ______ ____
ROOT
ATOM      1  C   UNL     1      32.998 -12.740 -23.284  0.00  0.00    -0.017 C 
ENDROOT
BRANCH   1   2
ATOM      2  N   UNL     1      32.482 -13.313 -24.532  0.00  0.00    +0.384 N 
ATOM      3  H   UNL     1      31.938 -14.150 -24.322  0.00  0.00    -0.089 HD
ATOM      4  H   UNL     1      33.261 -13.559 -25.142  0.00  0.00    -0.089 HD
ATOM      5  H   UNL     1      31.887 -12.629 -25.000  0.00  0.00    -0.089 HD
ENDBRANCH   1   2
BRANCH   1   6
ATOM      6  C   UNL     1      31.824 -12.133 -22.470  0.00  0.00    +0.009 C 
BRANCH   6   8
ATOM      7  N   UNL     1      32.042  -8.515 -22.903  0.00  0.00    -0.312 N 
ATOM      8  C   UNL     1      31.846 -10.661 -22.369  0.00  0.00    -0.008 C 
ATOM      9  C   UNL     1      31.593  -9.887 -21.201  0.00  0.00    +0.011 C 
ATOM     10  C   UNL     1      31.722  -8.544 -21.563  0.00  0.00    +0.048 C 
ATOM     11  C   UNL     1      32.119  -9.789 -23.398  0.00  0.00    +0.058 C 
ATOM     12  C   UNL     1      31.267 -10.200 -19.868  0.00  0.00    +0.001 C 
ATOM     13  C   UNL     1      31.540  -7.495 -20.655  0.00  0.00    +0.015 C 
ATOM     14  C   UNL     1      31.081  -9.162 -18.948  0.00  0.00    +0.000 C 
ATOM     15  C   UNL     1      31.216  -7.832 -19.338  0.00  0.00    +0.001 C 
ATOM     16  H   UNL     1      32.193  -7.695 -23.429  0.00  0.00    +0.152 HD
ENDBRANCH   6   8
ENDBRANCH   1   6
BRANCH   1  17
ATOM     17  C   UNL     1      33.772 -13.828 -22.529  0.00  0.00    +0.184 C 
BRANCH  17  18
ATOM     18  O   UNL     1      34.575 -14.609 -23.404  0.00  0.00    -0.476 OA
BRANCH  18  20
ATOM     19  N   UNL     1      33.508 -17.867 -24.641  0.00  0.00    -0.239 NA
ATOM     20  C   UNL     1      34.328 -15.957 -23.431  0.00  0.00    +0.158 C 
ATOM     21  C   UNL     1      34.624 -16.747 -22.335  0.00  0.00    +0.040 C 
ATOM     22  C   UNL     1      33.779 -16.545 -24.549  0.00  0.00    +0.136 C 
ATOM     23  C   UNL     1      34.359 -18.112 -22.392  0.00  0.00    +0.022 C 
ATOM     24  C   UNL     1      33.806 -18.617 -23.557  0.00  0.00    +0.099 C 
BRANCH  23  25
ATOM     25  C   UNL     1      34.654 -18.978 -21.265  0.00  0.00    +0.002 C 
ATOM     26  C   UNL     1      33.768 -19.811 -20.665  0.00  0.00    +0.000 C 
BRANCH  26  28
ATOM     27  N   UNL     1      34.643 -22.387 -17.400  0.00  0.00    -0.242 NA
ATOM     28  C   UNL     1      34.072 -20.705 -19.534  0.00  0.00    +0.003 C 
ATOM     29  C   UNL     1      35.371 -20.808 -19.079  0.00  0.00    +0.021 C 
ATOM     30  C   UNL     1      33.051 -21.425 -18.945  0.00  0.00    +0.021 C 
ATOM     31  C   UNL     1      35.604 -21.660 -18.012  0.00  0.00    +0.099 C 
ATOM     32  C   UNL     1      33.388 -22.250 -17.884  0.00  0.00    +0.099 C 
ENDBRANCH  26  28
ENDBRANCH  23  25
ENDBRANCH  18  20
ENDBRANCH  17  18
ENDBRANCH   1  17
TORSDOF 8
ENDMDL
MODEL 6
REMARK VINA RESULT:     -12.1      2.953      4.471
REMARK  Name = 6914613
REMARK  8 active torsions:
REMARK  status: ('A' for Active; 'I' for Inactive)
REMARK    1  A    between atoms: C_1  and  N_2
REMARK    2  A    between atoms: C_1  and  C_6
REMARK    3  A    between atoms: C_1  and  C_17
REMARK    4  A    between atoms: C_6  and  C_8
REMARK    5  A    between atoms: C_17  and  O_18
REMARK    6  A    between atoms: O_18  and  C_20
REMARK    7  A    between atoms: C_23  and  C_25
REMARK    8  A    between atoms: C_26  and  C_28
REMARK                            x       y       z     vdW  Elec       q    Type
REMARK                         _______ _______ _______ _____ _____    ______ ____
ROOT
ATOM      1  C   UNL     1      35.774 -17.980 -21.354  0.00  0.00    -0.017 C 
ENDROOT
BRANCH   1   2
ATOM      2  N   UNL     1      37.175 -18.224 -21.717  0.00  0.00    +0.384 N 
ATOM      3  H   UNL     1      37.623 -17.339 -21.956  0.00  0.00    -0.089 HD
ATOM      4  H   UNL     1      37.213 -18.852 -22.520  0.00  0.00    -0.089 HD
ATOM      5  H   UNL     1      37.661 -18.650 -20.929  0.00  0.00    -0.089 HD
ENDBRANCH   1   2
BRANCH   1   6
ATOM      6  C   UNL     1      35.026 -17.365 -22.566  0.00  0.00    +0.009 C 
BRANCH   6   8
ATOM      7  N   UNL     1      33.737 -14.205 -21.267  0.00  0.00    -0.312 N 
ATOM      8  C   UNL     1      34.440 -16.033 -22.312  0.00  0.00    -0.008 C 
ATOM      9  C   UNL     1      33.885 -15.152 -23.283  0.00  0.00    +0.011 C 
ATOM     10  C   UNL     1      33.451 -14.012 -22.601  0.00  0.00    +0.048 C 
ATOM     11  C   UNL     1      34.335 -15.423 -21.083  0.00  0.00    +0.058 C 
ATOM     12  C   UNL     1      33.708 -15.214 -24.679  0.00  0.00    +0.001 C 
ATOM     13  C   UNL     1      32.848 -12.929 -23.247  0.00  0.00    +0.015 C 
ATOM     14  C   UNL     1      33.107 -14.137 -25.340  0.00  0.00    +0.000 C 
ATOM     15  C   UNL     1      32.684 -13.014 -24.633  0.00  0.00    +0.001 C 
ATOM     16  H   UNL     1      33.540 -13.560 -20.550  0.00  0.00    +0.152 HD
ENDBRANCH   6   8
ENDBRANCH   1   6
BRANCH   1  17
ATOM     17  C   UNL     1      35.161 -19.295 -20.857  0.00  0.00    +0.184 C 
BRANCH  17  18
ATOM     18  O   UNL     1      36.011 -19.958 -19.930  0.00  0.00    -0.476 OA
BRANCH  18  20
ATOM     19  N   UNL     1      33.495 -22.108 -18.403  0.00  0.00    -0.239 NA
ATOM     20  C   UNL     1      35.407 -20.786 -19.019  0.00  0.00    +0.158 C 
ATOM     21  C   UNL     1      36.051 -21.125 -17.844  0.00  0.00    +0.040 C 
ATOM     22  C   UNL     1      34.148 -21.290 -19.260  0.00  0.00    +0.136 C 
ATOM     23  C   UNL     1      35.412 -21.965 -16.938  0.00  0.00    +0.022 C 
ATOM     24  C   UNL     1      34.147 -22.424 -17.262  0.00  0.00    +0.099 C 
BRANCH  23  25
ATOM     25  C   UNL     1      36.051 -22.347 -15.692  0.00  0.00    +0.002 C 
ATOM     26  C   UNL     1      35.488 -23.110 -14.724  0.00  0.00    +0.000 C 
BRANCH  26  28
ATOM     27  N   UNL     1      37.376 -24.275 -11.100  0.00  0.00    -0.242 NA
ATOM     28  C   UNL     1      36.143 -23.513 -13.467  0.00  0.00    +0.003 C 
ATOM     29  C   UNL     1      35.994 -22.728 -12.341  0.00  0.00    +0.021 C 
ATOM     30  C   UNL     1      36.895 -24.671 -13.435  0.00  0.00    +0.021 C 
ATOM     31  C   UNL     1      36.629 -23.151 -11.185  0.00  0.00    +0.099 C 
ATOM     32  C   UNL     1      37.490 -25.007 -12.230  0.00  0.00    +0.099 C 
ENDBRANCH  26  28
ENDBRANCH  23  25
ENDBRANCH  18  20
ENDBRANCH  17  18
ENDBRANCH   1  17
TORSDOF 8
ENDMDL
MODEL 7
REMARK VINA RESULT:     -12.0      1.047      1.936
REMARK  Name = 6914613
REMARK  8 active torsions:
REMARK  status: ('A' for Active; 'I' for Inactive)
REMARK    1  A    between atoms: C_1  and  N_2
REMARK    2  A    between atoms: C_1  and  C_6
REMARK    3  A    between atoms: C_1  and  C_17
REMARK    4  A    between atoms: C_6  and  C_8
REMARK    5  A    between atoms: C_17  and  O_18
REMARK    6  A    between atoms: O_18  and  C_20
REMARK    7  A    between atoms: C_23  and  C_25
REMARK    8  A    between atoms: C_26  and  C_28
REMARK                            x       y       z     vdW  Elec       q    Type
REMARK                         _______ _______ _______ _____ _____    ______ ____
ROOT
ATOM      1  C   UNL     1      35.235 -18.080 -21.088  0.00  0.00    -0.017 C 
ENDROOT
BRANCH   1   2
ATOM      2  N   UNL     1      36.664 -18.412 -21.111  0.00  0.00    +0.384 N 
ATOM      3  H   UNL     1      37.157 -17.837 -20.427  0.00  0.00    -0.089 HD
ATOM      4  H   UNL     1      37.041 -18.231 -22.041  0.00  0.00    -0.089 HD
ATOM      5  H   UNL     1      36.788 -19.397 -20.879  0.00  0.00    -0.089 HD
ENDBRANCH   1   2
BRANCH   1   6
ATOM      6  C   UNL     1      34.850 -17.367 -22.411  0.00  0.00    +0.009 C 
BRANCH   6   8
ATOM      7  N   UNL     1      33.728 -14.073 -21.307  0.00  0.00    -0.312 N 
ATOM      8  C   UNL     1      34.338 -15.993 -22.240  0.00  0.00    -0.008 C 
ATOM      9  C   UNL     1      33.843 -15.138 -23.265  0.00  0.00    +0.011 C 
ATOM     10  C   UNL     1      33.467 -13.939 -22.653  0.00  0.00    +0.048 C 
ATOM     11  C   UNL     1      34.254 -15.310 -21.048  0.00  0.00    +0.058 C 
ATOM     12  C   UNL     1      33.678 -15.269 -24.657  0.00  0.00    +0.001 C 
ATOM     13  C   UNL     1      32.933 -12.862 -23.367  0.00  0.00    +0.015 C 
ATOM     14  C   UNL     1      33.145 -14.198 -25.386  0.00  0.00    +0.000 C 
ATOM     15  C   UNL     1      32.779 -13.015 -24.748  0.00  0.00    +0.001 C 
ATOM     16  H   UNL     1      33.560 -13.378 -20.629  0.00  0.00    +0.152 HD
ENDBRANCH   6   8
ENDBRANCH   1   6
BRANCH   1  17
ATOM     17  C   UNL     1      34.438 -19.364 -20.827  0.00  0.00    +0.184 C 
BRANCH  17  18
ATOM     18  O   UNL     1      35.285 -20.447 -20.464  0.00  0.00    -0.476 OA
BRANCH  18  20
ATOM     19  N   UNL     1      35.864 -21.810 -17.134  0.00  0.00    -0.239 NA
ATOM     20  C   UNL     1      35.033 -21.051 -19.259  0.00  0.00    +0.158 C 
ATOM     21  C   UNL     1      33.763 -21.502 -18.952  0.00  0.00    +0.040 C 
ATOM     22  C   UNL     1      36.043 -21.221 -18.338  0.00  0.00    +0.136 C 
ATOM     23  C   UNL     1      33.539 -22.113 -17.723  0.00  0.00    +0.022 C 
ATOM     24  C   UNL     1      34.613 -22.242 -16.858  0.00  0.00    +0.099 C 
BRANCH  23  25
ATOM     25  C   UNL     1      32.222 -22.602 -17.359  0.00  0.00    +0.002 C 
ATOM     26  C   UNL     1      31.730 -22.664 -16.097  0.00  0.00    +0.000 C 
BRANCH  26  28
ATOM     27  N   UNL     1      27.853 -24.040 -15.033  0.00  0.00    -0.242 NA
ATOM     28  C   UNL     1      30.385 -23.142 -15.729  0.00  0.00    +0.003 C 
ATOM     29  C   UNL     1      30.258 -24.220 -14.875  0.00  0.00    +0.021 C 
ATOM     30  C   UNL     1      29.274 -22.504 -16.243  0.00  0.00    +0.021 C 
ATOM     31  C   UNL     1      28.973 -24.629 -14.558  0.00  0.00    +0.099 C 
ATOM     32  C   UNL     1      28.033 -22.990 -15.866  0.00  0.00    +0.099 C 
ENDBRANCH  26  28
ENDBRANCH  23  25
ENDBRANCH  18  20
ENDBRANCH  17  18
ENDBRANCH   1  17
TORSDOF 8
ENDMDL
MODEL 8
REMARK VINA RESULT:     -11.9      4.826      9.143
REMARK  Name = 6914613
REMARK  8 active torsions:
REMARK  status: ('A' for Active; 'I' for Inactive)
REMARK    1  A    between atoms: C_1  and  N_2
REMARK    2  A    between atoms: C_1  and  C_6
REMARK    3  A    between atoms: C_1  and  C_17
REMARK    4  A    between atoms: C_6  and  C_8
REMARK    5  A    between atoms: C_17  and  O_18
REMARK    6  A    between atoms: O_18  and  C_20
REMARK    7  A    between atoms: C_23  and  C_25
REMARK    8  A    between atoms: C_26  and  C_28
REMARK                            x       y       z     vdW  Elec       q    Type
REMARK                         _______ _______ _______ _____ _____    ______ ____
ROOT
ATOM      1  C   UNL     1      31.338 -11.786 -21.932  0.00  0.00    -0.017 C 
ENDROOT
BRANCH   1   2
ATOM      2  N   UNL     1      31.540 -12.724 -20.823  0.00  0.00    +0.384 N 
ATOM      3  H   UNL     1      30.835 -13.460 -20.866  0.00  0.00    -0.089 HD
ATOM      4  H   UNL     1      31.457 -12.226 -19.936  0.00  0.00    -0.089 HD
ATOM      5  H   UNL     1      32.469 -13.139 -20.894  0.00  0.00    -0.089 HD
ENDBRANCH   1   2
BRANCH   1   6
ATOM      6  C   UNL     1      30.350 -10.673 -21.493  0.00  0.00    +0.009 C 
BRANCH   6   8
ATOM      7  N   UNL     1      31.772  -8.486 -18.937  0.00  0.00    -0.312 N 
ATOM      8  C   UNL     1      30.958  -9.605 -20.674  0.00  0.00    -0.008 C 
ATOM      9  C   UNL     1      31.391  -8.328 -21.131  0.00  0.00    +0.011 C 
ATOM     10  C   UNL     1      31.898  -7.646 -20.022  0.00  0.00    +0.048 C 
ATOM     11  C   UNL     1      31.206  -9.672 -19.322  0.00  0.00    +0.058 C 
ATOM     12  C   UNL     1      31.400  -7.685 -22.384  0.00  0.00    +0.001 C 
ATOM     13  C   UNL     1      32.415  -6.348 -20.104  0.00  0.00    +0.015 C 
ATOM     14  C   UNL     1      31.915  -6.387 -22.482  0.00  0.00    +0.000 C 
ATOM     15  C   UNL     1      32.413  -5.731 -21.359  0.00  0.00    +0.001 C 
ATOM     16  H   UNL     1      32.050  -8.266 -18.019  0.00  0.00    +0.152 HD
ENDBRANCH   6   8
ENDBRANCH   1   6
BRANCH   1  17
ATOM     17  C   UNL     1      32.705 -11.253 -22.379  0.00  0.00    +0.184 C 
BRANCH  17  18
ATOM     18  O   UNL     1      32.967 -11.547 -23.745  0.00  0.00    -0.476 OA
BRANCH  18  20
ATOM     19  N   UNL     1      33.097 -14.617 -25.705  0.00  0.00    -0.239 NA
ATOM     20  C   UNL     1      33.186 -12.863 -24.063  0.00  0.00    +0.158 C 
ATOM     21  C   UNL     1      33.687 -13.739 -23.118  0.00  0.00    +0.040 C 
ATOM     22  C   UNL     1      32.907 -13.333 -25.327  0.00  0.00    +0.136 C 
ATOM     23  C   UNL     1      33.897 -15.068 -23.469  0.00  0.00    +0.022 C 
ATOM     24  C   UNL     1      33.588 -15.453 -24.764  0.00  0.00    +0.099 C 
BRANCH  23  25
ATOM     25  C   UNL     1      34.422 -16.022 -22.509  0.00  0.00    +0.002 C 
ATOM     26  C   UNL     1      34.248 -17.366 -22.564  0.00  0.00    +0.000 C 
BRANCH  26  28
ATOM     27  N   UNL     1      35.829 -20.162 -19.782  0.00  0.00    -0.242 NA
ATOM     28  C   UNL     1      34.797 -18.336 -21.600  0.00  0.00    +0.003 C 
ATOM     29  C   UNL     1      36.111 -18.221 -21.195  0.00  0.00    +0.021 C 
ATOM     30  C   UNL     1      33.986 -19.345 -21.117  0.00  0.00    +0.021 C 
ATOM     31  C   UNL     1      36.579 -19.156 -20.286  0.00  0.00    +0.099 C 
ATOM     32  C   UNL     1      34.549 -20.230 -20.212  0.00  0.00    +0.099 C 
ENDBRANCH  26  28
ENDBRANCH  23  25
ENDBRANCH  18  20
ENDBRANCH  17  18
ENDBRANCH   1  17
TORSDOF 8
ENDMDL
MODEL 9
REMARK VINA RESULT:     -11.8      2.803     10.175
REMARK  Name = 6914613
REMARK  8 active torsions:
REMARK  status: ('A' for Active; 'I' for Inactive)
REMARK    1  A    between atoms: C_1  and  N_2
REMARK    2  A    between atoms: C_1  and  C_6
REMARK    3  A    between atoms: C_1  and  C_17
REMARK    4  A    between atoms: C_6  and  C_8
REMARK    5  A    between atoms: C_17  and  O_18
REMARK    6  A    between atoms: O_18  and  C_20
REMARK    7  A    between atoms: C_23  and  C_25
REMARK    8  A    between atoms: C_26  and  C_28
REMARK                            x       y       z     vdW  Elec       q    Type
REMARK                         _______ _______ _______ _____ _____    ______ ____
ROOT
ATOM      1  C   UNL     1      34.825 -18.800 -21.571  0.00  0.00    -0.017 C 
ENDROOT
BRANCH   1   2
ATOM      2  N   UNL     1      35.194 -17.757 -20.607  0.00  0.00    +0.384 N 
ATOM      3  H   UNL     1      34.870 -16.851 -20.946  0.00  0.00    -0.089 HD
ATOM      4  H   UNL     1      36.208 -17.737 -20.498  0.00  0.00    -0.089 HD
ATOM      5  H   UNL     1      34.759 -17.958 -19.707  0.00  0.00    -0.089 HD
ENDBRANCH   1   2
BRANCH   1   6
ATOM      6  C   UNL     1      33.891 -19.830 -20.885  0.00  0.00    +0.009 C 
BRANCH   6   8
ATOM      7  N   UNL     1      36.004 -21.369 -18.336  0.00  0.00    -0.312 N 
ATOM      8  C   UNL     1      34.500 -20.543 -19.744  0.00  0.00    -0.008 C 
ATOM      9  C   UNL     1      33.810 -21.270 -18.732  0.00  0.00    +0.011 C 
ATOM     10  C   UNL     1      34.777 -21.777 -17.861  0.00  0.00    +0.048 C 
ATOM     11  C   UNL     1      35.846 -20.623 -19.473  0.00  0.00    +0.058 C 
ATOM     12  C   UNL     1      32.453 -21.545 -18.473  0.00  0.00    +0.001 C 
ATOM     13  C   UNL     1      34.454 -22.549 -16.739  0.00  0.00    +0.015 C 
ATOM     14  C   UNL     1      32.114 -22.315 -17.354  0.00  0.00    +0.000 C 
ATOM     15  C   UNL     1      33.100 -22.808 -16.503  0.00  0.00    +0.001 C 
ATOM     16  H   UNL     1      36.870 -21.582 -17.917  0.00  0.00    +0.152 HD
ENDBRANCH   6   8
ENDBRANCH   1   6
BRANCH   1  17
ATOM     17  C   UNL     1      34.202 -18.130 -22.803  0.00  0.00    +0.184 C 
BRANCH  17  18
ATOM     18  O   UNL     1      34.975 -17.025 -23.252  0.00  0.00    -0.476 OA
BRANCH  18  20
ATOM     19  N   UNL     1      33.127 -14.799 -25.469  0.00  0.00    -0.239 NA
ATOM     20  C   UNL     1      34.285 -15.922 -23.685  0.00  0.00    +0.158 C 
ATOM     21  C   UNL     1      34.055 -14.859 -22.833  0.00  0.00    +0.040 C 
ATOM     22  C   UNL     1      33.813 -15.857 -24.977  0.00  0.00    +0.136 C 
ATOM     23  C   UNL     1      33.353 -13.753 -23.302  0.00  0.00    +0.022 C 
ATOM     24  C   UNL     1      32.916 -13.773 -24.616  0.00  0.00    +0.099 C 
BRANCH  23  25
ATOM     25  C   UNL     1      33.089 -12.614 -22.442  0.00  0.00    +0.002 C 
ATOM     26  C   UNL     1      31.888 -12.001 -22.299  0.00  0.00    +0.000 C 
BRANCH  26  28
ATOM     27  N   UNL     1      31.098  -8.703 -19.739  0.00  0.00    -0.242 NA
ATOM     28  C   UNL     1      31.615 -10.857 -21.412  0.00  0.00    +0.003 C 
ATOM     29  C   UNL     1      31.436  -9.602 -21.958  0.00  0.00    +0.021 C 
ATOM     30  C   UNL     1      31.542 -11.059 -20.047  0.00  0.00    +0.021 C 
ATOM     31  C   UNL     1      31.180  -8.560 -21.081  0.00  0.00    +0.099 C 
ATOM     32  C   UNL     1      31.282  -9.952 -19.256  0.00  0.00    +0.099 C 
ENDBRANCH  26  28
ENDBRANCH  23  25
ENDBRANCH  18  20
ENDBRANCH  17  18
ENDBRANCH   1  17
TORSDOF 8
ENDMDL
