MODEL 1
REMARK VINA RESULT:     -11.2      0.000      0.000
REMARK  Name = 65954
REMARK  5 active torsions:
REMARK  status: ('A' for Active; 'I' for Inactive)
REMARK    1  A    between atoms: N_2  and  C_24
REMARK    2  A    between atoms: C_19  and  O_22
REMARK    3  A    between atoms: C_24  and  C_25
REMARK    4  A    between atoms: C_25  and  C_26
REMARK    5  A    between atoms: C_26  and  N_27
REMARK                            x       y       z     vdW  Elec       q    Type
REMARK                         _______ _______ _______ _____ _____    ______ ____
ROOT
ATOM      1  N   UNL     1      37.022 -22.690 -14.290  0.00  0.00    -0.353 N 
ATOM      2  N   UNL     1      32.442 -23.781 -13.883  0.00  0.00    -0.318 N 
ATOM      3  N   UNL     1      33.884 -24.221 -12.157  0.00  0.00    -0.230 NA
ATOM      4  C   UNL     1      35.080 -22.612 -15.403  0.00  0.00    +0.020 A 
ATOM      5  C   UNL     1      34.863 -23.204 -14.101  0.00  0.00    +0.048 A 
ATOM      6  C   UNL     1      36.094 -23.234 -13.443  0.00  0.00    +0.057 A 
ATOM      7  C   UNL     1      36.443 -22.307 -15.474  0.00  0.00    +0.057 A 
ATOM      8  C   UNL     1      34.262 -22.295 -16.543  0.00  0.00    +0.002 C 
ATOM      9  C   UNL     1      33.755 -23.719 -13.410  0.00  0.00    +0.130 C 
ATOM     10  C   UNL     1      36.258 -23.744 -12.157  0.00  0.00    +0.013 C 
ATOM     11  C   UNL     1      34.870 -21.693 -17.679  0.00  0.00    +0.003 C 
ATOM     12  C   UNL     1      37.044 -21.715 -16.587  0.00  0.00    +0.017 C 
ATOM     13  C   UNL     1      36.239 -21.415 -17.683  0.00  0.00    +0.002 C 
ATOM     14  C   UNL     1      32.876 -22.558 -16.582  0.00  0.00    +0.003 C 
ATOM     15  C   UNL     1      35.100 -24.224 -11.574  0.00  0.00    +0.097 C 
ATOM     16  C   UNL     1      34.084 -21.378 -18.800  0.00  0.00    +0.037 C 
ATOM     17  C   UNL     1      37.559 -23.788 -11.436  0.00  0.00    +0.034 C 
ATOM     18  C   UNL     1      32.114 -22.237 -17.707  0.00  0.00    +0.037 C 
ATOM     19  C   UNL     1      32.716 -21.648 -18.814  0.00  0.00    +0.134 C 
ATOM     20  H   UNL     1      37.978 -22.587 -14.077  0.00  0.00    +0.166 HD
ATOM     21  H   UNL     1      32.184 -23.191 -14.628  0.00  0.00    +0.148 HD
ENDROOT
BRANCH  19  22
ATOM     22  O   UNL     1      31.972 -21.338 -19.910  0.00  0.00    -0.506 OA
ATOM     23  H   UNL     1      31.805 -21.989 -20.562  0.00  0.00    +0.292 HD
ENDBRANCH  19  22
BRANCH   2  24
ATOM     24  C   UNL     1      31.448 -24.665 -13.339  0.00  0.00    +0.086 C 
BRANCH  24  25
ATOM     25  C   UNL     1      30.042 -24.150 -13.644  0.00  0.00    -0.002 C 
BRANCH  25  26
ATOM     26  C   UNL     1      29.490 -24.572 -15.009  0.00  0.00    -0.076 C 
BRANCH  26  27
ATOM     27  N   UNL     1      29.132 -23.423 -15.831  0.00  0.00    +0.384 N 
ATOM     28  C   UNL     1      29.116 -22.199 -15.027  0.00  0.00    -0.101 C 
ATOM     29  C   UNL     1      27.829 -23.629 -16.466  0.00  0.00    -0.101 C 
ATOM     30  H   UNL     1      29.836 -23.321 -16.562  0.00  0.00    -0.080 HD
ENDBRANCH  26  27
ENDBRANCH  25  26
ENDBRANCH  24  25
ENDBRANCH   2  24
TORSDOF 5
ENDMDL
MODEL 2
REMARK VINA RESULT:     -10.6      2.579      5.149
REMARK  Name = 65954
REMARK  5 active torsions:
REMARK  status: ('A' for Active; 'I' for Inactive)
REMARK    1  A    between atoms: N_2  and  C_24
REMARK    2  A    between atoms: C_19  and  O_22
REMARK    3  A    between atoms: C_24  and  C_25
REMARK    4  A    between atoms: C_25  and  C_26
REMARK    5  A    between atoms: C_26  and  N_27
REMARK                            x       y       z     vdW  Elec       q    Type
REMARK                         _______ _______ _______ _____ _____    ______ ____
ROOT
ATOM      1  N   UNL     1      36.033 -21.367 -17.926  0.00  0.00    -0.353 N 
ATOM      2  N   UNL     1      31.714 -22.668 -16.515  0.00  0.00    -0.318 N 
ATOM      3  N   UNL     1      32.002 -21.673 -18.560  0.00  0.00    -0.230 NA
ATOM      4  C   UNL     1      34.944 -22.323 -16.218  0.00  0.00    +0.020 A 
ATOM      5  C   UNL     1      33.998 -21.980 -17.259  0.00  0.00    +0.048 A 
ATOM      6  C   UNL     1      34.716 -21.389 -18.300  0.00  0.00    +0.057 A 
ATOM      7  C   UNL     1      36.200 -21.921 -16.681  0.00  0.00    +0.057 A 
ATOM      8  C   UNL     1      34.873 -22.938 -14.920  0.00  0.00    +0.002 C 
ATOM      9  C   UNL     1      32.611 -22.108 -17.429  0.00  0.00    +0.130 C 
ATOM     10  C   UNL     1      34.119 -20.932 -19.472  0.00  0.00    +0.013 C 
ATOM     11  C   UNL     1      36.072 -23.107 -14.172  0.00  0.00    +0.003 C 
ATOM     12  C   UNL     1      37.380 -22.085 -15.952  0.00  0.00    +0.017 C 
ATOM     13  C   UNL     1      37.295 -22.682 -14.696  0.00  0.00    +0.002 C 
ATOM     14  C   UNL     1      33.659 -23.382 -14.353  0.00  0.00    +0.003 C 
ATOM     15  C   UNL     1      32.750 -21.109 -19.530  0.00  0.00    +0.097 C 
ATOM     16  C   UNL     1      36.018 -23.706 -12.903  0.00  0.00    +0.037 C 
ATOM     17  C   UNL     1      34.862 -20.298 -20.596  0.00  0.00    +0.034 C 
ATOM     18  C   UNL     1      33.630 -23.973 -13.088  0.00  0.00    +0.037 C 
ATOM     19  C   UNL     1      34.806 -24.135 -12.365  0.00  0.00    +0.134 C 
ATOM     20  H   UNL     1      36.763 -21.002 -18.477  0.00  0.00    +0.166 HD
ATOM     21  H   UNL     1      32.068 -23.269 -15.820  0.00  0.00    +0.148 HD
ENDROOT
BRANCH  19  22
ATOM     22  O   UNL     1      34.774 -24.711 -11.132  0.00  0.00    -0.506 OA
ATOM     23  H   UNL     1      34.064 -25.275 -10.898  0.00  0.00    +0.292 HD
ENDBRANCH  19  22
BRANCH   2  24
ATOM     24  C   UNL     1      30.300 -22.411 -16.538  0.00  0.00    +0.086 C 
BRANCH  24  25
ATOM     25  C   UNL     1      29.728 -22.410 -15.121  0.00  0.00    -0.002 C 
BRANCH  25  26
ATOM     26  C   UNL     1      28.566 -23.383 -14.902  0.00  0.00    -0.076 C 
BRANCH  26  27
ATOM     27  N   UNL     1      28.970 -24.549 -14.126  0.00  0.00    +0.384 N 
ATOM     28  C   UNL     1      30.015 -24.191 -13.164  0.00  0.00    -0.101 C 
ATOM     29  C   UNL     1      29.439 -25.619 -15.009  0.00  0.00    -0.101 C 
ATOM     30  H   UNL     1      28.157 -24.887 -13.611  0.00  0.00    -0.080 HD
ENDBRANCH  26  27
ENDBRANCH  25  26
ENDBRANCH  24  25
ENDBRANCH   2  24
TORSDOF 5
ENDMDL
MODEL 3
REMARK VINA RESULT:     -10.2      2.343      5.291
REMARK  Name = 65954
REMARK  5 active torsions:
REMARK  status: ('A' for Active; 'I' for Inactive)
REMARK    1  A    between atoms: N_2  and  C_24
REMARK    2  A    between atoms: C_19  and  O_22
REMARK    3  A    between atoms: C_24  and  C_25
REMARK    4  A    between atoms: C_25  and  C_26
REMARK    5  A    between atoms: C_26  and  N_27
REMARK                            x       y       z     vdW  Elec       q    Type
REMARK                         _______ _______ _______ _____ _____    ______ ____
ROOT
ATOM      1  N   UNL     1      34.681 -24.331 -12.893  0.00  0.00    -0.353 N 
ATOM      2  N   UNL     1      35.061 -22.107 -17.046  0.00  0.00    -0.318 N 
ATOM      3  N   UNL     1      36.947 -22.713 -15.892  0.00  0.00    -0.230 NA
ATOM      4  C   UNL     1      33.453 -23.452 -14.548  0.00  0.00    +0.020 A 
ATOM      5  C   UNL     1      34.858 -23.282 -14.851  0.00  0.00    +0.048 A 
ATOM      6  C   UNL     1      35.585 -23.841 -13.799  0.00  0.00    +0.057 A 
ATOM      7  C   UNL     1      33.393 -24.112 -13.317  0.00  0.00    +0.057 A 
ATOM      8  C   UNL     1      32.210 -23.116 -15.189  0.00  0.00    +0.002 C 
ATOM      9  C   UNL     1      35.590 -22.714 -15.904  0.00  0.00    +0.130 C 
ATOM     10  C   UNL     1      36.976 -23.854 -13.757  0.00  0.00    +0.013 C 
ATOM     11  C   UNL     1      30.989 -23.466 -14.549  0.00  0.00    +0.003 C 
ATOM     12  C   UNL     1      32.197 -24.458 -12.685  0.00  0.00    +0.017 C 
ATOM     13  C   UNL     1      31.002 -24.126 -13.318  0.00  0.00    +0.002 C 
ATOM     14  C   UNL     1      32.150 -22.451 -16.433  0.00  0.00    +0.003 C 
ATOM     15  C   UNL     1      37.592 -23.267 -14.846  0.00  0.00    +0.097 C 
ATOM     16  C   UNL     1      29.767 -23.145 -15.164  0.00  0.00    +0.037 C 
ATOM     17  C   UNL     1      37.774 -24.443 -12.646  0.00  0.00    +0.034 C 
ATOM     18  C   UNL     1      30.924 -22.140 -17.025  0.00  0.00    +0.037 C 
ATOM     19  C   UNL     1      29.736 -22.486 -16.392  0.00  0.00    +0.134 C 
ATOM     20  H   UNL     1      34.922 -24.780 -12.051  0.00  0.00    +0.166 HD
ATOM     21  H   UNL     1      34.133 -22.315 -17.299  0.00  0.00    +0.148 HD
ENDROOT
BRANCH  19  22
ATOM     22  O   UNL     1      28.542 -22.181 -16.971  0.00  0.00    -0.506 OA
ATOM     23  H   UNL     1      28.091 -21.398 -16.726  0.00  0.00    +0.292 HD
ENDBRANCH  19  22
BRANCH   2  24
ATOM     24  C   UNL     1      35.804 -21.195 -17.872  0.00  0.00    +0.086 C 
BRANCH  24  25
ATOM     25  C   UNL     1      35.333 -21.273 -19.324  0.00  0.00    -0.002 C 
BRANCH  25  26
ATOM     26  C   UNL     1      35.562 -19.996 -20.138  0.00  0.00    -0.076 C 
BRANCH  26  27
ATOM     27  N   UNL     1      34.308 -19.336 -20.480  0.00  0.00    +0.384 N 
ATOM     28  C   UNL     1      33.166 -20.170 -20.100  0.00  0.00    -0.101 C 
ATOM     29  C   UNL     1      34.260 -19.031 -21.911  0.00  0.00    -0.101 C 
ATOM     30  H   UNL     1      34.257 -18.460 -19.961  0.00  0.00    -0.080 HD
ENDBRANCH  26  27
ENDBRANCH  25  26
ENDBRANCH  24  25
ENDBRANCH   2  24
TORSDOF 5
ENDMDL
MODEL 4
REMARK VINA RESULT:      -9.7      3.152      6.577
REMARK  Name = 65954
REMARK  5 active torsions:
REMARK  status: ('A' for Active; 'I' for Inactive)
REMARK    1  A    between atoms: N_2  and  C_24
REMARK    2  A    between atoms: C_19  and  O_22
REMARK    3  A    between atoms: C_24  and  C_25
REMARK    4  A    between atoms: C_25  and  C_26
REMARK    5  A    between atoms: C_26  and  N_27
REMARK                            x       y       z     vdW  Elec       q    Type
REMARK                         _______ _______ _______ _____ _____    ______ ____
ROOT
ATOM      1  N   UNL     1      32.169 -23.543 -13.383  0.00  0.00    -0.353 N 
ATOM      2  N   UNL     1      34.305 -22.289 -17.408  0.00  0.00    -0.318 N 
ATOM      3  N   UNL     1      32.025 -22.147 -17.227  0.00  0.00    -0.230 NA
ATOM      4  C   UNL     1      34.189 -23.384 -14.339  0.00  0.00    +0.020 A 
ATOM      5  C   UNL     1      33.178 -22.953 -15.280  0.00  0.00    +0.048 A 
ATOM      6  C   UNL     1      31.939 -23.068 -14.647  0.00  0.00    +0.057 A 
ATOM      7  C   UNL     1      33.511 -23.742 -13.170  0.00  0.00    +0.057 A 
ATOM      8  C   UNL     1      35.622 -23.511 -14.347  0.00  0.00    +0.002 C 
ATOM      9  C   UNL     1      33.181 -22.478 -16.600  0.00  0.00    +0.130 C 
ATOM     10  C   UNL     1      30.736 -22.737 -15.264  0.00  0.00    +0.013 C 
ATOM     11  C   UNL     1      36.277 -23.991 -13.180  0.00  0.00    +0.003 C 
ATOM     12  C   UNL     1      34.150 -24.213 -12.020  0.00  0.00    +0.017 C 
ATOM     13  C   UNL     1      35.537 -24.330 -12.045  0.00  0.00    +0.002 C 
ATOM     14  C   UNL     1      36.409 -23.179 -15.471  0.00  0.00    +0.003 C 
ATOM     15  C   UNL     1      30.859 -22.281 -16.563  0.00  0.00    +0.097 C 
ATOM     16  C   UNL     1      37.676 -24.119 -13.174  0.00  0.00    +0.037 C 
ATOM     17  C   UNL     1      29.403 -22.851 -14.612  0.00  0.00    +0.034 C 
ATOM     18  C   UNL     1      37.798 -23.316 -15.443  0.00  0.00    +0.037 C 
ATOM     19  C   UNL     1      38.430 -23.785 -14.297  0.00  0.00    +0.134 C 
ATOM     20  H   UNL     1      31.466 -23.719 -12.717  0.00  0.00    +0.166 HD
ATOM     21  H   UNL     1      35.185 -22.208 -16.974  0.00  0.00    +0.148 HD
ENDROOT
BRANCH  19  22
ATOM     22  O   UNL     1      39.784 -23.920 -14.273  0.00  0.00    -0.506 OA
ATOM     23  H   UNL     1      40.222 -24.104 -13.466  0.00  0.00    +0.292 HD
ENDBRANCH  19  22
BRANCH   2  24
ATOM     24  C   UNL     1      34.243 -22.205 -18.842  0.00  0.00    +0.086 C 
BRANCH  24  25
ATOM     25  C   UNL     1      34.900 -20.918 -19.338  0.00  0.00    -0.002 C 
BRANCH  25  26
ATOM     26  C   UNL     1      34.042 -20.096 -20.304  0.00  0.00    -0.076 C 
BRANCH  26  27
ATOM     27  N   UNL     1      34.733 -18.895 -20.759  0.00  0.00    +0.384 N 
ATOM     28  C   UNL     1      34.430 -18.627 -22.166  0.00  0.00    -0.101 C 
ATOM     29  C   UNL     1      36.179 -19.028 -20.568  0.00  0.00    -0.101 C 
ATOM     30  H   UNL     1      34.405 -18.107 -20.200  0.00  0.00    -0.080 HD
ENDBRANCH  26  27
ENDBRANCH  25  26
ENDBRANCH  24  25
ENDBRANCH   2  24
TORSDOF 5
ENDMDL
MODEL 5
REMARK VINA RESULT:      -9.3      3.100      6.259
REMARK  Name = 65954
REMARK  5 active torsions:
REMARK  status: ('A' for Active; 'I' for Inactive)
REMARK    1  A    between atoms: N_2  and  C_24
REMARK    2  A    between atoms: C_19  and  O_22
REMARK    3  A    between atoms: C_24  and  C_25
REMARK    4  A    between atoms: C_25  and  C_26
REMARK    5  A    between atoms: C_26  and  N_27
REMARK                            x       y       z     vdW  Elec       q    Type
REMARK                         _______ _______ _______ _____ _____    ______ ____
ROOT
ATOM      1  N   UNL     1      34.667 -22.702 -14.691  0.00  0.00    -0.353 N 
ATOM      2  N   UNL     1      32.535 -21.770 -18.805  0.00  0.00    -0.318 N 
ATOM      3  N   UNL     1      34.813 -21.595 -18.628  0.00  0.00    -0.230 NA
ATOM      4  C   UNL     1      32.649 -22.630 -15.661  0.00  0.00    +0.020 A 
ATOM      5  C   UNL     1      33.660 -22.262 -16.629  0.00  0.00    +0.048 A 
ATOM      6  C   UNL     1      34.897 -22.320 -15.986  0.00  0.00    +0.057 A 
ATOM      7  C   UNL     1      33.326 -22.895 -14.467  0.00  0.00    +0.057 A 
ATOM      8  C   UNL     1      31.217 -22.769 -15.664  0.00  0.00    +0.002 C 
ATOM      9  C   UNL     1      33.657 -21.887 -17.981  0.00  0.00    +0.130 C 
ATOM     10  C   UNL     1      36.100 -22.025 -16.622  0.00  0.00    +0.013 C 
ATOM     11  C   UNL     1      30.561 -23.166 -14.466  0.00  0.00    +0.003 C 
ATOM     12  C   UNL     1      32.687 -23.286 -13.288  0.00  0.00    +0.017 C 
ATOM     13  C   UNL     1      31.301 -23.416 -13.307  0.00  0.00    +0.002 C 
ATOM     14  C   UNL     1      30.431 -22.527 -16.812  0.00  0.00    +0.003 C 
ATOM     15  C   UNL     1      35.978 -21.667 -17.952  0.00  0.00    +0.097 C 
ATOM     16  C   UNL     1      29.164 -23.307 -14.455  0.00  0.00    +0.037 C 
ATOM     17  C   UNL     1      37.431 -22.077 -15.958  0.00  0.00    +0.034 C 
ATOM     18  C   UNL     1      29.043 -22.672 -16.777  0.00  0.00    +0.037 C 
ATOM     19  C   UNL     1      28.411 -23.061 -15.601  0.00  0.00    +0.134 C 
ATOM     20  H   UNL     1      35.369 -22.822 -14.011  0.00  0.00    +0.166 HD
ATOM     21  H   UNL     1      31.708 -22.235 -18.539  0.00  0.00    +0.148 HD
ENDROOT
BRANCH  19  22
ATOM     22  O   UNL     1      27.057 -23.200 -15.570  0.00  0.00    -0.506 OA
ATOM     23  H   UNL     1      26.668 -23.865 -15.039  0.00  0.00    +0.292 HD
ENDBRANCH  19  22
BRANCH   2  24
ATOM     24  C   UNL     1      32.524 -21.005 -20.021  0.00  0.00    +0.086 C 
BRANCH  24  25
ATOM     25  C   UNL     1      33.307 -19.704 -19.849  0.00  0.00    -0.002 C 
BRANCH  25  26
ATOM     26  C   UNL     1      34.232 -19.356 -21.019  0.00  0.00    -0.076 C 
BRANCH  26  27
ATOM     27  N   UNL     1      35.110 -18.236 -20.705  0.00  0.00    +0.384 N 
ATOM     28  C   UNL     1      34.620 -17.006 -21.331  0.00  0.00    -0.101 C 
ATOM     29  C   UNL     1      36.480 -18.516 -21.140  0.00  0.00    -0.101 C 
ATOM     30  H   UNL     1      35.112 -18.106 -19.693  0.00  0.00    -0.080 HD
ENDBRANCH  26  27
ENDBRANCH  25  26
ENDBRANCH  24  25
ENDBRANCH   2  24
TORSDOF 5
ENDMDL
MODEL 6
REMARK VINA RESULT:      -9.2      2.658      6.869
REMARK  Name = 65954
REMARK  5 active torsions:
REMARK  status: ('A' for Active; 'I' for Inactive)
REMARK    1  A    between atoms: N_2  and  C_24
REMARK    2  A    between atoms: C_19  and  O_22
REMARK    3  A    between atoms: C_24  and  C_25
REMARK    4  A    between atoms: C_25  and  C_26
REMARK    5  A    between atoms: C_26  and  N_27
REMARK                            x       y       z     vdW  Elec       q    Type
REMARK                         _______ _______ _______ _____ _____    ______ ____
ROOT
ATOM      1  N   UNL     1      32.038 -21.513 -18.411  0.00  0.00    -0.353 N 
ATOM      2  N   UNL     1      35.208 -23.020 -15.246  0.00  0.00    -0.318 N 
ATOM      3  N   UNL     1      35.910 -22.034 -17.192  0.00  0.00    -0.230 NA
ATOM      4  C   UNL     1      32.205 -22.508 -16.411  0.00  0.00    +0.020 A 
ATOM      5  C   UNL     1      33.531 -22.225 -16.918  0.00  0.00    +0.048 A 
ATOM      6  C   UNL     1      33.382 -21.608 -18.161  0.00  0.00    +0.057 A 
ATOM      7  C   UNL     1      31.307 -22.045 -17.378  0.00  0.00    +0.057 A 
ATOM      8  C   UNL     1      31.660 -23.112 -15.226  0.00  0.00    +0.002 C 
ATOM      9  C   UNL     1      34.840 -22.426 -16.456  0.00  0.00    +0.130 C 
ATOM     10  C   UNL     1      34.460 -21.195 -18.940  0.00  0.00    +0.013 C 
ATOM     11  C   UNL     1      30.247 -23.211 -15.091  0.00  0.00    +0.003 C 
ATOM     12  C   UNL     1      29.920 -22.138 -17.250  0.00  0.00    +0.017 C 
ATOM     13  C   UNL     1      29.407 -22.726 -16.096  0.00  0.00    +0.002 C 
ATOM     14  C   UNL     1      32.471 -23.614 -14.184  0.00  0.00    +0.003 C 
ATOM     15  C   UNL     1      35.701 -21.444 -18.387  0.00  0.00    +0.097 C 
ATOM     16  C   UNL     1      29.700 -23.798 -13.938  0.00  0.00    +0.037 C 
ATOM     17  C   UNL     1      34.327 -20.536 -20.269  0.00  0.00    +0.034 C 
ATOM     18  C   UNL     1      31.905 -24.195 -13.048  0.00  0.00    +0.037 C 
ATOM     19  C   UNL     1      30.523 -24.287 -12.925  0.00  0.00    +0.134 C 
ATOM     20  H   UNL     1      31.649 -21.115 -19.224  0.00  0.00    +0.166 HD
ATOM     21  H   UNL     1      34.540 -23.064 -14.524  0.00  0.00    +0.148 HD
ENDROOT
BRANCH  19  22
ATOM     22  O   UNL     1      29.975 -24.855 -11.816  0.00  0.00    -0.506 OA
ATOM     23  H   UNL     1      29.600 -25.711 -11.867  0.00  0.00    +0.292 HD
ENDBRANCH  19  22
BRANCH   2  24
ATOM     24  C   UNL     1      36.512 -23.573 -15.001  0.00  0.00    +0.086 C 
BRANCH  24  25
ATOM     25  C   UNL     1      36.402 -24.943 -14.334  0.00  0.00    -0.002 C 
BRANCH  25  26
ATOM     26  C   UNL     1      37.576 -25.886 -14.618  0.00  0.00    -0.076 C 
BRANCH  26  27
ATOM     27  N   UNL     1      38.543 -25.897 -13.528  0.00  0.00    +0.384 N 
ATOM     28  C   UNL     1      37.936 -25.388 -12.296  0.00  0.00    -0.101 C 
ATOM     29  C   UNL     1      39.722 -25.103 -13.877  0.00  0.00    -0.101 C 
ATOM     30  H   UNL     1      38.836 -26.861 -13.371  0.00  0.00    -0.080 HD
ENDBRANCH  26  27
ENDBRANCH  25  26
ENDBRANCH  24  25
ENDBRANCH   2  24
TORSDOF 5
ENDMDL
MODEL 7
REMARK VINA RESULT:      -8.6      1.272      1.677
REMARK  Name = 65954
REMARK  5 active torsions:
REMARK  status: ('A' for Active; 'I' for Inactive)
REMARK    1  A    between atoms: N_2  and  C_24
REMARK    2  A    between atoms: C_19  and  O_22
REMARK    3  A    between atoms: C_24  and  C_25
REMARK    4  A    between atoms: C_25  and  C_26
REMARK    5  A    between atoms: C_26  and  N_27
REMARK                            x       y       z     vdW  Elec       q    Type
REMARK                         _______ _______ _______ _____ _____    ______ ____
ROOT
ATOM      1  N   UNL     1      36.763 -22.519 -16.015  0.00  0.00    -0.353 N 
ATOM      2  N   UNL     1      32.130 -23.031 -15.233  0.00  0.00    -0.318 N 
ATOM      3  N   UNL     1      33.645 -23.791 -13.690  0.00  0.00    -0.230 NA
ATOM      4  C   UNL     1      34.759 -22.099 -16.923  0.00  0.00    +0.020 A 
ATOM      5  C   UNL     1      34.579 -22.760 -15.649  0.00  0.00    +0.048 A 
ATOM      6  C   UNL     1      35.847 -23.003 -15.118  0.00  0.00    +0.057 A 
ATOM      7  C   UNL     1      36.139 -21.970 -17.108  0.00  0.00    +0.057 A 
ATOM      8  C   UNL     1      33.895 -21.588 -17.953  0.00  0.00    +0.002 C 
ATOM      9  C   UNL     1      33.476 -23.178 -14.888  0.00  0.00    +0.130 C 
ATOM     10  C   UNL     1      36.053 -23.630 -13.892  0.00  0.00    +0.013 C 
ATOM     11  C   UNL     1      34.477 -20.983 -19.102  0.00  0.00    +0.003 C 
ATOM     12  C   UNL     1      36.715 -21.376 -18.232  0.00  0.00    +0.017 C 
ATOM     13  C   UNL     1      35.865 -20.887 -19.221  0.00  0.00    +0.002 C 
ATOM     14  C   UNL     1      32.488 -21.664 -17.874  0.00  0.00    +0.003 C 
ATOM     15  C   UNL     1      34.896 -23.999 -13.232  0.00  0.00    +0.097 C 
ATOM     16  C   UNL     1      33.645 -20.479 -20.116  0.00  0.00    +0.037 C 
ATOM     17  C   UNL     1      37.394 -23.901 -13.307  0.00  0.00    +0.034 C 
ATOM     18  C   UNL     1      31.681 -21.158 -18.895  0.00  0.00    +0.037 C 
ATOM     19  C   UNL     1      32.258 -20.567 -20.013  0.00  0.00    +0.134 C 
ATOM     20  H   UNL     1      37.739 -22.559 -15.891  0.00  0.00    +0.166 HD
ATOM     21  H   UNL     1      31.891 -22.355 -15.908  0.00  0.00    +0.148 HD
ENDROOT
BRANCH  19  22
ATOM     22  O   UNL     1      31.469 -20.076 -21.007  0.00  0.00    -0.506 OA
ATOM     23  H   UNL     1      30.591 -20.387 -21.104  0.00  0.00    +0.292 HD
ENDBRANCH  19  22
BRANCH   2  24
ATOM     24  C   UNL     1      31.076 -23.817 -14.654  0.00  0.00    +0.086 C 
BRANCH  24  25
ATOM     25  C   UNL     1      29.730 -23.109 -14.800  0.00  0.00    -0.002 C 
BRANCH  25  26
ATOM     26  C   UNL     1      29.435 -22.586 -16.209  0.00  0.00    -0.076 C 
BRANCH  26  27
ATOM     27  N   UNL     1      28.005 -22.560 -16.492  0.00  0.00    +0.384 N 
ATOM     28  C   UNL     1      27.268 -21.977 -15.369  0.00  0.00    -0.101 C 
ATOM     29  C   UNL     1      27.511 -23.909 -16.777  0.00  0.00    -0.101 C 
ATOM     30  H   UNL     1      27.853 -21.979 -17.316  0.00  0.00    -0.080 HD
ENDBRANCH  26  27
ENDBRANCH  25  26
ENDBRANCH  24  25
ENDBRANCH   2  24
TORSDOF 5
ENDMDL
MODEL 8
REMARK VINA RESULT:      -8.6      2.403      5.834
REMARK  Name = 65954
REMARK  5 active torsions:
REMARK  status: ('A' for Active; 'I' for Inactive)
REMARK    1  A    between atoms: N_2  and  C_24
REMARK    2  A    between atoms: C_19  and  O_22
REMARK    3  A    between atoms: C_24  and  C_25
REMARK    4  A    between atoms: C_25  and  C_26
REMARK    5  A    between atoms: C_26  and  N_27
REMARK                            x       y       z     vdW  Elec       q    Type
REMARK                         _______ _______ _______ _____ _____    ______ ____
ROOT
ATOM      1  N   UNL     1      34.379 -21.881 -16.839  0.00  0.00    -0.353 N 
ATOM      2  N   UNL     1      34.727 -23.722 -12.500  0.00  0.00    -0.318 N 
ATOM      3  N   UNL     1      36.548 -22.729 -13.474  0.00  0.00    -0.230 NA
ATOM      4  C   UNL     1      33.189 -22.949 -15.270  0.00  0.00    +0.020 A 
ATOM      5  C   UNL     1      34.541 -22.750 -14.793  0.00  0.00    +0.048 A 
ATOM      6  C   UNL     1      35.246 -22.084 -15.797  0.00  0.00    +0.057 A 
ATOM      7  C   UNL     1      33.137 -22.389 -16.550  0.00  0.00    +0.057 A 
ATOM      8  C   UNL     1      31.989 -23.548 -14.751  0.00  0.00    +0.002 C 
ATOM      9  C   UNL     1      35.242 -23.063 -13.619  0.00  0.00    +0.130 C 
ATOM     10  C   UNL     1      36.587 -21.728 -15.678  0.00  0.00    +0.013 C 
ATOM     11  C   UNL     1      30.815 -23.546 -15.555  0.00  0.00    +0.003 C 
ATOM     12  C   UNL     1      31.987 -22.383 -17.343  0.00  0.00    +0.017 C 
ATOM     13  C   UNL     1      30.833 -22.968 -16.827  0.00  0.00    +0.002 C 
ATOM     14  C   UNL     1      31.926 -24.143 -13.472  0.00  0.00    +0.003 C 
ATOM     15  C   UNL     1      37.175 -22.087 -14.480  0.00  0.00    +0.097 C 
ATOM     16  C   UNL     1      29.636 -24.127 -15.061  0.00  0.00    +0.037 C 
ATOM     17  C   UNL     1      37.360 -21.019 -16.734  0.00  0.00    +0.034 C 
ATOM     18  C   UNL     1      30.742 -24.716 -13.003  0.00  0.00    +0.037 C 
ATOM     19  C   UNL     1      29.600 -24.708 -13.795  0.00  0.00    +0.134 C 
ATOM     20  H   UNL     1      34.615 -21.429 -17.681  0.00  0.00    +0.166 HD
ATOM     21  H   UNL     1      33.750 -23.738 -12.374  0.00  0.00    +0.148 HD
ENDROOT
BRANCH  19  22
ATOM     22  O   UNL     1      28.448 -25.269 -13.335  0.00  0.00    -0.506 OA
ATOM     23  H   UNL     1      28.012 -24.900 -12.593  0.00  0.00    +0.292 HD
ENDBRANCH  19  22
BRANCH   2  24
ATOM     24  C   UNL     1      35.550 -24.378 -11.521  0.00  0.00    +0.086 C 
BRANCH  24  25
ATOM     25  C   UNL     1      36.241 -25.599 -12.126  0.00  0.00    -0.002 C 
BRANCH  25  26
ATOM     26  C   UNL     1      37.761 -25.467 -12.265  0.00  0.00    -0.076 C 
BRANCH  26  27
ATOM     27  N   UNL     1      38.163 -25.224 -13.645  0.00  0.00    +0.384 N 
ATOM     28  C   UNL     1      37.429 -26.102 -14.559  0.00  0.00    -0.101 C 
ATOM     29  C   UNL     1      39.605 -25.418 -13.804  0.00  0.00    -0.101 C 
ATOM     30  H   UNL     1      37.940 -24.256 -13.876  0.00  0.00    -0.080 HD
ENDBRANCH  26  27
ENDBRANCH  25  26
ENDBRANCH  24  25
ENDBRANCH   2  24
TORSDOF 5
ENDMDL
