MODEL 1
REMARK VINA RESULT:     -12.9      0.000      0.000
REMARK  Name = 5288712
REMARK  5 active torsions:
REMARK  status: ('A' for Active; 'I' for Inactive)
REMARK    1  A    between atoms: C_1  and  N_18
REMARK    2  A    between atoms: C_2  and  S_7
REMARK    3  A    between atoms: S_7  and  N_10
REMARK    4  A    between atoms: N_10  and  C_13
REMARK    5  A    between atoms: N_18  and  C_26
REMARK                            x       y       z     vdW  Elec       q    Type
REMARK                         _______ _______ _______ _____ _____    ______ ____
ROOT
ATOM      1  C   UNL     1      34.759 -19.077 -21.050  0.00  0.00    +0.048 C 
ATOM      2  C   UNL     1      33.919 -21.121 -19.338  0.00  0.00    +0.129 C 
ATOM      3  C   UNL     1      35.694 -19.794 -20.300  0.00  0.00    +0.016 C 
ATOM      4  C   UNL     1      33.400 -19.388 -20.939  0.00  0.00    +0.016 C 
ATOM      5  C   UNL     1      35.275 -20.814 -19.446  0.00  0.00    +0.022 C 
ATOM      6  C   UNL     1      32.981 -20.407 -20.084  0.00  0.00    +0.022 C 
ENDROOT
BRANCH   2   7
ATOM      7  S   UNL     1      33.394 -22.397 -18.268  0.00  0.00    +0.103 S 
ATOM      8  O   UNL     1      34.238 -22.357 -17.078  0.00  0.00    -0.146 OA
ATOM      9  O   UNL     1      33.350 -23.611 -19.074  0.00  0.00    -0.146 OA
BRANCH   7  10
ATOM     10  N   UNL     1      31.876 -21.955 -17.841  0.00  0.00    -0.093 NA
BRANCH  10  13
ATOM     11  N   UNL     1      31.894 -23.065 -15.709  0.00  0.00    -0.369 N 
ATOM     12  N   UNL     1      29.939 -22.286 -16.591  0.00  0.00    -0.369 N 
ATOM     13  C   UNL     1      31.295 -22.418 -16.766  0.00  0.00    +0.212 C 
ATOM     14  H   UNL     1      32.865 -23.222 -15.714  0.00  0.00    +0.159 HD
ATOM     15  H   UNL     1      31.350 -23.371 -14.948  0.00  0.00    +0.159 HD
ATOM     16  H   UNL     1      29.394 -21.838 -17.279  0.00  0.00    +0.159 HD
ATOM     17  H   UNL     1      29.511 -22.637 -15.778  0.00  0.00    +0.159 HD
ENDBRANCH  10  13
ENDBRANCH   7  10
ENDBRANCH   2   7
BRANCH   1  18
ATOM     18  N   UNL     1      35.180 -18.050 -21.911  0.00  0.00    -0.311 N 
ATOM     19  H   UNL     1      35.817 -18.317 -22.613  0.00  0.00    +0.152 HD
BRANCH  18  26
ATOM     20  O   UNL     1      33.986 -17.808 -24.542  0.00  0.00    -0.270 OA
ATOM     21  N   UNL     1      33.233 -15.596 -24.888  0.00  0.00    -0.280 N 
ATOM     22  C   UNL     1      33.834 -14.644 -22.883  0.00  0.00    +0.019 C 
ATOM     23  C   UNL     1      34.221 -16.050 -22.874  0.00  0.00    +0.069 C 
ATOM     24  C   UNL     1      33.239 -14.420 -24.128  0.00  0.00    +0.051 C 
ATOM     25  C   UNL     1      33.821 -16.655 -24.190  0.00  0.00    +0.251 C 
ATOM     26  C   UNL     1      34.825 -16.741 -21.906  0.00  0.00    +0.066 C 
ATOM     27  C   UNL     1      33.951 -13.619 -21.963  0.00  0.00    +0.001 C 
ATOM     28  C   UNL     1      32.743 -13.187 -24.500  0.00  0.00    +0.015 C 
ATOM     29  C   UNL     1      33.455 -12.360 -22.319  0.00  0.00    +0.000 C 
ATOM     30  C   UNL     1      32.857 -12.146 -23.575  0.00  0.00    +0.001 C 
ATOM     31  H   UNL     1      32.862 -15.667 -25.798  0.00  0.00    +0.155 HD
ENDBRANCH  18  26
ENDBRANCH   1  18
TORSDOF 5
ENDMDL
MODEL 2
REMARK VINA RESULT:     -12.8      1.123      1.740
REMARK  Name = 5288712
REMARK  5 active torsions:
REMARK  status: ('A' for Active; 'I' for Inactive)
REMARK    1  A    between atoms: C_1  and  N_18
REMARK    2  A    between atoms: C_2  and  S_7
REMARK    3  A    between atoms: S_7  and  N_10
REMARK    4  A    between atoms: N_10  and  C_13
REMARK    5  A    between atoms: N_18  and  C_26
REMARK                            x       y       z     vdW  Elec       q    Type
REMARK                         _______ _______ _______ _____ _____    ______ ____
ROOT
ATOM      1  C   UNL     1      34.781 -19.131 -20.950  0.00  0.00    +0.048 C 
ATOM      2  C   UNL     1      33.808 -21.169 -19.303  0.00  0.00    +0.129 C 
ATOM      3  C   UNL     1      33.408 -19.370 -20.865  0.00  0.00    +0.016 C 
ATOM      4  C   UNL     1      35.667 -19.916 -20.206  0.00  0.00    +0.016 C 
ATOM      5  C   UNL     1      32.922 -20.387 -20.043  0.00  0.00    +0.022 C 
ATOM      6  C   UNL     1      35.181 -20.934 -19.384  0.00  0.00    +0.022 C 
ENDROOT
BRANCH   2   7
ATOM      7  S   UNL     1      33.201 -22.442 -18.274  0.00  0.00    +0.103 S 
ATOM      8  O   UNL     1      33.346 -23.704 -18.993  0.00  0.00    -0.146 OA
ATOM      9  O   UNL     1      31.877 -22.016 -17.838  0.00  0.00    -0.146 OA
BRANCH   7  10
ATOM     10  N   UNL     1      34.232 -22.449 -17.003  0.00  0.00    -0.093 NA
BRANCH  10  13
ATOM     11  N   UNL     1      32.688 -23.302 -15.370  0.00  0.00    -0.369 N 
ATOM     12  N   UNL     1      34.540 -22.142 -14.714  0.00  0.00    -0.369 N 
ATOM     13  C   UNL     1      33.821 -22.635 -15.776  0.00  0.00    +0.212 C 
ATOM     14  H   UNL     1      32.086 -23.702 -16.038  0.00  0.00    +0.159 HD
ATOM     15  H   UNL     1      32.479 -23.378 -14.411  0.00  0.00    +0.159 HD
ATOM     16  H   UNL     1      35.376 -21.645 -14.874  0.00  0.00    +0.159 HD
ATOM     17  H   UNL     1      34.222 -22.288 -13.795  0.00  0.00    +0.159 HD
ENDBRANCH  10  13
ENDBRANCH   7  10
ENDBRANCH   2   7
BRANCH   1  18
ATOM     18  N   UNL     1      35.271 -18.106 -21.777  0.00  0.00    -0.311 N 
ATOM     19  H   UNL     1      35.968 -18.373 -22.418  0.00  0.00    +0.152 HD
BRANCH  18  26
ATOM     20  O   UNL     1      34.001 -17.966 -24.380  0.00  0.00    -0.270 OA
ATOM     21  N   UNL     1      33.229 -15.771 -24.786  0.00  0.00    -0.280 N 
ATOM     22  C   UNL     1      33.882 -14.743 -22.835  0.00  0.00    +0.019 C 
ATOM     23  C   UNL     1      34.275 -16.147 -22.785  0.00  0.00    +0.069 C 
ATOM     24  C   UNL     1      33.250 -14.568 -24.070  0.00  0.00    +0.051 C 
ATOM     25  C   UNL     1      33.842 -16.801 -24.065  0.00  0.00    +0.251 C 
ATOM     26  C   UNL     1      34.910 -16.798 -21.810  0.00  0.00    +0.066 C 
ATOM     27  C   UNL     1      34.020 -13.684 -21.957  0.00  0.00    +0.001 C 
ATOM     28  C   UNL     1      32.739 -13.351 -24.473  0.00  0.00    +0.015 C 
ATOM     29  C   UNL     1      33.508 -12.442 -22.345  0.00  0.00    +0.000 C 
ATOM     30  C   UNL     1      32.874 -12.276 -23.591  0.00  0.00    +0.001 C 
ATOM     31  H   UNL     1      32.832 -15.877 -25.681  0.00  0.00    +0.155 HD
ENDBRANCH  18  26
ENDBRANCH   1  18
TORSDOF 5
ENDMDL
MODEL 3
REMARK VINA RESULT:     -12.3      2.687      9.413
REMARK  Name = 5288712
REMARK  5 active torsions:
REMARK  status: ('A' for Active; 'I' for Inactive)
REMARK    1  A    between atoms: C_1  and  N_18
REMARK    2  A    between atoms: C_2  and  S_7
REMARK    3  A    between atoms: S_7  and  N_10
REMARK    4  A    between atoms: N_10  and  C_13
REMARK    5  A    between atoms: N_18  and  C_26
REMARK                            x       y       z     vdW  Elec       q    Type
REMARK                         _______ _______ _______ _____ _____    ______ ____
ROOT
ATOM      1  C   UNL     1      33.954 -21.525 -19.346  0.00  0.00    +0.048 C 
ATOM      2  C   UNL     1      34.770 -19.204 -20.672  0.00  0.00    +0.129 C 
ATOM      3  C   UNL     1      35.311 -21.208 -19.436  0.00  0.00    +0.016 C 
ATOM      4  C   UNL     1      33.006 -20.674 -19.922  0.00  0.00    +0.016 C 
ATOM      5  C   UNL     1      35.719 -20.050 -20.098  0.00  0.00    +0.022 C 
ATOM      6  C   UNL     1      33.413 -19.516 -20.584  0.00  0.00    +0.022 C 
ENDROOT
BRANCH   2   7
ATOM      7  S   UNL     1      35.280 -17.754 -21.501  0.00  0.00    +0.103 S 
ATOM      8  O   UNL     1      36.662 -17.947 -21.928  0.00  0.00    -0.146 OA
ATOM      9  O   UNL     1      34.953 -16.643 -20.615  0.00  0.00    -0.146 OA
BRANCH   7  10
ATOM     10  N   UNL     1      34.329 -17.705 -22.832  0.00  0.00    -0.093 NA
BRANCH  10  13
ATOM     11  N   UNL     1      33.472 -16.480 -24.715  0.00  0.00    -0.369 N 
ATOM     12  N   UNL     1      34.948 -15.503 -23.274  0.00  0.00    -0.369 N 
ATOM     13  C   UNL     1      34.237 -16.638 -23.581  0.00  0.00    +0.212 C 
ATOM     14  H   UNL     1      32.915 -17.223 -25.041  0.00  0.00    +0.159 HD
ATOM     15  H   UNL     1      33.484 -15.624 -25.200  0.00  0.00    +0.159 HD
ATOM     16  H   UNL     1      35.534 -15.488 -22.483  0.00  0.00    +0.159 HD
ATOM     17  H   UNL     1      34.871 -14.705 -23.845  0.00  0.00    +0.159 HD
ENDBRANCH  10  13
ENDBRANCH   7  10
ENDBRANCH   2   7
BRANCH   1  18
ATOM     18  N   UNL     1      33.543 -22.691 -18.678  0.00  0.00    -0.311 N 
ATOM     19  H   UNL     1      34.024 -23.514 -18.923  0.00  0.00    +0.152 HD
BRANCH  18  26
ATOM     20  O   UNL     1      35.122 -22.583 -16.249  0.00  0.00    -0.270 OA
ATOM     21  N   UNL     1      33.717 -22.805 -14.362  0.00  0.00    -0.280 N 
ATOM     22  C   UNL     1      31.674 -23.011 -15.398  0.00  0.00    +0.019 C 
ATOM     23  C   UNL     1      32.708 -22.858 -16.415  0.00  0.00    +0.069 C 
ATOM     24  C   UNL     1      32.341 -22.972 -14.169  0.00  0.00    +0.051 C 
ATOM     25  C   UNL     1      34.033 -22.726 -15.722  0.00  0.00    +0.251 C 
ATOM     26  C   UNL     1      32.571 -22.834 -17.742  0.00  0.00    +0.066 C 
ATOM     27  C   UNL     1      30.302 -23.171 -15.451  0.00  0.00    +0.001 C 
ATOM     28  C   UNL     1      31.678 -23.087 -12.964  0.00  0.00    +0.015 C 
ATOM     29  C   UNL     1      29.611 -23.289 -14.240  0.00  0.00    +0.000 C 
ATOM     30  C   UNL     1      30.291 -23.248 -13.009  0.00  0.00    +0.001 C 
ATOM     31  H   UNL     1      34.378 -22.751 -13.633  0.00  0.00    +0.155 HD
ENDBRANCH  18  26
ENDBRANCH   1  18
TORSDOF 5
ENDMDL
MODEL 4
REMARK VINA RESULT:     -12.3      1.752      2.502
REMARK  Name = 5288712
REMARK  5 active torsions:
REMARK  status: ('A' for Active; 'I' for Inactive)
REMARK    1  A    between atoms: C_1  and  N_18
REMARK    2  A    between atoms: C_2  and  S_7
REMARK    3  A    between atoms: S_7  and  N_10
REMARK    4  A    between atoms: N_10  and  C_13
REMARK    5  A    between atoms: N_18  and  C_26
REMARK                            x       y       z     vdW  Elec       q    Type
REMARK                         _______ _______ _______ _____ _____    ______ ____
ROOT
ATOM      1  C   UNL     1      35.103 -18.949 -20.921  0.00  0.00    +0.048 C 
ATOM      2  C   UNL     1      33.924 -21.019 -19.459  0.00  0.00    +0.129 C 
ATOM      3  C   UNL     1      33.720 -19.137 -20.960  0.00  0.00    +0.016 C 
ATOM      4  C   UNL     1      35.895 -19.802 -20.146  0.00  0.00    +0.016 C 
ATOM      5  C   UNL     1      33.131 -20.170 -20.231  0.00  0.00    +0.022 C 
ATOM      6  C   UNL     1      35.306 -20.836 -19.417  0.00  0.00    +0.022 C 
ENDROOT
BRANCH   2   7
ATOM      7  S   UNL     1      33.188 -22.313 -18.547  0.00  0.00    +0.103 S 
ATOM      8  O   UNL     1      33.324 -23.540 -19.324  0.00  0.00    -0.146 OA
ATOM      9  O   UNL     1      31.857 -21.844 -18.177  0.00  0.00    -0.146 OA
BRANCH   7  10
ATOM     10  N   UNL     1      34.126 -22.439 -17.212  0.00  0.00    -0.093 NA
BRANCH  10  13
ATOM     11  N   UNL     1      32.364 -23.117 -15.724  0.00  0.00    -0.369 N 
ATOM     12  N   UNL     1      34.549 -23.387 -15.126  0.00  0.00    -0.369 N 
ATOM     13  C   UNL     1      33.679 -22.948 -16.094  0.00  0.00    +0.212 C 
ATOM     14  H   UNL     1      31.641 -22.840 -16.332  0.00  0.00    +0.159 HD
ATOM     15  H   UNL     1      32.147 -23.514 -14.850  0.00  0.00    +0.159 HD
ATOM     16  H   UNL     1      35.522 -23.321 -15.272  0.00  0.00    +0.159 HD
ATOM     17  H   UNL     1      34.203 -23.769 -14.289  0.00  0.00    +0.159 HD
ENDBRANCH  10  13
ENDBRANCH   7  10
ENDBRANCH   2   7
BRANCH   1  18
ATOM     18  N   UNL     1      35.697 -17.908 -21.654  0.00  0.00    -0.311 N 
ATOM     19  H   UNL     1      36.636 -17.713 -21.434  0.00  0.00    +0.152 HD
BRANCH  18  26
ATOM     20  O   UNL     1      34.519 -15.793 -20.057  0.00  0.00    -0.270 OA
ATOM     21  N   UNL     1      33.447 -14.223 -21.460  0.00  0.00    -0.280 N 
ATOM     22  C   UNL     1      33.867 -15.162 -23.517  0.00  0.00    +0.019 C 
ATOM     23  C   UNL     1      34.462 -16.001 -22.483  0.00  0.00    +0.069 C 
ATOM     24  C   UNL     1      33.264 -14.096 -22.841  0.00  0.00    +0.051 C 
ATOM     25  C   UNL     1      34.178 -15.374 -21.148  0.00  0.00    +0.251 C 
ATOM     26  C   UNL     1      35.148 -17.136 -22.626  0.00  0.00    +0.066 C 
ATOM     27  C   UNL     1      33.811 -15.245 -24.895  0.00  0.00    +0.001 C 
ATOM     28  C   UNL     1      32.593 -13.087 -23.502  0.00  0.00    +0.015 C 
ATOM     29  C   UNL     1      33.136 -14.232 -25.585  0.00  0.00    +0.000 C 
ATOM     30  C   UNL     1      32.533 -13.164 -24.896  0.00  0.00    +0.001 C 
ATOM     31  H   UNL     1      33.106 -13.583 -20.793  0.00  0.00    +0.155 HD
ENDBRANCH  18  26
ENDBRANCH   1  18
TORSDOF 5
ENDMDL
MODEL 5
REMARK VINA RESULT:     -12.1      4.420      6.679
REMARK  Name = 5288712
REMARK  5 active torsions:
REMARK  status: ('A' for Active; 'I' for Inactive)
REMARK    1  A    between atoms: C_1  and  N_18
REMARK    2  A    between atoms: C_2  and  S_7
REMARK    3  A    between atoms: S_7  and  N_10
REMARK    4  A    between atoms: N_10  and  C_13
REMARK    5  A    between atoms: N_18  and  C_26
REMARK                            x       y       z     vdW  Elec       q    Type
REMARK                         _______ _______ _______ _____ _____    ______ ____
ROOT
ATOM      1  C   UNL     1      35.199 -22.396 -16.218  0.00  0.00    +0.048 C 
ATOM      2  C   UNL     1      36.141 -22.961 -13.648  0.00  0.00    +0.129 C 
ATOM      3  C   UNL     1      34.317 -22.833 -15.227  0.00  0.00    +0.016 C 
ATOM      4  C   UNL     1      36.556 -22.243 -15.917  0.00  0.00    +0.016 C 
ATOM      5  C   UNL     1      34.787 -23.114 -13.944  0.00  0.00    +0.022 C 
ATOM      6  C   UNL     1      37.026 -22.526 -14.635  0.00  0.00    +0.022 C 
ENDROOT
BRANCH   2   7
ATOM      7  S   UNL     1      36.730 -23.314 -12.043  0.00  0.00    +0.103 S 
ATOM      8  O   UNL     1      35.814 -22.702 -11.087  0.00  0.00    -0.146 OA
ATOM      9  O   UNL     1      38.137 -22.929 -12.033  0.00  0.00    -0.146 OA
BRANCH   7  10
ATOM     10  N   UNL     1      36.596 -24.941 -11.921  0.00  0.00    -0.093 NA
BRANCH  10  13
ATOM     11  N   UNL     1      36.497 -26.674 -13.583  0.00  0.00    -0.369 N 
ATOM     12  N   UNL     1      38.497 -25.742 -13.004  0.00  0.00    -0.369 N 
ATOM     13  C   UNL     1      37.140 -25.750 -12.792  0.00  0.00    +0.212 C 
ATOM     14  H   UNL     1      35.520 -26.778 -13.525  0.00  0.00    +0.159 HD
ATOM     15  H   UNL     1      37.015 -27.233 -14.206  0.00  0.00    +0.159 HD
ATOM     16  H   UNL     1      39.071 -25.121 -12.497  0.00  0.00    +0.159 HD
ATOM     17  H   UNL     1      38.897 -26.354 -13.662  0.00  0.00    +0.159 HD
ENDBRANCH  10  13
ENDBRANCH   7  10
ENDBRANCH   2   7
BRANCH   1  18
ATOM     18  N   UNL     1      34.726 -22.111 -17.511  0.00  0.00    -0.311 N 
ATOM     19  H   UNL     1      33.927 -22.613 -17.792  0.00  0.00    +0.152 HD
BRANCH  18  26
ATOM     20  O   UNL     1      32.344 -21.544 -19.064  0.00  0.00    -0.270 OA
ATOM     21  N   UNL     1      32.851 -20.012 -20.789  0.00  0.00    -0.280 N 
ATOM     22  C   UNL     1      35.094 -19.686 -20.398  0.00  0.00    +0.019 C 
ATOM     23  C   UNL     1      34.572 -20.626 -19.412  0.00  0.00    +0.069 C 
ATOM     24  C   UNL     1      34.007 -19.344 -21.209  0.00  0.00    +0.051 C 
ATOM     25  C   UNL     1      33.109 -20.827 -19.683  0.00  0.00    +0.251 C 
ATOM     26  C   UNL     1      35.223 -21.237 -18.422  0.00  0.00    +0.066 C 
ATOM     27  C   UNL     1      36.344 -19.144 -20.629  0.00  0.00    +0.001 C 
ATOM     28  C   UNL     1      34.121 -18.463 -22.265  0.00  0.00    +0.015 C 
ATOM     29  C   UNL     1      36.482 -18.248 -21.695  0.00  0.00    +0.000 C 
ATOM     30  C   UNL     1      35.382 -17.911 -22.505  0.00  0.00    +0.001 C 
ATOM     31  H   UNL     1      31.969 -19.919 -21.218  0.00  0.00    +0.155 HD
ENDBRANCH  18  26
ENDBRANCH   1  18
TORSDOF 5
ENDMDL
MODEL 6
REMARK VINA RESULT:     -11.5      4.526      6.731
REMARK  Name = 5288712
REMARK  5 active torsions:
REMARK  status: ('A' for Active; 'I' for Inactive)
REMARK    1  A    between atoms: C_1  and  N_18
REMARK    2  A    between atoms: C_2  and  S_7
REMARK    3  A    between atoms: S_7  and  N_10
REMARK    4  A    between atoms: N_10  and  C_13
REMARK    5  A    between atoms: N_18  and  C_26
REMARK                            x       y       z     vdW  Elec       q    Type
REMARK                         _______ _______ _______ _____ _____    ______ ____
ROOT
ATOM      1  C   UNL     1      35.448 -22.653 -16.226  0.00  0.00    +0.048 C 
ATOM      2  C   UNL     1      36.844 -23.801 -14.094  0.00  0.00    +0.129 C 
ATOM      3  C   UNL     1      34.816 -23.575 -15.389  0.00  0.00    +0.016 C 
ATOM      4  C   UNL     1      36.782 -22.307 -15.992  0.00  0.00    +0.016 C 
ATOM      5  C   UNL     1      35.513 -24.148 -14.324  0.00  0.00    +0.022 C 
ATOM      6  C   UNL     1      37.479 -22.880 -14.928  0.00  0.00    +0.022 C 
ENDROOT
BRANCH   2   7
ATOM      7  S   UNL     1      37.717 -24.518 -12.763  0.00  0.00    +0.103 S 
ATOM      8  O   UNL     1      38.681 -23.535 -12.281  0.00  0.00    -0.146 OA
ATOM      9  O   UNL     1      38.191 -25.812 -13.238  0.00  0.00    -0.146 OA
BRANCH   7  10
ATOM     10  N   UNL     1      36.575 -24.731 -11.610  0.00  0.00    -0.093 NA
BRANCH  10  13
ATOM     11  N   UNL     1      36.448 -22.411 -10.997  0.00  0.00    -0.369 N 
ATOM     12  N   UNL     1      35.319 -23.987  -9.795  0.00  0.00    -0.369 N 
ATOM     13  C   UNL     1      36.153 -23.748 -10.859  0.00  0.00    +0.212 C 
ATOM     14  H   UNL     1      37.038 -22.108 -11.724  0.00  0.00    +0.159 HD
ATOM     15  H   UNL     1      36.069 -21.757 -10.366  0.00  0.00    +0.159 HD
ATOM     16  H   UNL     1      35.032 -24.908  -9.591  0.00  0.00    +0.159 HD
ATOM     17  H   UNL     1      35.006 -23.240  -9.236  0.00  0.00    +0.159 HD
ENDBRANCH  10  13
ENDBRANCH   7  10
ENDBRANCH   2   7
BRANCH   1  18
ATOM     18  N   UNL     1      34.746 -22.075 -17.298  0.00  0.00    -0.311 N 
ATOM     19  H   UNL     1      33.792 -22.308 -17.358  0.00  0.00    +0.152 HD
BRANCH  18  26
ATOM     20  O   UNL     1      32.321 -21.617 -18.819  0.00  0.00    -0.270 OA
ATOM     21  N   UNL     1      32.763 -20.160 -20.626  0.00  0.00    -0.280 N 
ATOM     22  C   UNL     1      35.009 -19.784 -20.304  0.00  0.00    +0.019 C 
ATOM     23  C   UNL     1      34.526 -20.684 -19.263  0.00  0.00    +0.069 C 
ATOM     24  C   UNL     1      33.899 -19.496 -21.104  0.00  0.00    +0.051 C 
ATOM     25  C   UNL     1      33.060 -20.919 -19.489  0.00  0.00    +0.251 C 
ATOM     26  C   UNL     1      35.209 -21.238 -18.260  0.00  0.00    +0.066 C 
ATOM     27  C   UNL     1      36.245 -19.236 -20.590  0.00  0.00    +0.001 C 
ATOM     28  C   UNL     1      33.975 -18.665 -22.203  0.00  0.00    +0.015 C 
ATOM     29  C   UNL     1      36.345 -18.389 -21.699  0.00  0.00    +0.000 C 
ATOM     30  C   UNL     1      35.221 -18.107 -22.498  0.00  0.00    +0.001 C 
ATOM     31  H   UNL     1      31.870 -20.101 -21.038  0.00  0.00    +0.155 HD
ENDBRANCH  18  26
ENDBRANCH   1  18
TORSDOF 5
ENDMDL
MODEL 7
REMARK VINA RESULT:     -11.5      4.081      9.035
REMARK  Name = 5288712
REMARK  5 active torsions:
REMARK  status: ('A' for Active; 'I' for Inactive)
REMARK    1  A    between atoms: C_1  and  N_18
REMARK    2  A    between atoms: C_2  and  S_7
REMARK    3  A    between atoms: S_7  and  N_10
REMARK    4  A    between atoms: N_10  and  C_13
REMARK    5  A    between atoms: N_18  and  C_26
REMARK                            x       y       z     vdW  Elec       q    Type
REMARK                         _______ _______ _______ _____ _____    ______ ____
ROOT
ATOM      1  C   UNL     1      34.238 -16.408 -23.110  0.00  0.00    +0.048 C 
ATOM      2  C   UNL     1      33.402 -13.765 -23.471  0.00  0.00    +0.129 C 
ATOM      3  C   UNL     1      33.755 -15.987 -24.352  0.00  0.00    +0.016 C 
ATOM      4  C   UNL     1      34.301 -15.500 -22.049  0.00  0.00    +0.016 C 
ATOM      5  C   UNL     1      33.338 -14.668 -24.532  0.00  0.00    +0.022 C 
ATOM      6  C   UNL     1      33.883 -14.181 -22.229  0.00  0.00    +0.022 C 
ENDROOT
BRANCH   2   7
ATOM      7  S   UNL     1      32.880 -12.114 -23.695  0.00  0.00    +0.103 S 
ATOM      8  O   UNL     1      32.155 -12.043 -24.959  0.00  0.00    -0.146 OA
ATOM      9  O   UNL     1      34.062 -11.284 -23.500  0.00  0.00    -0.146 OA
BRANCH   7  10
ATOM     10  N   UNL     1      31.817 -11.866 -22.474  0.00  0.00    -0.093 NA
BRANCH  10  13
ATOM     11  N   UNL     1      30.734 -10.312 -20.996  0.00  0.00    -0.369 N 
ATOM     12  N   UNL     1      31.640  -9.596 -22.964  0.00  0.00    -0.369 N 
ATOM     13  C   UNL     1      31.410 -10.671 -22.140  0.00  0.00    +0.212 C 
ATOM     14  H   UNL     1      30.508 -10.993 -20.323  0.00  0.00    +0.159 HD
ATOM     15  H   UNL     1      30.476  -9.372 -20.852  0.00  0.00    +0.159 HD
ATOM     16  H   UNL     1      32.117  -9.722 -23.817  0.00  0.00    +0.159 HD
ATOM     17  H   UNL     1      31.329  -8.700 -22.703  0.00  0.00    +0.159 HD
ENDBRANCH  10  13
ENDBRANCH   7  10
ENDBRANCH   2   7
BRANCH   1  18
ATOM     18  N   UNL     1      34.659 -17.736 -22.929  0.00  0.00    -0.311 N 
ATOM     19  H   UNL     1      35.403 -18.029 -23.503  0.00  0.00    +0.152 HD
BRANCH  18  26
ATOM     20  O   UNL     1      36.983 -18.160 -21.248  0.00  0.00    -0.270 OA
ATOM     21  N   UNL     1      36.496 -19.767 -19.585  0.00  0.00    -0.280 N 
ATOM     22  C   UNL     1      34.311 -20.252 -20.117  0.00  0.00    +0.019 C 
ATOM     23  C   UNL     1      34.815 -19.250 -21.051  0.00  0.00    +0.069 C 
ATOM     24  C   UNL     1      35.372 -20.530 -19.249  0.00  0.00    +0.051 C 
ATOM     25  C   UNL     1      36.240 -18.947 -20.689  0.00  0.00    +0.251 C 
ATOM     26  C   UNL     1      34.178 -18.667 -22.067  0.00  0.00    +0.066 C 
ATOM     27  C   UNL     1      33.096 -20.894 -19.974  0.00  0.00    +0.001 C 
ATOM     28  C   UNL     1      35.264 -21.444 -18.220  0.00  0.00    +0.015 C 
ATOM     29  C   UNL     1      32.965 -21.823 -18.936  0.00  0.00    +0.000 C 
ATOM     30  C   UNL     1      34.038 -22.096 -18.068  0.00  0.00    +0.001 C 
ATOM     31  H   UNL     1      37.356 -19.803 -19.106  0.00  0.00    +0.155 HD
ENDBRANCH  18  26
ENDBRANCH   1  18
TORSDOF 5
ENDMDL
MODEL 8
REMARK VINA RESULT:     -11.5      3.573      9.830
REMARK  Name = 5288712
REMARK  5 active torsions:
REMARK  status: ('A' for Active; 'I' for Inactive)
REMARK    1  A    between atoms: C_1  and  N_18
REMARK    2  A    between atoms: C_2  and  S_7
REMARK    3  A    between atoms: S_7  and  N_10
REMARK    4  A    between atoms: N_10  and  C_13
REMARK    5  A    between atoms: N_18  and  C_26
REMARK                            x       y       z     vdW  Elec       q    Type
REMARK                         _______ _______ _______ _____ _____    ______ ____
ROOT
ATOM      1  C   UNL     1      34.248 -21.276 -18.813  0.00  0.00    +0.048 C 
ATOM      2  C   UNL     1      34.672 -19.405 -20.846  0.00  0.00    +0.129 C 
ATOM      3  C   UNL     1      35.546 -20.888 -19.151  0.00  0.00    +0.016 C 
ATOM      4  C   UNL     1      33.161 -20.722 -19.497  0.00  0.00    +0.016 C 
ATOM      5  C   UNL     1      35.758 -19.954 -20.165  0.00  0.00    +0.022 C 
ATOM      6  C   UNL     1      33.373 -19.789 -20.512  0.00  0.00    +0.022 C 
ENDROOT
BRANCH   2   7
ATOM      7  S   UNL     1      34.937 -18.236 -22.116  0.00  0.00    +0.103 S 
ATOM      8  O   UNL     1      33.966 -18.499 -23.172  0.00  0.00    -0.146 OA
ATOM      9  O   UNL     1      36.361 -18.287 -22.424  0.00  0.00    -0.146 OA
BRANCH   7  10
ATOM     10  N   UNL     1      34.568 -16.802 -21.418  0.00  0.00    -0.093 NA
BRANCH  10  13
ATOM     11  N   UNL     1      33.973 -14.489 -21.685  0.00  0.00    -0.369 N 
ATOM     12  N   UNL     1      34.938 -15.641 -23.402  0.00  0.00    -0.369 N 
ATOM     13  C   UNL     1      34.486 -15.695 -22.106  0.00  0.00    +0.212 C 
ATOM     14  H   UNL     1      33.616 -14.397 -20.772  0.00  0.00    +0.159 HD
ATOM     15  H   UNL     1      33.963 -13.718 -22.297  0.00  0.00    +0.159 HD
ATOM     16  H   UNL     1      35.330 -16.442 -23.821  0.00  0.00    +0.159 HD
ATOM     17  H   UNL     1      34.872 -14.802 -23.912  0.00  0.00    +0.159 HD
ENDBRANCH  10  13
ENDBRANCH   7  10
ENDBRANCH   2   7
BRANCH   1  18
ATOM     18  N   UNL     1      34.033 -22.216 -17.791  0.00  0.00    -0.311 N 
ATOM     19  H   UNL     1      33.262 -22.815 -17.917  0.00  0.00    +0.152 HD
BRANCH  18  26
ATOM     20  O   UNL     1      31.953 -23.158 -16.005  0.00  0.00    -0.270 OA
ATOM     21  N   UNL     1      32.862 -23.608 -13.871  0.00  0.00    -0.280 N 
ATOM     22  C   UNL     1      35.064 -23.058 -14.243  0.00  0.00    +0.019 C 
ATOM     23  C   UNL     1      34.308 -22.846 -15.473  0.00  0.00    +0.069 C 
ATOM     24  C   UNL     1      34.138 -23.521 -13.303  0.00  0.00    +0.051 C 
ATOM     25  C   UNL     1      32.875 -23.209 -15.211  0.00  0.00    +0.251 C 
ATOM     26  C   UNL     1      34.748 -22.409 -16.654  0.00  0.00    +0.066 C 
ATOM     27  C   UNL     1      36.392 -22.892 -13.902  0.00  0.00    +0.001 C 
ATOM     28  C   UNL     1      34.494 -23.832 -12.006  0.00  0.00    +0.015 C 
ATOM     29  C   UNL     1      36.775 -23.202 -12.592  0.00  0.00    +0.000 C 
ATOM     30  C   UNL     1      35.835 -23.667 -11.653  0.00  0.00    +0.001 C 
ATOM     31  H   UNL     1      32.058 -23.911 -13.388  0.00  0.00    +0.155 HD
ENDBRANCH  18  26
ENDBRANCH   1  18
TORSDOF 5
ENDMDL
MODEL 9
REMARK VINA RESULT:     -11.3      3.738      6.049
REMARK  Name = 5288712
REMARK  5 active torsions:
REMARK  status: ('A' for Active; 'I' for Inactive)
REMARK    1  A    between atoms: C_1  and  N_18
REMARK    2  A    between atoms: C_2  and  S_7
REMARK    3  A    between atoms: S_7  and  N_10
REMARK    4  A    between atoms: N_10  and  C_13
REMARK    5  A    between atoms: N_18  and  C_26
REMARK                            x       y       z     vdW  Elec       q    Type
REMARK                         _______ _______ _______ _____ _____    ______ ____
ROOT
ATOM      1  C   UNL     1      33.263 -14.041 -23.197  0.00  0.00    +0.048 C 
ATOM      2  C   UNL     1      34.525 -16.343 -22.238  0.00  0.00    +0.129 C 
ATOM      3  C   UNL     1      33.572 -15.087 -24.069  0.00  0.00    +0.016 C 
ATOM      4  C   UNL     1      33.589 -14.151 -21.842  0.00  0.00    +0.016 C 
ATOM      5  C   UNL     1      34.201 -16.237 -23.591  0.00  0.00    +0.022 C 
ATOM      6  C   UNL     1      34.220 -15.300 -21.363  0.00  0.00    +0.022 C 
ENDROOT
BRANCH   2   7
ATOM      7  S   UNL     1      35.314 -17.781 -21.639  0.00  0.00    +0.103 S 
ATOM      8  O   UNL     1      35.729 -17.522 -20.265  0.00  0.00    -0.146 OA
ATOM      9  O   UNL     1      36.317 -18.139 -22.634  0.00  0.00    -0.146 OA
BRANCH   7  10
ATOM     10  N   UNL     1      34.124 -18.905 -21.617  0.00  0.00    -0.093 NA
BRANCH  10  13
ATOM     11  N   UNL     1      32.733 -20.112 -20.072  0.00  0.00    -0.369 N 
ATOM     12  N   UNL     1      35.007 -20.227 -19.914  0.00  0.00    -0.369 N 
ATOM     13  C   UNL     1      33.937 -19.699 -20.596  0.00  0.00    +0.212 C 
ATOM     14  H   UNL     1      31.889 -19.802 -20.473  0.00  0.00    +0.159 HD
ATOM     15  H   UNL     1      32.717 -20.716 -19.295  0.00  0.00    +0.159 HD
ATOM     16  H   UNL     1      35.926 -20.007 -20.194  0.00  0.00    +0.159 HD
ATOM     17  H   UNL     1      34.855 -20.824 -19.147  0.00  0.00    +0.159 HD
ENDBRANCH  10  13
ENDBRANCH   7  10
ENDBRANCH   2   7
BRANCH   1  18
ATOM     18  N   UNL     1      32.629 -12.883 -23.678  0.00  0.00    -0.311 N 
ATOM     19  H   UNL     1      31.726 -13.015 -24.049  0.00  0.00    +0.152 HD
BRANCH  18  26
ATOM     20  O   UNL     1      30.823 -11.624 -21.791  0.00  0.00    -0.270 OA
ATOM     21  N   UNL     1      31.354  -9.332 -21.571  0.00  0.00    -0.280 N 
ATOM     22  C   UNL     1      33.129  -9.184 -23.025  0.00  0.00    +0.019 C 
ATOM     23  C   UNL     1      32.641 -10.559 -23.012  0.00  0.00    +0.069 C 
ATOM     24  C   UNL     1      32.314  -8.482 -22.133  0.00  0.00    +0.051 C 
ATOM     25  C   UNL     1      31.483 -10.636 -22.059  0.00  0.00    +0.251 C 
ATOM     26  C   UNL     1      33.093 -11.608 -23.700  0.00  0.00    +0.066 C 
ATOM     27  C   UNL     1      34.150  -8.544 -23.701  0.00  0.00    +0.001 C 
ATOM     28  C   UNL     1      32.480  -7.135 -21.882  0.00  0.00    +0.015 C 
ATOM     29  C   UNL     1      34.337  -7.178 -23.462  0.00  0.00    +0.000 C 
ATOM     30  C   UNL     1      33.510  -6.480 -22.562  0.00  0.00    +0.001 C 
ATOM     31  H   UNL     1      30.675  -9.048 -20.916  0.00  0.00    +0.155 HD
ENDBRANCH  18  26
ENDBRANCH   1  18
TORSDOF 5
ENDMDL
