MODEL 1
REMARK VINA RESULT:     -11.3      0.000      0.000
REMARK  Name = 12082259
REMARK  9 active torsions:
REMARK  status: ('A' for Active; 'I' for Inactive)
REMARK    1  A    between atoms: C_1  and  C_3
REMARK    2  A    between atoms: C_1  and  C_10
REMARK    3  A    between atoms: C_1  and  O_19
REMARK    4  A    between atoms: C_10  and  O_11
REMARK    5  A    between atoms: O_11  and  C_12
REMARK    6  A    between atoms: C_12  and  C_13
REMARK    7  A    between atoms: C_13  and  N_15
REMARK    8  A    between atoms: O_19  and  C_20
REMARK    9  A    between atoms: C_22  and  C_29
REMARK                            x       y       z     vdW  Elec       q    Type
REMARK                         _______ _______ _______ _____ _____    ______ ____
ROOT
ATOM      1  C   UNL     1      34.219 -22.229 -16.974  0.00  0.00    +0.286 C 
ENDROOT
BRANCH   1   3
ATOM      2 CL   UNL     1      38.286 -24.209 -13.029  0.00  0.00    -0.082 Cl
ATOM      3  C   UNL     1      35.230 -22.721 -15.994  0.00  0.00    +0.028 C 
ATOM      4  C   UNL     1      34.868 -23.666 -15.033  0.00  0.00    +0.001 C 
ATOM      5  C   UNL     1      36.537 -22.237 -16.038  0.00  0.00    +0.001 C 
ATOM      6  C   UNL     1      35.813 -24.126 -14.117  0.00  0.00    +0.011 C 
ATOM      7  C   UNL     1      37.482 -22.696 -15.120  0.00  0.00    +0.011 C 
ATOM      8  C   UNL     1      37.120 -23.641 -14.160  0.00  0.00    +0.058 C 
ENDBRANCH   1   3
BRANCH   1  10
ATOM      9  O   UNL     1      32.780 -24.022 -17.786  0.00  0.00    -0.246 OA
ATOM     10  C   UNL     1      32.958 -23.082 -17.020  0.00  0.00    +0.362 C 
BRANCH  10  11
ATOM     11  O   UNL     1      32.076 -22.647 -16.073  0.00  0.00    -0.444 OA
BRANCH  11  12
ATOM     12  C   UNL     1      30.761 -22.339 -16.548  0.00  0.00    +0.230 C 
BRANCH  12  13
ATOM     13  C   UNL     1      29.742 -23.146 -15.767  0.00  0.00    +0.137 C 
BRANCH  13  15
ATOM     14  O   UNL     1      27.393 -23.235 -17.471  0.00  0.00    -0.275 OA
ATOM     15  N   UNL     1      28.511 -22.422 -15.597  0.00  0.00    -0.301 N 
ATOM     16  C   UNL     1      27.435 -22.527 -16.468  0.00  0.00    +0.223 C 
ATOM     17  C   UNL     1      26.266 -21.681 -16.043  0.00  0.00    +0.095 C 
ATOM     18  H   UNL     1      28.427 -21.819 -14.823  0.00  0.00    +0.150 HD
ENDBRANCH  13  15
ENDBRANCH  12  13
ENDBRANCH  11  12
ENDBRANCH  10  11
ENDBRANCH   1  10
BRANCH   1  19
ATOM     19  O   UNL     1      34.794 -22.212 -18.279  0.00  0.00    -0.463 OA
BRANCH  19  20
ATOM     20  C   UNL     1      34.335 -21.250 -19.138  0.00  0.00    +0.140 C 
ATOM     21  C   UNL     1      35.235 -20.391 -19.769  0.00  0.00    +0.041 C 
ATOM     22  C   UNL     1      34.767 -19.412 -20.645  0.00  0.00    +0.074 C 
ATOM     23  C   UNL     1      32.967 -21.128 -19.383  0.00  0.00    +0.037 C 
ATOM     24  C   UNL     1      33.400 -19.291 -20.890  0.00  0.00    +0.004 C 
ATOM     25  C   UNL     1      32.500 -20.149 -20.259  0.00  0.00    +0.003 C 
BRANCH  22  29
ATOM     26  F   UNL     1      37.029 -18.693 -20.948  0.00  0.00    -0.166 F 
ATOM     27  F   UNL     1      35.728 -18.605 -22.681  0.00  0.00    -0.166 F 
ATOM     28  F   UNL     1      35.472 -17.179 -21.060  0.00  0.00    -0.166 F 
ATOM     29  C   UNL     1      35.729 -18.495 -21.320  0.00  0.00    +0.419 C 
ENDBRANCH  22  29
ENDBRANCH  19  20
ENDBRANCH   1  19
TORSDOF 9
ENDMDL
MODEL 2
REMARK VINA RESULT:     -10.8      4.944      7.964
REMARK  Name = 12082259
REMARK  9 active torsions:
REMARK  status: ('A' for Active; 'I' for Inactive)
REMARK    1  A    between atoms: C_1  and  C_3
REMARK    2  A    between atoms: C_1  and  C_10
REMARK    3  A    between atoms: C_1  and  O_19
REMARK    4  A    between atoms: C_10  and  O_11
REMARK    5  A    between atoms: O_11  and  C_12
REMARK    6  A    between atoms: C_12  and  C_13
REMARK    7  A    between atoms: C_13  and  N_15
REMARK    8  A    between atoms: O_19  and  C_20
REMARK    9  A    between atoms: C_22  and  C_29
REMARK                            x       y       z     vdW  Elec       q    Type
REMARK                         _______ _______ _______ _____ _____    ______ ____
ROOT
ATOM      1  C   UNL     1      33.960 -22.347 -16.465  0.00  0.00    +0.286 C 
ENDROOT
BRANCH   1   3
ATOM      2 CL   UNL     1      34.716 -19.608 -21.752  0.00  0.00    -0.082 Cl
ATOM      3  C   UNL     1      34.148 -21.668 -17.779  0.00  0.00    +0.028 C 
ATOM      4  C   UNL     1      35.433 -21.365 -18.231  0.00  0.00    +0.001 C 
ATOM      5  C   UNL     1      33.040 -21.333 -18.556  0.00  0.00    +0.001 C 
ATOM      6  C   UNL     1      35.609 -20.729 -19.459  0.00  0.00    +0.011 C 
ATOM      7  C   UNL     1      33.215 -20.695 -19.784  0.00  0.00    +0.011 C 
ATOM      8  C   UNL     1      34.499 -20.393 -20.235  0.00  0.00    +0.058 C 
ENDBRANCH   1   3
BRANCH   1  10
ATOM      9  O   UNL     1      36.304 -22.560 -15.826  0.00  0.00    -0.246 OA
ATOM     10  C   UNL     1      35.205 -23.080 -15.981  0.00  0.00    +0.362 C 
BRANCH  10  11
ATOM     11  O   UNL     1      34.900 -24.388 -15.738  0.00  0.00    -0.444 OA
BRANCH  11  12
ATOM     12  C   UNL     1      35.352 -24.904 -14.481  0.00  0.00    +0.230 C 
BRANCH  12  13
ATOM     13  C   UNL     1      36.384 -25.989 -14.722  0.00  0.00    +0.137 C 
BRANCH  13  15
ATOM     14  O   UNL     1      38.638 -25.752 -12.908  0.00  0.00    -0.275 OA
ATOM     15  N   UNL     1      37.680 -25.433 -15.006  0.00  0.00    -0.301 N 
ATOM     16  C   UNL     1      38.702 -25.360 -14.070  0.00  0.00    +0.223 C 
ATOM     17  C   UNL     1      39.959 -24.757 -14.637  0.00  0.00    +0.095 C 
ATOM     18  H   UNL     1      37.850 -25.084 -15.912  0.00  0.00    +0.150 HD
ENDBRANCH  13  15
ENDBRANCH  12  13
ENDBRANCH  11  12
ENDBRANCH  10  11
ENDBRANCH   1  10
BRANCH   1  19
ATOM     19  O   UNL     1      32.898 -23.294 -16.569  0.00  0.00    -0.463 OA
BRANCH  19  20
ATOM     20  C   UNL     1      31.816 -23.092 -15.756  0.00  0.00    +0.140 C 
ATOM     21  C   UNL     1      30.529 -23.096 -16.293  0.00  0.00    +0.041 C 
ATOM     22  C   UNL     1      29.427 -22.892 -15.463  0.00  0.00    +0.074 C 
ATOM     23  C   UNL     1      32.000 -22.884 -14.389  0.00  0.00    +0.037 C 
ATOM     24  C   UNL     1      29.611 -22.684 -14.097  0.00  0.00    +0.004 C 
ATOM     25  C   UNL     1      30.898 -22.680 -13.560  0.00  0.00    +0.003 C 
BRANCH  22  29
ATOM     26  F   UNL     1      27.712 -24.076 -16.639  0.00  0.00    -0.166 F 
ATOM     27  F   UNL     1      27.070 -22.676 -15.113  0.00  0.00    -0.166 F 
ATOM     28  F   UNL     1      27.876 -21.936 -16.992  0.00  0.00    -0.166 F 
ATOM     29  C   UNL     1      28.051 -22.897 -16.038  0.00  0.00    +0.419 C 
ENDBRANCH  22  29
ENDBRANCH  19  20
ENDBRANCH   1  19
TORSDOF 9
ENDMDL
MODEL 3
REMARK VINA RESULT:     -10.7      4.799      7.793
REMARK  Name = 12082259
REMARK  9 active torsions:
REMARK  status: ('A' for Active; 'I' for Inactive)
REMARK    1  A    between atoms: C_1  and  C_3
REMARK    2  A    between atoms: C_1  and  C_10
REMARK    3  A    between atoms: C_1  and  O_19
REMARK    4  A    between atoms: C_10  and  O_11
REMARK    5  A    between atoms: O_11  and  C_12
REMARK    6  A    between atoms: C_12  and  C_13
REMARK    7  A    between atoms: C_13  and  N_15
REMARK    8  A    between atoms: O_19  and  C_20
REMARK    9  A    between atoms: C_22  and  C_29
REMARK                            x       y       z     vdW  Elec       q    Type
REMARK                         _______ _______ _______ _____ _____    ______ ____
ROOT
ATOM      1  C   UNL     1      34.855 -22.780 -15.129  0.00  0.00    +0.286 C 
ENDROOT
BRANCH   1   3
ATOM      2 CL   UNL     1      28.972 -22.474 -16.275  0.00  0.00    -0.082 Cl
ATOM      3  C   UNL     1      33.393 -22.703 -15.413  0.00  0.00    +0.028 C 
ATOM      4  C   UNL     1      32.475 -22.725 -14.363  0.00  0.00    +0.001 C 
ATOM      5  C   UNL     1      32.943 -22.610 -16.730  0.00  0.00    +0.001 C 
ATOM      6  C   UNL     1      31.108 -22.654 -14.629  0.00  0.00    +0.011 C 
ATOM      7  C   UNL     1      31.575 -22.540 -16.997  0.00  0.00    +0.011 C 
ATOM      8  C   UNL     1      30.659 -22.562 -15.947  0.00  0.00    +0.058 C 
ENDBRANCH   1   3
BRANCH   1  10
ATOM      9  O   UNL     1      36.580 -21.136 -15.645  0.00  0.00    -0.246 OA
ATOM     10  C   UNL     1      35.693 -21.886 -16.034  0.00  0.00    +0.362 C 
BRANCH  10  11
ATOM     11  O   UNL     1      35.312 -22.065 -17.333  0.00  0.00    -0.444 OA
BRANCH  11  12
ATOM     12  C   UNL     1      36.042 -21.303 -18.301  0.00  0.00    +0.230 C 
BRANCH  12  13
ATOM     13  C   UNL     1      35.111 -20.896 -19.427  0.00  0.00    +0.137 C 
BRANCH  13  15
ATOM     14  O   UNL     1      33.749 -19.397 -21.507  0.00  0.00    -0.275 OA
ATOM     15  N   UNL     1      35.570 -19.705 -20.089  0.00  0.00    -0.301 N 
ATOM     16  C   UNL     1      34.847 -19.053 -21.078  0.00  0.00    +0.223 C 
ATOM     17  C   UNL     1      35.546 -17.820 -21.584  0.00  0.00    +0.095 C 
ATOM     18  H   UNL     1      36.444 -19.333 -19.827  0.00  0.00    +0.150 HD
ENDBRANCH  13  15
ENDBRANCH  12  13
ENDBRANCH  11  12
ENDBRANCH  10  11
ENDBRANCH   1  10
BRANCH   1  19
ATOM     19  O   UNL     1      35.299 -24.125 -15.295  0.00  0.00    -0.463 OA
BRANCH  19  20
ATOM     20  C   UNL     1      36.252 -24.568 -14.417  0.00  0.00    +0.140 C 
ATOM     21  C   UNL     1      37.581 -24.676 -14.826  0.00  0.00    +0.041 C 
ATOM     22  C   UNL     1      38.551 -25.127 -13.931  0.00  0.00    +0.074 C 
ATOM     23  C   UNL     1      35.893 -24.911 -13.114  0.00  0.00    +0.037 C 
ATOM     24  C   UNL     1      38.192 -25.469 -12.628  0.00  0.00    +0.004 C 
ATOM     25  C   UNL     1      36.863 -25.361 -12.219  0.00  0.00    +0.003 C 
BRANCH  22  29
ATOM     26  F   UNL     1      40.665 -26.227 -13.722  0.00  0.00    -0.166 F 
ATOM     27  F   UNL     1      40.116 -25.520 -15.697  0.00  0.00    -0.166 F 
ATOM     28  F   UNL     1      40.682 -24.095 -14.155  0.00  0.00    -0.166 F 
ATOM     29  C   UNL     1      39.972 -25.242 -14.368  0.00  0.00    +0.419 C 
ENDBRANCH  22  29
ENDBRANCH  19  20
ENDBRANCH   1  19
TORSDOF 9
ENDMDL
MODEL 4
REMARK VINA RESULT:     -10.7      4.510      6.544
REMARK  Name = 12082259
REMARK  9 active torsions:
REMARK  status: ('A' for Active; 'I' for Inactive)
REMARK    1  A    between atoms: C_1  and  C_3
REMARK    2  A    between atoms: C_1  and  C_10
REMARK    3  A    between atoms: C_1  and  O_19
REMARK    4  A    between atoms: C_10  and  O_11
REMARK    5  A    between atoms: O_11  and  C_12
REMARK    6  A    between atoms: C_12  and  C_13
REMARK    7  A    between atoms: C_13  and  N_15
REMARK    8  A    between atoms: O_19  and  C_20
REMARK    9  A    between atoms: C_22  and  C_29
REMARK                            x       y       z     vdW  Elec       q    Type
REMARK                         _______ _______ _______ _____ _____    ______ ____
ROOT
ATOM      1  C   UNL     1      34.280 -22.589 -17.083  0.00  0.00    +0.286 C 
ENDROOT
BRANCH   1   3
ATOM      2 CL   UNL     1      34.294 -18.896 -21.814  0.00  0.00    -0.082 Cl
ATOM      3  C   UNL     1      34.283 -21.671 -18.258  0.00  0.00    +0.028 C 
ATOM      4  C   UNL     1      33.077 -21.269 -18.833  0.00  0.00    +0.001 C 
ATOM      5  C   UNL     1      35.492 -21.215 -18.783  0.00  0.00    +0.001 C 
ATOM      6  C   UNL     1      33.081 -20.411 -19.932  0.00  0.00    +0.011 C 
ATOM      7  C   UNL     1      35.496 -20.357 -19.883  0.00  0.00    +0.011 C 
ATOM      8  C   UNL     1      34.290 -19.955 -20.458  0.00  0.00    +0.058 C 
ENDBRANCH   1   3
BRANCH   1  10
ATOM      9  O   UNL     1      32.078 -23.627 -17.215  0.00  0.00    -0.246 OA
ATOM     10  C   UNL     1      32.880 -22.939 -16.595  0.00  0.00    +0.362 C 
BRANCH  10  11
ATOM     11  O   UNL     1      32.671 -22.383 -15.366  0.00  0.00    -0.444 OA
BRANCH  11  12
ATOM     12  C   UNL     1      31.832 -23.134 -14.482  0.00  0.00    +0.230 C 
BRANCH  12  13
ATOM     13  C   UNL     1      30.543 -22.372 -14.241  0.00  0.00    +0.137 C 
BRANCH  13  15
ATOM     14  O   UNL     1      29.352 -21.907 -16.847  0.00  0.00    -0.275 OA
ATOM     15  N   UNL     1      29.413 -23.048 -14.818  0.00  0.00    -0.301 N 
ATOM     16  C   UNL     1      28.910 -22.757 -16.078  0.00  0.00    +0.223 C 
ATOM     17  C   UNL     1      27.740 -23.629 -16.447  0.00  0.00    +0.095 C 
ATOM     18  H   UNL     1      28.973 -23.755 -14.291  0.00  0.00    +0.150 HD
ENDBRANCH  13  15
ENDBRANCH  12  13
ENDBRANCH  11  12
ENDBRANCH  10  11
ENDBRANCH   1  10
BRANCH   1  19
ATOM     19  O   UNL     1      34.988 -21.981 -16.004  0.00  0.00    -0.463 OA
BRANCH  19  20
ATOM     20  C   UNL     1      36.073 -22.663 -15.523  0.00  0.00    +0.140 C 
ATOM     21  C   UNL     1      35.899 -23.674 -14.579  0.00  0.00    +0.041 C 
ATOM     22  C   UNL     1      37.005 -24.369 -14.089  0.00  0.00    +0.074 C 
ATOM     23  C   UNL     1      37.353 -22.346 -15.977  0.00  0.00    +0.037 C 
ATOM     24  C   UNL     1      38.284 -24.052 -14.543  0.00  0.00    +0.004 C 
ATOM     25  C   UNL     1      38.459 -23.041 -15.487  0.00  0.00    +0.003 C 
BRANCH  22  29
ATOM     26  F   UNL     1      37.918 -25.667 -12.299  0.00  0.00    -0.166 F 
ATOM     27  F   UNL     1      35.800 -25.211 -12.202  0.00  0.00    -0.166 F 
ATOM     28  F   UNL     1      36.533 -26.658 -13.651  0.00  0.00    -0.166 F 
ATOM     29  C   UNL     1      36.818 -25.451 -13.080  0.00  0.00    +0.419 C 
ENDBRANCH  22  29
ENDBRANCH  19  20
ENDBRANCH   1  19
TORSDOF 9
ENDMDL
MODEL 5
REMARK VINA RESULT:     -10.5      4.181      6.841
REMARK  Name = 12082259
REMARK  9 active torsions:
REMARK  status: ('A' for Active; 'I' for Inactive)
REMARK    1  A    between atoms: C_1  and  C_3
REMARK    2  A    between atoms: C_1  and  C_10
REMARK    3  A    between atoms: C_1  and  O_19
REMARK    4  A    between atoms: C_10  and  O_11
REMARK    5  A    between atoms: O_11  and  C_12
REMARK    6  A    between atoms: C_12  and  C_13
REMARK    7  A    between atoms: C_13  and  N_15
REMARK    8  A    between atoms: O_19  and  C_20
REMARK    9  A    between atoms: C_22  and  C_29
REMARK                            x       y       z     vdW  Elec       q    Type
REMARK                         _______ _______ _______ _____ _____    ______ ____
ROOT
ATOM      1  C   UNL     1      33.765 -23.301 -15.802  0.00  0.00    +0.286 C 
ENDROOT
BRANCH   1   3
ATOM      2 CL   UNL     1      38.254 -25.257 -12.331  0.00  0.00    -0.082 Cl
ATOM      3  C   UNL     1      34.879 -23.787 -14.939  0.00  0.00    +0.028 C 
ATOM      4  C   UNL     1      35.465 -22.931 -14.006  0.00  0.00    +0.001 C 
ATOM      5  C   UNL     1      35.338 -25.098 -15.065  0.00  0.00    +0.001 C 
ATOM      6  C   UNL     1      36.508 -23.385 -13.200  0.00  0.00    +0.011 C 
ATOM      7  C   UNL     1      36.382 -25.553 -14.259  0.00  0.00    +0.011 C 
ATOM      8  C   UNL     1      36.967 -24.697 -13.327  0.00  0.00    +0.058 C 
ENDBRANCH   1   3
BRANCH   1  10
ATOM      9  O   UNL     1      35.384 -22.020 -17.098  0.00  0.00    -0.246 OA
ATOM     10  C   UNL     1      34.232 -22.407 -16.943  0.00  0.00    +0.362 C 
BRANCH  10  11
ATOM     11  O   UNL     1      33.178 -22.124 -17.763  0.00  0.00    -0.444 OA
BRANCH  11  12
ATOM     12  C   UNL     1      33.475 -22.096 -19.164  0.00  0.00    +0.230 C 
BRANCH  12  13
ATOM     13  C   UNL     1      33.237 -20.698 -19.702  0.00  0.00    +0.137 C 
BRANCH  13  15
ATOM     14  O   UNL     1      34.008 -19.126 -22.018  0.00  0.00    -0.275 OA
ATOM     15  N   UNL     1      34.473 -19.992 -19.907  0.00  0.00    -0.301 N 
ATOM     16  C   UNL     1      34.756 -19.263 -21.053  0.00  0.00    +0.223 C 
ATOM     17  C   UNL     1      36.108 -18.605 -20.998  0.00  0.00    +0.095 C 
ATOM     18  H   UNL     1      35.155 -20.029 -19.197  0.00  0.00    +0.150 HD
ENDBRANCH  13  15
ENDBRANCH  12  13
ENDBRANCH  11  12
ENDBRANCH  10  11
ENDBRANCH   1  10
BRANCH   1  19
ATOM     19  O   UNL     1      32.839 -22.562 -15.008  0.00  0.00    -0.463 OA
BRANCH  19  20
ATOM     20  C   UNL     1      31.639 -23.166 -14.745  0.00  0.00    +0.140 C 
ATOM     21  C   UNL     1      30.506 -22.817 -15.479  0.00  0.00    +0.041 C 
ATOM     22  C   UNL     1      29.284 -23.434 -15.211  0.00  0.00    +0.074 C 
ATOM     23  C   UNL     1      31.550 -24.132 -13.742  0.00  0.00    +0.037 C 
ATOM     24  C   UNL     1      29.195 -24.399 -14.209  0.00  0.00    +0.004 C 
ATOM     25  C   UNL     1      30.328 -24.749 -13.475  0.00  0.00    +0.003 C 
BRANCH  22  29
ATOM     26  F   UNL     1      27.610 -24.064 -16.799  0.00  0.00    -0.166 F 
ATOM     27  F   UNL     1      27.005 -22.705 -15.221  0.00  0.00    -0.166 F 
ATOM     28  F   UNL     1      28.291 -21.999 -16.827  0.00  0.00    -0.166 F 
ATOM     29  C   UNL     1      28.073 -23.061 -15.996  0.00  0.00    +0.419 C 
ENDBRANCH  22  29
ENDBRANCH  19  20
ENDBRANCH   1  19
TORSDOF 9
ENDMDL
MODEL 6
REMARK VINA RESULT:     -10.3      4.814      7.307
REMARK  Name = 12082259
REMARK  9 active torsions:
REMARK  status: ('A' for Active; 'I' for Inactive)
REMARK    1  A    between atoms: C_1  and  C_3
REMARK    2  A    between atoms: C_1  and  C_10
REMARK    3  A    between atoms: C_1  and  O_19
REMARK    4  A    between atoms: C_10  and  O_11
REMARK    5  A    between atoms: O_11  and  C_12
REMARK    6  A    between atoms: C_12  and  C_13
REMARK    7  A    between atoms: C_13  and  N_15
REMARK    8  A    between atoms: O_19  and  C_20
REMARK    9  A    between atoms: C_22  and  C_29
REMARK                            x       y       z     vdW  Elec       q    Type
REMARK                         _______ _______ _______ _____ _____    ______ ____
ROOT
ATOM      1  C   UNL     1      33.866 -22.611 -16.972  0.00  0.00    +0.286 C 
ENDROOT
BRANCH   1   3
ATOM      2 CL   UNL     1      34.104 -19.131 -21.856  0.00  0.00    -0.082 Cl
ATOM      3  C   UNL     1      33.925 -21.747 -18.186  0.00  0.00    +0.028 C 
ATOM      4  C   UNL     1      35.160 -21.354 -18.703  0.00  0.00    +0.001 C 
ATOM      5  C   UNL     1      32.746 -21.332 -18.804  0.00  0.00    +0.001 C 
ATOM      6  C   UNL     1      35.215 -20.545 -19.837  0.00  0.00    +0.011 C 
ATOM      7  C   UNL     1      32.801 -20.522 -19.939  0.00  0.00    +0.011 C 
ATOM      8  C   UNL     1      34.036 -20.128 -20.455  0.00  0.00    +0.058 C 
ENDBRANCH   1   3
BRANCH   1  10
ATOM      9  O   UNL     1      31.447 -22.309 -16.932  0.00  0.00    -0.246 OA
ATOM     10  C   UNL     1      32.455 -22.789 -16.427  0.00  0.00    +0.362 C 
BRANCH  10  11
ATOM     11  O   UNL     1      32.492 -23.571 -15.308  0.00  0.00    -0.444 OA
BRANCH  11  12
ATOM     12  C   UNL     1      32.033 -22.948 -14.104  0.00  0.00    +0.230 C 
BRANCH  12  13
ATOM     13  C   UNL     1      32.679 -23.624 -12.909  0.00  0.00    +0.137 C 
BRANCH  13  15
ATOM     14  O   UNL     1      34.628 -24.569 -10.976  0.00  0.00    -0.275 OA
ATOM     15  N   UNL     1      33.954 -23.036 -12.594  0.00  0.00    -0.301 N 
ATOM     16  C   UNL     1      34.824 -23.560 -11.650  0.00  0.00    +0.223 C 
ATOM     17  C   UNL     1      36.097 -22.765 -11.536  0.00  0.00    +0.095 C 
ATOM     18  H   UNL     1      34.222 -22.219 -13.074  0.00  0.00    +0.150 HD
ENDBRANCH  13  15
ENDBRANCH  12  13
ENDBRANCH  11  12
ENDBRANCH  10  11
ENDBRANCH   1  10
BRANCH   1  19
ATOM     19  O   UNL     1      34.672 -22.039 -15.944  0.00  0.00    -0.463 OA
BRANCH  19  20
ATOM     20  C   UNL     1      35.822 -22.709 -15.623  0.00  0.00    +0.140 C 
ATOM     21  C   UNL     1      35.755 -23.996 -15.091  0.00  0.00    +0.041 C 
ATOM     22  C   UNL     1      36.927 -24.679 -14.766  0.00  0.00    +0.074 C 
ATOM     23  C   UNL     1      37.062 -22.104 -15.829  0.00  0.00    +0.037 C 
ATOM     24  C   UNL     1      38.166 -24.073 -14.972  0.00  0.00    +0.004 C 
ATOM     25  C   UNL     1      38.234 -22.786 -15.503  0.00  0.00    +0.003 C 
BRANCH  22  29
ATOM     26  F   UNL     1      38.004 -26.776 -14.361  0.00  0.00    -0.166 F 
ATOM     27  F   UNL     1      36.607 -26.081 -12.855  0.00  0.00    -0.166 F 
ATOM     28  F   UNL     1      35.868 -26.807 -14.767  0.00  0.00    -0.166 F 
ATOM     29  C   UNL     1      36.855 -26.055 -14.198  0.00  0.00    +0.419 C 
ENDBRANCH  22  29
ENDBRANCH  19  20
ENDBRANCH   1  19
TORSDOF 9
ENDMDL
MODEL 7
REMARK VINA RESULT:     -10.3      4.923      7.866
REMARK  Name = 12082259
REMARK  9 active torsions:
REMARK  status: ('A' for Active; 'I' for Inactive)
REMARK    1  A    between atoms: C_1  and  C_3
REMARK    2  A    between atoms: C_1  and  C_10
REMARK    3  A    between atoms: C_1  and  O_19
REMARK    4  A    between atoms: C_10  and  O_11
REMARK    5  A    between atoms: O_11  and  C_12
REMARK    6  A    between atoms: C_12  and  C_13
REMARK    7  A    between atoms: C_13  and  N_15
REMARK    8  A    between atoms: O_19  and  C_20
REMARK    9  A    between atoms: C_22  and  C_29
REMARK                            x       y       z     vdW  Elec       q    Type
REMARK                         _______ _______ _______ _____ _____    ______ ____
ROOT
ATOM      1  C   UNL     1      34.207 -22.787 -15.592  0.00  0.00    +0.286 C 
ENDROOT
BRANCH   1   3
ATOM      2 CL   UNL     1      35.515 -20.163 -20.830  0.00  0.00    -0.082 Cl
ATOM      3  C   UNL     1      34.531 -22.134 -16.893  0.00  0.00    +0.028 C 
ATOM      4  C   UNL     1      33.568 -22.069 -17.901  0.00  0.00    +0.001 C 
ATOM      5  C   UNL     1      35.798 -21.590 -17.104  0.00  0.00    +0.001 C 
ATOM      6  C   UNL     1      33.872 -21.459 -19.117  0.00  0.00    +0.011 C 
ATOM      7  C   UNL     1      36.103 -20.981 -18.322  0.00  0.00    +0.011 C 
ATOM      8  C   UNL     1      35.140 -20.916 -19.328  0.00  0.00    +0.058 C 
ENDBRANCH   1   3
BRANCH   1  10
ATOM      9  O   UNL     1      35.963 -24.449 -15.282  0.00  0.00    -0.246 OA
ATOM     10  C   UNL     1      35.418 -23.415 -14.915  0.00  0.00    +0.362 C 
BRANCH  10  11
ATOM     11  O   UNL     1      35.802 -22.643 -13.856  0.00  0.00    -0.444 OA
BRANCH  11  12
ATOM     12  C   UNL     1      35.601 -23.224 -12.563  0.00  0.00    +0.230 C 
BRANCH  12  13
ATOM     13  C   UNL     1      36.924 -23.277 -11.823  0.00  0.00    +0.137 C 
BRANCH  13  15
ATOM     14  O   UNL     1      37.619 -26.038 -12.391  0.00  0.00    -0.275 OA
ATOM     15  N   UNL     1      37.985 -23.755 -12.668  0.00  0.00    -0.301 N 
ATOM     16  C   UNL     1      38.244 -25.101 -12.882  0.00  0.00    +0.223 C 
ATOM     17  C   UNL     1      39.393 -25.323 -13.828  0.00  0.00    +0.095 C 
ATOM     18  H   UNL     1      38.557 -23.092 -13.118  0.00  0.00    +0.150 HD
ENDBRANCH  13  15
ENDBRANCH  12  13
ENDBRANCH  11  12
ENDBRANCH  10  11
ENDBRANCH   1  10
BRANCH   1  19
ATOM     19  O   UNL     1      33.235 -23.809 -15.805  0.00  0.00    -0.463 OA
BRANCH  19  20
ATOM     20  C   UNL     1      32.103 -23.746 -15.038  0.00  0.00    +0.140 C 
ATOM     21  C   UNL     1      30.955 -23.131 -15.538  0.00  0.00    +0.041 C 
ATOM     22  C   UNL     1      29.801 -23.068 -14.758  0.00  0.00    +0.074 C 
ATOM     23  C   UNL     1      32.097 -24.297 -13.757  0.00  0.00    +0.037 C 
ATOM     24  C   UNL     1      29.795 -23.620 -13.477  0.00  0.00    +0.004 C 
ATOM     25  C   UNL     1      30.943 -24.234 -12.976  0.00  0.00    +0.003 C 
BRANCH  22  29
ATOM     26  F   UNL     1      27.506 -23.257 -15.408  0.00  0.00    -0.166 F 
ATOM     27  F   UNL     1      28.126 -21.378 -14.521  0.00  0.00    -0.166 F 
ATOM     28  F   UNL     1      28.760 -21.886 -16.538  0.00  0.00    -0.166 F 
ATOM     29  C   UNL     1      28.574 -22.412 -15.292  0.00  0.00    +0.419 C 
ENDBRANCH  22  29
ENDBRANCH  19  20
ENDBRANCH   1  19
TORSDOF 9
ENDMDL
MODEL 8
REMARK VINA RESULT:     -10.3      4.983      7.935
REMARK  Name = 12082259
REMARK  9 active torsions:
REMARK  status: ('A' for Active; 'I' for Inactive)
REMARK    1  A    between atoms: C_1  and  C_3
REMARK    2  A    between atoms: C_1  and  C_10
REMARK    3  A    between atoms: C_1  and  O_19
REMARK    4  A    between atoms: C_10  and  O_11
REMARK    5  A    between atoms: O_11  and  C_12
REMARK    6  A    between atoms: C_12  and  C_13
REMARK    7  A    between atoms: C_13  and  N_15
REMARK    8  A    between atoms: O_19  and  C_20
REMARK    9  A    between atoms: C_22  and  C_29
REMARK                            x       y       z     vdW  Elec       q    Type
REMARK                         _______ _______ _______ _____ _____    ______ ____
ROOT
ATOM      1  C   UNL     1      33.427 -22.693 -16.562  0.00  0.00    +0.286 C 
ENDROOT
BRANCH   1   3
ATOM      2 CL   UNL     1      27.690 -23.011 -14.829  0.00  0.00    -0.082 Cl
ATOM      3  C   UNL     1      32.002 -22.773 -16.132  0.00  0.00    +0.028 C 
ATOM      4  C   UNL     1      31.000 -22.217 -16.929  0.00  0.00    +0.001 C 
ATOM      5  C   UNL     1      31.669 -23.403 -14.933  0.00  0.00    +0.001 C 
ATOM      6  C   UNL     1      29.668 -22.290 -16.526  0.00  0.00    +0.011 C 
ATOM      7  C   UNL     1      30.336 -23.475 -14.529  0.00  0.00    +0.011 C 
ATOM      8  C   UNL     1      29.335 -22.919 -15.326  0.00  0.00    +0.058 C 
ENDBRANCH   1   3
BRANCH   1  10
ATOM      9  O   UNL     1      33.335 -23.447 -18.879  0.00  0.00    -0.246 OA
ATOM     10  C   UNL     1      33.596 -22.564 -18.071  0.00  0.00    +0.362 C 
BRANCH  10  11
ATOM     11  O   UNL     1      34.063 -21.318 -18.374  0.00  0.00    -0.444 OA
BRANCH  11  12
ATOM     12  C   UNL     1      33.514 -20.723 -19.555  0.00  0.00    +0.230 C 
BRANCH  12  13
ATOM     13  C   UNL     1      34.642 -20.315 -20.484  0.00  0.00    +0.137 C 
BRANCH  13  15
ATOM     14  O   UNL     1      36.456 -18.050 -20.576  0.00  0.00    -0.275 OA
ATOM     15  N   UNL     1      34.401 -19.026 -21.074  0.00  0.00    -0.301 N 
ATOM     16  C   UNL     1      35.332 -17.997 -21.070  0.00  0.00    +0.223 C 
ATOM     17  C   UNL     1      34.833 -16.766 -21.777  0.00  0.00    +0.095 C 
ATOM     18  H   UNL     1      33.529 -18.865 -21.503  0.00  0.00    +0.150 HD
ENDBRANCH  13  15
ENDBRANCH  12  13
ENDBRANCH  11  12
ENDBRANCH  10  11
ENDBRANCH   1  10
BRANCH   1  19
ATOM     19  O   UNL     1      34.117 -23.867 -16.136  0.00  0.00    -0.463 OA
BRANCH  19  20
ATOM     20  C   UNL     1      35.078 -23.698 -15.177  0.00  0.00    +0.140 C 
ATOM     21  C   UNL     1      35.684 -24.810 -14.592  0.00  0.00    +0.041 C 
ATOM     22  C   UNL     1      36.664 -24.638 -13.615  0.00  0.00    +0.074 C 
ATOM     23  C   UNL     1      35.453 -22.413 -14.783  0.00  0.00    +0.037 C 
ATOM     24  C   UNL     1      37.039 -23.353 -13.223  0.00  0.00    +0.004 C 
ATOM     25  C   UNL     1      36.433 -22.241 -13.807  0.00  0.00    +0.003 C 
BRANCH  22  29
ATOM     26  F   UNL     1      38.673 -25.731 -12.914  0.00  0.00    -0.166 F 
ATOM     27  F   UNL     1      36.900 -26.066 -11.711  0.00  0.00    -0.166 F 
ATOM     28  F   UNL     1      37.065 -26.980 -13.677  0.00  0.00    -0.166 F 
ATOM     29  C   UNL     1      37.312 -25.826 -12.991  0.00  0.00    +0.419 C 
ENDBRANCH  22  29
ENDBRANCH  19  20
ENDBRANCH   1  19
TORSDOF 9
ENDMDL
MODEL 9
REMARK VINA RESULT:     -10.3      4.786      7.581
REMARK  Name = 12082259
REMARK  9 active torsions:
REMARK  status: ('A' for Active; 'I' for Inactive)
REMARK    1  A    between atoms: C_1  and  C_3
REMARK    2  A    between atoms: C_1  and  C_10
REMARK    3  A    between atoms: C_1  and  O_19
REMARK    4  A    between atoms: C_10  and  O_11
REMARK    5  A    between atoms: O_11  and  C_12
REMARK    6  A    between atoms: C_12  and  C_13
REMARK    7  A    between atoms: C_13  and  N_15
REMARK    8  A    between atoms: O_19  and  C_20
REMARK    9  A    between atoms: C_22  and  C_29
REMARK                            x       y       z     vdW  Elec       q    Type
REMARK                         _______ _______ _______ _____ _____    ______ ____
ROOT
ATOM      1  C   UNL     1      34.854 -22.050 -16.427  0.00  0.00    +0.286 C 
ENDROOT
BRANCH   1   3
ATOM      2 CL   UNL     1      34.351 -19.708 -21.930  0.00  0.00    -0.082 Cl
ATOM      3  C   UNL     1      34.729 -21.467 -17.794  0.00  0.00    +0.028 C 
ATOM      4  C   UNL     1      33.476 -21.375 -18.401  0.00  0.00    +0.001 C 
ATOM      5  C   UNL     1      35.864 -21.016 -18.466  0.00  0.00    +0.001 C 
ATOM      6  C   UNL     1      33.359 -20.831 -19.680  0.00  0.00    +0.011 C 
ATOM      7  C   UNL     1      35.748 -20.472 -19.746  0.00  0.00    +0.011 C 
ATOM      8  C   UNL     1      34.495 -20.380 -20.352  0.00  0.00    +0.058 C 
ENDBRANCH   1   3
BRANCH   1  10
ATOM      9  O   UNL     1      37.150 -21.377 -15.961  0.00  0.00    -0.246 OA
ATOM     10  C   UNL     1      36.298 -22.257 -15.990  0.00  0.00    +0.362 C 
BRANCH  10  11
ATOM     11  O   UNL     1      36.484 -23.559 -15.626  0.00  0.00    -0.444 OA
BRANCH  11  12
ATOM     12  C   UNL     1      37.629 -23.813 -14.804  0.00  0.00    +0.230 C 
BRANCH  12  13
ATOM     13  C   UNL     1      37.246 -24.767 -13.688  0.00  0.00    +0.137 C 
BRANCH  13  15
ATOM     14  O   UNL     1      36.433 -25.866 -11.127  0.00  0.00    -0.275 OA
ATOM     15  N   UNL     1      36.559 -24.086 -12.623  0.00  0.00    -0.301 N 
ATOM     16  C   UNL     1      36.208 -24.697 -11.427  0.00  0.00    +0.223 C 
ATOM     17  C   UNL     1      35.521 -23.752 -10.479  0.00  0.00    +0.095 C 
ATOM     18  H   UNL     1      36.324 -23.138 -12.750  0.00  0.00    +0.150 HD
ENDBRANCH  13  15
ENDBRANCH  12  13
ENDBRANCH  11  12
ENDBRANCH  10  11
ENDBRANCH   1  10
BRANCH   1  19
ATOM     19  O   UNL     1      34.192 -23.313 -16.389  0.00  0.00    -0.463 OA
BRANCH  19  20
ATOM     20  C   UNL     1      33.155 -23.434 -15.504  0.00  0.00    +0.140 C 
ATOM     21  C   UNL     1      31.873 -23.024 -15.870  0.00  0.00    +0.041 C 
ATOM     22  C   UNL     1      30.817 -23.149 -14.968  0.00  0.00    +0.074 C 
ATOM     23  C   UNL     1      33.380 -23.968 -14.235  0.00  0.00    +0.037 C 
ATOM     24  C   UNL     1      31.042 -23.683 -13.700  0.00  0.00    +0.004 C 
ATOM     25  C   UNL     1      32.324 -24.093 -13.333  0.00  0.00    +0.003 C 
BRANCH  22  29
ATOM     26  F   UNL     1      28.895 -21.803 -14.501  0.00  0.00    -0.166 F 
ATOM     27  F   UNL     1      29.391 -22.117 -16.589  0.00  0.00    -0.166 F 
ATOM     28  F   UNL     1      28.559 -23.748 -15.414  0.00  0.00    -0.166 F 
ATOM     29  C   UNL     1      29.446 -22.711 -15.360  0.00  0.00    +0.419 C 
ENDBRANCH  22  29
ENDBRANCH  19  20
ENDBRANCH   1  19
TORSDOF 9
ENDMDL
