MODEL 1
REMARK VINA RESULT:      -9.6      0.000      0.000
REMARK  Name = 114743
REMARK  2 active torsions:
REMARK  status: ('A' for Active; 'I' for Inactive)
REMARK    1  A    between atoms: C_1  and  C_13
REMARK    2  A    between atoms: C_4  and  N_19
REMARK                            x       y       z     vdW  Elec       q    Type
REMARK                         _______ _______ _______ _____ _____    ______ ____
ROOT
ATOM      1  C   UNL     1      37.401 -22.871 -14.705  0.00  0.00    +0.044 C 
ATOM      2  C   UNL     1      38.478 -23.786 -15.322  0.00  0.00    +0.007 C 
ATOM      3  C   UNL     1      39.318 -24.453 -14.239  0.00  0.00    -0.017 C 
ATOM      4  C   UNL     1      38.450 -25.347 -13.344  0.00  0.00    -0.043 C 
ATOM      5  C   UNL     1      36.743 -23.446 -13.453  0.00  0.00    -0.024 C 
ATOM      6  C   UNL     1      37.252 -24.591 -12.807  0.00  0.00    -0.046 C 
ATOM      7  C   UNL     1      35.651 -22.772 -12.871  0.00  0.00    -0.004 C 
ATOM      8  C   UNL     1      36.629 -25.061 -11.637  0.00  0.00    -0.007 C 
ATOM      9  C   UNL     1      35.046 -23.248 -11.708  0.00  0.00    -0.000 C 
ATOM     10  C   UNL     1      35.532 -24.396 -11.093  0.00  0.00    -0.000 C 
ENDROOT
BRANCH   1  13
ATOM     11 CL   UNL     1      32.556 -23.021 -16.573  0.00  0.00    -0.081 Cl
ATOM     12 CL   UNL     1      33.563 -21.197 -19.049  0.00  0.00    -0.081 Cl
ATOM     13  C   UNL     1      36.420 -22.457 -15.794  0.00  0.00    -0.018 C 
ATOM     14  C   UNL     1      35.092 -22.866 -15.719  0.00  0.00    +0.008 C 
ATOM     15  C   UNL     1      36.858 -21.672 -16.855  0.00  0.00    -0.003 C 
ATOM     16  C   UNL     1      34.193 -22.486 -16.715  0.00  0.00    +0.068 C 
ATOM     17  C   UNL     1      35.960 -21.293 -17.852  0.00  0.00    +0.012 C 
ATOM     18  C   UNL     1      34.627 -21.700 -17.782  0.00  0.00    +0.068 C 
ENDBRANCH   1  13
BRANCH   4  19
ATOM     19  N   UNL     1      38.022 -26.542 -14.079  0.00  0.00    +0.384 N 
ATOM     20  H   UNL     1      38.185 -27.370 -13.506  0.00  0.00    -0.089 HD
ATOM     21  H   UNL     1      38.556 -26.619 -14.945  0.00  0.00    -0.089 HD
ATOM     22  H   UNL     1      37.029 -26.470 -14.297  0.00  0.00    -0.089 HD
ENDBRANCH   4  19
TORSDOF 2
ENDMDL
MODEL 2
REMARK VINA RESULT:      -9.4      2.849      4.591
REMARK  Name = 114743
REMARK  2 active torsions:
REMARK  status: ('A' for Active; 'I' for Inactive)
REMARK    1  A    between atoms: C_1  and  C_13
REMARK    2  A    between atoms: C_4  and  N_19
REMARK                            x       y       z     vdW  Elec       q    Type
REMARK                         _______ _______ _______ _____ _____    ______ ____
ROOT
ATOM      1  C   UNL     1      33.023 -23.218 -16.600  0.00  0.00    +0.044 C 
ATOM      2  C   UNL     1      31.554 -22.849 -16.314  0.00  0.00    +0.007 C 
ATOM      3  C   UNL     1      31.036 -23.576 -15.078  0.00  0.00    -0.017 C 
ATOM      4  C   UNL     1      31.833 -23.173 -13.831  0.00  0.00    -0.043 C 
ATOM      5  C   UNL     1      33.888 -23.334 -15.347  0.00  0.00    -0.024 C 
ATOM      6  C   UNL     1      33.323 -23.336 -14.055  0.00  0.00    -0.046 C 
ATOM      7  C   UNL     1      35.276 -23.532 -15.477  0.00  0.00    -0.004 C 
ATOM      8  C   UNL     1      34.160 -23.480 -12.934  0.00  0.00    -0.007 C 
ATOM      9  C   UNL     1      36.093 -23.677 -14.355  0.00  0.00    -0.000 C 
ATOM     10  C   UNL     1      35.536 -23.646 -13.082  0.00  0.00    -0.000 C 
ENDROOT
BRANCH   1  13
ATOM     11 CL   UNL     1      32.097 -20.067 -20.625  0.00  0.00    -0.081 Cl
ATOM     12 CL   UNL     1      35.275 -19.467 -20.755  0.00  0.00    -0.081 Cl
ATOM     13  C   UNL     1      33.576 -22.268 -17.655  0.00  0.00    -0.018 C 
ATOM     14  C   UNL     1      32.711 -21.662 -18.560  0.00  0.00    +0.008 C 
ATOM     15  C   UNL     1      34.942 -22.014 -17.706  0.00  0.00    -0.003 C 
ATOM     16  C   UNL     1      33.217 -20.793 -19.526  0.00  0.00    +0.068 C 
ATOM     17  C   UNL     1      35.449 -21.145 -18.672  0.00  0.00    +0.012 C 
ATOM     18  C   UNL     1      34.586 -20.535 -19.582  0.00  0.00    +0.068 C 
ENDBRANCH   1  13
BRANCH   4  19
ATOM     19  N   UNL     1      31.515 -21.795 -13.445  0.00  0.00    +0.384 N 
ATOM     20  H   UNL     1      32.130 -21.504 -12.685  0.00  0.00    -0.089 HD
ATOM     21  H   UNL     1      30.545 -21.744 -13.135  0.00  0.00    -0.089 HD
ATOM     22  H   UNL     1      31.650 -21.177 -14.245  0.00  0.00    -0.089 HD
ENDBRANCH   4  19
TORSDOF 2
ENDMDL
MODEL 3
REMARK VINA RESULT:      -9.4      9.383     12.075
REMARK  Name = 114743
REMARK  2 active torsions:
REMARK  status: ('A' for Active; 'I' for Inactive)
REMARK    1  A    between atoms: C_1  and  C_13
REMARK    2  A    between atoms: C_4  and  N_19
REMARK                            x       y       z     vdW  Elec       q    Type
REMARK                         _______ _______ _______ _____ _____    ______ ____
ROOT
ATOM      1  C   UNL     1      34.185 -15.227 -23.264  0.00  0.00    +0.044 C 
ATOM      2  C   UNL     1      33.449 -15.311 -24.616  0.00  0.00    +0.007 C 
ATOM      3  C   UNL     1      33.896 -16.534 -25.409  0.00  0.00    -0.017 C 
ATOM      4  C   UNL     1      33.565 -17.828 -24.654  0.00  0.00    -0.043 C 
ATOM      5  C   UNL     1      34.370 -16.576 -22.574  0.00  0.00    -0.024 C 
ATOM      6  C   UNL     1      34.101 -17.791 -23.237  0.00  0.00    -0.046 C 
ATOM      7  C   UNL     1      34.906 -16.623 -21.272  0.00  0.00    -0.004 C 
ATOM      8  C   UNL     1      34.321 -19.009 -22.569  0.00  0.00    -0.007 C 
ATOM      9  C   UNL     1      35.122 -17.838 -20.624  0.00  0.00    -0.000 C 
ATOM     10  C   UNL     1      34.824 -19.032 -21.270  0.00  0.00    -0.000 C 
ENDROOT
BRANCH   1  13
ATOM     11 CL   UNL     1      32.072 -10.494 -22.919  0.00  0.00    -0.081 Cl
ATOM     12 CL   UNL     1      31.524 -11.078 -19.784  0.00  0.00    -0.081 Cl
ATOM     13  C   UNL     1      33.512 -14.169 -22.399  0.00  0.00    -0.018 C 
ATOM     14  C   UNL     1      33.136 -12.954 -22.961  0.00  0.00    +0.008 C 
ATOM     15  C   UNL     1      33.279 -14.426 -21.052  0.00  0.00    -0.003 C 
ATOM     16  C   UNL     1      32.520 -11.985 -22.169  0.00  0.00    +0.068 C 
ATOM     17  C   UNL     1      32.663 -13.458 -20.259  0.00  0.00    +0.012 C 
ATOM     18  C   UNL     1      32.284 -12.238 -20.818  0.00  0.00    +0.068 C 
ENDBRANCH   1  13
BRANCH   4  19
ATOM     19  N   UNL     1      32.118 -18.063 -24.655  0.00  0.00    +0.384 N 
ATOM     20  H   UNL     1      31.704 -17.638 -25.485  0.00  0.00    -0.089 HD
ATOM     21  H   UNL     1      31.705 -17.647 -23.820  0.00  0.00    -0.089 HD
ATOM     22  H   UNL     1      31.936 -19.067 -24.661  0.00  0.00    -0.089 HD
ENDBRANCH   4  19
TORSDOF 2
ENDMDL
MODEL 4
REMARK VINA RESULT:      -9.3      3.118      5.013
REMARK  Name = 114743
REMARK  2 active torsions:
REMARK  status: ('A' for Active; 'I' for Inactive)
REMARK    1  A    between atoms: C_1  and  C_13
REMARK    2  A    between atoms: C_4  and  N_19
REMARK                            x       y       z     vdW  Elec       q    Type
REMARK                         _______ _______ _______ _____ _____    ______ ____
ROOT
ATOM      1  C   UNL     1      32.944 -22.899 -17.087  0.00  0.00    +0.044 C 
ATOM      2  C   UNL     1      31.470 -22.800 -16.643  0.00  0.00    +0.007 C 
ATOM      3  C   UNL     1      31.231 -23.585 -15.358  0.00  0.00    -0.017 C 
ATOM      4  C   UNL     1      32.069 -23.019 -14.205  0.00  0.00    -0.043 C 
ATOM      5  C   UNL     1      33.944 -22.830 -15.936  0.00  0.00    -0.024 C 
ATOM      6  C   UNL     1      33.531 -22.911 -14.590  0.00  0.00    -0.046 C 
ATOM      7  C   UNL     1      35.323 -22.773 -16.216  0.00  0.00    -0.004 C 
ATOM      8  C   UNL     1      34.496 -22.878 -13.567  0.00  0.00    -0.007 C 
ATOM      9  C   UNL     1      36.268 -22.745 -15.191  0.00  0.00    -0.000 C 
ATOM     10  C   UNL     1      35.854 -22.792 -13.864  0.00  0.00    -0.000 C 
ENDROOT
BRANCH   1  13
ATOM     11 CL   UNL     1      36.369 -20.377 -20.070  0.00  0.00    -0.081 Cl
ATOM     12 CL   UNL     1      33.876 -18.872 -21.482  0.00  0.00    -0.081 Cl
ATOM     13  C   UNL     1      33.196 -21.885 -18.196  0.00  0.00    -0.018 C 
ATOM     14  C   UNL     1      34.499 -21.609 -18.596  0.00  0.00    +0.008 C 
ATOM     15  C   UNL     1      32.121 -21.241 -18.799  0.00  0.00    -0.003 C 
ATOM     16  C   UNL     1      34.730 -20.681 -19.611  0.00  0.00    +0.068 C 
ATOM     17  C   UNL     1      32.351 -20.313 -19.814  0.00  0.00    +0.012 C 
ATOM     18  C   UNL     1      33.656 -20.032 -20.219  0.00  0.00    +0.068 C 
ENDBRANCH   1  13
BRANCH   4  19
ATOM     19  N   UNL     1      31.546 -21.716 -13.785  0.00  0.00    +0.384 N 
ATOM     20  H   UNL     1      32.167 -20.977 -14.116  0.00  0.00    -0.089 HD
ATOM     21  H   UNL     1      31.492 -21.682 -12.767  0.00  0.00    -0.089 HD
ATOM     22  H   UNL     1      30.616 -21.579 -14.181  0.00  0.00    -0.089 HD
ENDBRANCH   4  19
TORSDOF 2
ENDMDL
MODEL 5
REMARK VINA RESULT:      -9.3      3.935      5.752
REMARK  Name = 114743
REMARK  2 active torsions:
REMARK  status: ('A' for Active; 'I' for Inactive)
REMARK    1  A    between atoms: C_1  and  C_13
REMARK    2  A    between atoms: C_4  and  N_19
REMARK                            x       y       z     vdW  Elec       q    Type
REMARK                         _______ _______ _______ _____ _____    ______ ____
ROOT
ATOM      1  C   UNL     1      34.552 -21.930 -18.974  0.00  0.00    +0.044 C 
ATOM      2  C   UNL     1      33.124 -22.507 -18.900  0.00  0.00    +0.007 C 
ATOM      3  C   UNL     1      33.030 -23.605 -17.845  0.00  0.00    -0.017 C 
ATOM      4  C   UNL     1      33.346 -23.052 -16.450  0.00  0.00    -0.043 C 
ATOM      5  C   UNL     1      35.223 -21.760 -17.613  0.00  0.00    -0.024 C 
ATOM      6  C   UNL     1      34.666 -22.308 -16.439  0.00  0.00    -0.046 C 
ATOM      7  C   UNL     1      36.474 -21.117 -17.530  0.00  0.00    -0.004 C 
ATOM      8  C   UNL     1      35.341 -22.153 -15.215  0.00  0.00    -0.007 C 
ATOM      9  C   UNL     1      37.133 -20.976 -16.309  0.00  0.00    -0.000 C 
ATOM     10  C   UNL     1      36.564 -21.489 -15.149  0.00  0.00    -0.000 C 
ENDROOT
BRANCH   1  13
ATOM     11 CL   UNL     1      37.226 -18.286 -21.535  0.00  0.00    -0.081 Cl
ATOM     12 CL   UNL     1      34.403 -16.920 -22.332  0.00  0.00    -0.081 Cl
ATOM     13  C   UNL     1      34.531 -20.665 -19.822  0.00  0.00    -0.018 C 
ATOM     14  C   UNL     1      35.729 -20.101 -20.251  0.00  0.00    +0.008 C 
ATOM     15  C   UNL     1      33.315 -20.083 -20.162  0.00  0.00    -0.003 C 
ATOM     16  C   UNL     1      35.710 -18.943 -21.028  0.00  0.00    +0.068 C 
ATOM     17  C   UNL     1      33.296 -18.925 -20.939  0.00  0.00    +0.012 C 
ATOM     18  C   UNL     1      34.493 -18.355 -21.372  0.00  0.00    +0.068 C 
ENDBRANCH   1  13
BRANCH   4  19
ATOM     19  N   UNL     1      32.259 -22.186 -15.986  0.00  0.00    +0.384 N 
ATOM     20  H   UNL     1      32.645 -21.426 -15.425  0.00  0.00    -0.089 HD
ATOM     21  H   UNL     1      31.609 -22.729 -15.418  0.00  0.00    -0.089 HD
ATOM     22  H   UNL     1      31.766 -21.798 -16.790  0.00  0.00    -0.089 HD
ENDBRANCH   4  19
TORSDOF 2
ENDMDL
MODEL 6
REMARK VINA RESULT:      -9.3      1.639      3.012
REMARK  Name = 114743
REMARK  2 active torsions:
REMARK  status: ('A' for Active; 'I' for Inactive)
REMARK    1  A    between atoms: C_1  and  C_13
REMARK    2  A    between atoms: C_4  and  N_19
REMARK                            x       y       z     vdW  Elec       q    Type
REMARK                         _______ _______ _______ _____ _____    ______ ____
ROOT
ATOM      1  C   UNL     1      35.159 -23.697 -14.471  0.00  0.00    +0.044 C 
ATOM      2  C   UNL     1      34.425 -22.872 -13.395  0.00  0.00    +0.007 C 
ATOM      3  C   UNL     1      34.527 -23.540 -12.028  0.00  0.00    -0.017 C 
ATOM      4  C   UNL     1      35.988 -23.639 -11.574  0.00  0.00    -0.043 C 
ATOM      5  C   UNL     1      36.480 -24.299 -13.996  0.00  0.00    -0.024 C 
ATOM      6  C   UNL     1      36.851 -24.290 -12.637  0.00  0.00    -0.046 C 
ATOM      7  C   UNL     1      37.314 -24.960 -14.919  0.00  0.00    -0.004 C 
ATOM      8  C   UNL     1      38.062 -24.890 -12.245  0.00  0.00    -0.007 C 
ATOM      9  C   UNL     1      38.509 -25.553 -14.516  0.00  0.00    -0.000 C 
ATOM     10  C   UNL     1      38.887 -25.513 -13.179  0.00  0.00    -0.000 C 
ENDROOT
BRANCH   1  13
ATOM     11 CL   UNL     1      32.904 -21.900 -18.793  0.00  0.00    -0.081 Cl
ATOM     12 CL   UNL     1      35.676 -20.381 -19.486  0.00  0.00    -0.081 Cl
ATOM     13  C   UNL     1      35.274 -22.863 -15.741  0.00  0.00    -0.018 C 
ATOM     14  C   UNL     1      34.184 -22.759 -16.600  0.00  0.00    +0.008 C 
ATOM     15  C   UNL     1      36.467 -22.212 -16.034  0.00  0.00    -0.003 C 
ATOM     16  C   UNL     1      34.288 -21.996 -17.763  0.00  0.00    +0.068 C 
ATOM     17  C   UNL     1      36.572 -21.449 -17.196  0.00  0.00    +0.012 C 
ATOM     18  C   UNL     1      35.483 -21.342 -18.061  0.00  0.00    +0.068 C 
ENDBRANCH   1  13
BRANCH   4  19
ATOM     19  N   UNL     1      36.507 -22.312 -11.228  0.00  0.00    +0.384 N 
ATOM     20  H   UNL     1      37.526 -22.326 -11.260  0.00  0.00    -0.089 HD
ATOM     21  H   UNL     1      36.201 -22.062 -10.287  0.00  0.00    -0.089 HD
ATOM     22  H   UNL     1      36.155 -21.625 -11.894  0.00  0.00    -0.089 HD
ENDBRANCH   4  19
TORSDOF 2
ENDMDL
MODEL 7
REMARK VINA RESULT:      -9.2      1.844      3.430
REMARK  Name = 114743
REMARK  2 active torsions:
REMARK  status: ('A' for Active; 'I' for Inactive)
REMARK    1  A    between atoms: C_1  and  C_13
REMARK    2  A    between atoms: C_4  and  N_19
REMARK                            x       y       z     vdW  Elec       q    Type
REMARK                         _______ _______ _______ _____ _____    ______ ____
ROOT
ATOM      1  C   UNL     1      34.713 -24.090 -13.745  0.00  0.00    +0.044 C 
ATOM      2  C   UNL     1      34.237 -23.206 -12.575  0.00  0.00    +0.007 C 
ATOM      3  C   UNL     1      34.830 -23.680 -11.253  0.00  0.00    -0.017 C 
ATOM      4  C   UNL     1      36.361 -23.585 -11.273  0.00  0.00    -0.043 C 
ATOM      5  C   UNL     1      36.181 -24.502 -13.654  0.00  0.00    -0.024 C 
ATOM      6  C   UNL     1      36.940 -24.284 -12.486  0.00  0.00    -0.046 C 
ATOM      7  C   UNL     1      36.776 -25.196 -14.726  0.00  0.00    -0.004 C 
ATOM      8  C   UNL     1      38.278 -24.714 -12.440  0.00  0.00    -0.007 C 
ATOM      9  C   UNL     1      38.103 -25.619 -14.663  0.00  0.00    -0.000 C 
ATOM     10  C   UNL     1      38.857 -25.374 -13.522  0.00  0.00    -0.000 C 
ENDROOT
BRANCH   1  13
ATOM     11 CL   UNL     1      36.174 -21.230 -17.829  0.00  0.00    -0.081 Cl
ATOM     12 CL   UNL     1      33.144 -21.457 -18.943  0.00  0.00    -0.081 Cl
ATOM     13  C   UNL     1      34.333 -23.420 -15.060  0.00  0.00    -0.018 C 
ATOM     14  C   UNL     1      35.292 -22.711 -15.776  0.00  0.00    +0.008 C 
ATOM     15  C   UNL     1      33.030 -23.521 -15.533  0.00  0.00    -0.003 C 
ATOM     16  C   UNL     1      34.944 -22.097 -16.979  0.00  0.00    +0.068 C 
ATOM     17  C   UNL     1      32.681 -22.908 -16.736  0.00  0.00    +0.012 C 
ATOM     18  C   UNL     1      33.638 -22.195 -17.459  0.00  0.00    +0.068 C 
ENDBRANCH   1  13
BRANCH   4  19
ATOM     19  N   UNL     1      36.786 -22.182 -11.232  0.00  0.00    +0.384 N 
ATOM     20  H   UNL     1      37.717 -22.097 -11.640  0.00  0.00    -0.089 HD
ATOM     21  H   UNL     1      36.809 -21.862 -10.264  0.00  0.00    -0.089 HD
ATOM     22  H   UNL     1      36.128 -21.612 -11.763  0.00  0.00    -0.089 HD
ENDBRANCH   4  19
TORSDOF 2
ENDMDL
MODEL 8
REMARK VINA RESULT:      -9.0     14.409     17.360
REMARK  Name = 114743
REMARK  2 active torsions:
REMARK  status: ('A' for Active; 'I' for Inactive)
REMARK    1  A    between atoms: C_1  and  C_13
REMARK    2  A    between atoms: C_4  and  N_19
REMARK                            x       y       z     vdW  Elec       q    Type
REMARK                         _______ _______ _______ _____ _____    ______ ____
ROOT
ATOM      1  C   UNL     1      30.899  -8.769 -22.578  0.00  0.00    +0.044 C 
ATOM      2  C   UNL     1      30.865  -8.245 -24.028  0.00  0.00    +0.007 C 
ATOM      3  C   UNL     1      30.352  -6.810 -24.081  0.00  0.00    -0.017 C 
ATOM      4  C   UNL     1      31.279  -5.868 -23.302  0.00  0.00    -0.043 C 
ATOM      5  C   UNL     1      31.371  -7.736 -21.557  0.00  0.00    -0.024 C 
ATOM      6  C   UNL     1      31.525  -6.376 -21.896  0.00  0.00    -0.046 C 
ATOM      7  C   UNL     1      31.578  -8.126 -20.220  0.00  0.00    -0.004 C 
ATOM      8  C   UNL     1      31.928  -5.458 -20.910  0.00  0.00    -0.007 C 
ATOM      9  C   UNL     1      31.975  -7.203 -19.252  0.00  0.00    -0.000 C 
ATOM     10  C   UNL     1      32.156  -5.869 -19.598  0.00  0.00    -0.000 C 
ENDROOT
BRANCH   1  13
ATOM     11 CL   UNL     1      31.714 -13.357 -20.282  0.00  0.00    -0.081 Cl
ATOM     12 CL   UNL     1      33.999 -13.944 -22.496  0.00  0.00    -0.081 Cl
ATOM     13  C   UNL     1      31.673 -10.080 -22.544  0.00  0.00    -0.018 C 
ATOM     14  C   UNL     1      31.394 -11.022 -21.559  0.00  0.00    +0.008 C 
ATOM     15  C   UNL     1      32.654 -10.327 -23.498  0.00  0.00    -0.003 C 
ATOM     16  C   UNL     1      32.102 -12.223 -21.527  0.00  0.00    +0.068 C 
ATOM     17  C   UNL     1      33.362 -11.528 -23.468  0.00  0.00    +0.012 C 
ATOM     18  C   UNL     1      33.087 -12.476 -22.482  0.00  0.00    +0.068 C 
ENDBRANCH   1  13
BRANCH   4  19
ATOM     19  N   UNL     1      32.546  -5.691 -24.018  0.00  0.00    +0.384 N 
ATOM     20  H   UNL     1      32.364  -5.285 -24.936  0.00  0.00    -0.089 HD
ATOM     21  H   UNL     1      33.001  -6.597 -24.133  0.00  0.00    -0.089 HD
ATOM     22  H   UNL     1      33.154  -5.069 -23.486  0.00  0.00    -0.089 HD
ENDBRANCH   4  19
TORSDOF 2
ENDMDL
MODEL 9
REMARK VINA RESULT:      -9.0     17.369     20.432
REMARK  Name = 114743
REMARK  2 active torsions:
REMARK  status: ('A' for Active; 'I' for Inactive)
REMARK    1  A    between atoms: C_1  and  C_13
REMARK    2  A    between atoms: C_4  and  N_19
REMARK                            x       y       z     vdW  Elec       q    Type
REMARK                         _______ _______ _______ _____ _____    ______ ____
ROOT
ATOM      1  C   UNL     1      31.758  -5.074 -21.882  0.00  0.00    +0.044 C 
ATOM      2  C   UNL     1      30.444  -4.286 -21.709  0.00  0.00    +0.007 C 
ATOM      3  C   UNL     1      30.619  -2.830 -22.130  0.00  0.00    -0.017 C 
ATOM      4  C   UNL     1      30.991  -2.730 -23.614  0.00  0.00    -0.043 C 
ATOM      5  C   UNL     1      32.532  -4.718 -23.149  0.00  0.00    -0.024 C 
ATOM      6  C   UNL     1      32.183  -3.607 -23.943  0.00  0.00    -0.046 C 
ATOM      7  C   UNL     1      33.678  -5.461 -23.495  0.00  0.00    -0.004 C 
ATOM      8  C   UNL     1      32.950  -3.301 -25.082  0.00  0.00    -0.007 C 
ATOM      9  C   UNL     1      34.430  -5.143 -24.626  0.00  0.00    -0.000 C 
ATOM     10  C   UNL     1      34.063  -4.066 -25.423  0.00  0.00    -0.000 C 
ENDROOT
BRANCH   1  13
ATOM     11 CL   UNL     1      31.679  -9.256 -18.800  0.00  0.00    -0.081 Cl
ATOM     12 CL   UNL     1      30.588 -10.967 -21.321  0.00  0.00    -0.081 Cl
ATOM     13  C   UNL     1      31.467  -6.561 -21.724  0.00  0.00    -0.018 C 
ATOM     14  C   UNL     1      31.673  -7.179 -20.495  0.00  0.00    +0.008 C 
ATOM     15  C   UNL     1      30.998  -7.291 -22.811  0.00  0.00    -0.003 C 
ATOM     16  C   UNL     1      31.407  -8.540 -20.350  0.00  0.00    +0.068 C 
ATOM     17  C   UNL     1      30.732  -8.653 -22.667  0.00  0.00    +0.012 C 
ATOM     18  C   UNL     1      30.936  -9.277 -21.437  0.00  0.00    +0.068 C 
ENDBRANCH   1  13
BRANCH   4  19
ATOM     19  N   UNL     1      29.842  -3.082 -24.454  0.00  0.00    +0.384 N 
ATOM     20  H   UNL     1      30.153  -3.222 -25.415  0.00  0.00    -0.089 HD
ATOM     21  H   UNL     1      29.156  -2.327 -24.426  0.00  0.00    -0.089 HD
ATOM     22  H   UNL     1      29.417  -3.941 -24.106  0.00  0.00    -0.089 HD
ENDBRANCH   4  19
TORSDOF 2
ENDMDL
