MODEL 1
REMARK VINA RESULT:     -10.7      0.000      0.000
REMARK  Name = 25138295
REMARK  5 active torsions:
REMARK  status: ('A' for Active; 'I' for Inactive)
REMARK    1  A    between atoms: N_3  and  C_21
REMARK    2  A    between atoms: C_4  and  C_11
REMARK    3  A    between atoms: C_12  and  C_20
REMARK    4  A    between atoms: C_22  and  C_28
REMARK    5  A    between atoms: C_28  and  O_29
REMARK                            x       y       z     vdW  Elec       q    Type
REMARK                         _______ _______ _______ _____ _____    ______ ____
ROOT
ATOM      1  O   UNL     1      35.794 -21.881 -17.172  0.00  0.00    -0.252 OA
ATOM      2  N   UNL     1      34.522 -21.349 -19.026  0.00  0.00    -0.264 N 
ATOM      3  N   UNL     1      33.482 -21.892 -16.981  0.00  0.00    -0.268 N 
ATOM      4  C   UNL     1      34.392 -19.411 -21.173  0.00  0.00    +0.026 C 
ATOM      5  C   UNL     1      33.176 -19.716 -20.275  0.00  0.00    +0.026 C 
ATOM      6  C   UNL     1      35.709 -19.721 -20.432  0.00  0.00    +0.026 C 
ATOM      7  C   UNL     1      33.250 -21.142 -19.733  0.00  0.00    +0.095 C 
ATOM      8  C   UNL     1      35.706 -21.140 -19.863  0.00  0.00    +0.095 C 
ATOM      9  C   UNL     1      34.680 -21.733 -17.679  0.00  0.00    +0.308 C 
ATOM     10  H   UNL     1      32.729 -21.330 -17.271  0.00  0.00    +0.156 HD
ENDROOT
BRANCH   4  11
ATOM     11  C   UNL     1      34.360 -17.994 -21.713  0.00  0.00    -0.018 C 
ATOM     12  C   UNL     1      34.077 -17.742 -23.055  0.00  0.00    +0.067 C 
ATOM     13  C   UNL     1      34.618 -16.933 -20.843  0.00  0.00    -0.004 C 
ATOM     14  C   UNL     1      34.051 -16.430 -23.528  0.00  0.00    +0.004 C 
ATOM     15  C   UNL     1      34.592 -15.622 -21.317  0.00  0.00    -0.000 C 
ATOM     16  C   UNL     1      34.309 -15.370 -22.659  0.00  0.00    -0.000 C 
BRANCH  12  20
ATOM     17  F   UNL     1      33.819 -18.482 -25.315  0.00  0.00    -0.166 F 
ATOM     18  F   UNL     1      34.691 -19.888 -23.913  0.00  0.00    -0.166 F 
ATOM     19  F   UNL     1      32.570 -19.422 -23.804  0.00  0.00    -0.166 F 
ATOM     20  C   UNL     1      33.797 -18.861 -24.004  0.00  0.00    +0.418 C 
ENDBRANCH  12  20
ENDBRANCH   4  11
BRANCH   3  21
ATOM     21  C   UNL     1      33.230 -22.773 -15.901  0.00  0.00    +0.058 C 
ATOM     22  C   UNL     1      31.925 -23.071 -15.506  0.00  0.00    +0.089 C 
ATOM     23  C   UNL     1      34.309 -23.347 -15.228  0.00  0.00    +0.015 C 
ATOM     24  C   UNL     1      31.701 -23.942 -14.440  0.00  0.00    +0.008 C 
ATOM     25  C   UNL     1      34.085 -24.218 -14.162  0.00  0.00    +0.001 C 
ATOM     26  C   UNL     1      32.781 -24.516 -13.768  0.00  0.00    +0.000 C 
BRANCH  22  28
ATOM     27  O   UNL     1      30.764 -22.085 -17.351  0.00  0.00    -0.245 OA
ATOM     28  C   UNL     1      30.775 -22.489 -16.186  0.00  0.00    +0.339 C 
BRANCH  28  29
ATOM     29  O   UNL     1      29.676 -22.432 -15.386  0.00  0.00    -0.477 OA
ATOM     30  H   UNL     1      28.896 -22.892 -15.627  0.00  0.00    +0.295 HD
ENDBRANCH  28  29
ENDBRANCH  22  28
ENDBRANCH   3  21
TORSDOF 5
ENDMDL
MODEL 2
REMARK VINA RESULT:      -9.9      9.800     13.102
REMARK  Name = 25138295
REMARK  5 active torsions:
REMARK  status: ('A' for Active; 'I' for Inactive)
REMARK    1  A    between atoms: N_3  and  C_21
REMARK    2  A    between atoms: C_4  and  C_11
REMARK    3  A    between atoms: C_12  and  C_20
REMARK    4  A    between atoms: C_22  and  C_28
REMARK    5  A    between atoms: C_28  and  O_29
REMARK                            x       y       z     vdW  Elec       q    Type
REMARK                         _______ _______ _______ _____ _____    ______ ____
ROOT
ATOM      1  O   UNL     1      30.753 -11.488 -22.530  0.00  0.00    -0.252 OA
ATOM      2  N   UNL     1      32.002  -9.550 -22.363  0.00  0.00    -0.264 N 
ATOM      3  N   UNL     1      33.038 -11.593 -22.920  0.00  0.00    -0.268 N 
ATOM      4  C   UNL     1      31.936  -6.768 -23.158  0.00  0.00    +0.026 C 
ATOM      5  C   UNL     1      33.153  -7.671 -23.448  0.00  0.00    +0.026 C 
ATOM      6  C   UNL     1      30.650  -7.609 -23.029  0.00  0.00    +0.026 C 
ATOM      7  C   UNL     1      33.256  -8.786 -22.410  0.00  0.00    +0.095 C 
ATOM      8  C   UNL     1      30.828  -8.743 -22.019  0.00  0.00    +0.095 C 
ATOM      9  C   UNL     1      31.854 -10.934 -22.592  0.00  0.00    +0.308 C 
ATOM     10  H   UNL     1      33.717 -11.062 -23.395  0.00  0.00    +0.156 HD
ENDROOT
BRANCH   4  11
ATOM     11  C   UNL     1      31.793  -5.660 -24.184  0.00  0.00    -0.018 C 
ATOM     12  C   UNL     1      31.316  -4.401 -23.820  0.00  0.00    +0.067 C 
ATOM     13  C   UNL     1      32.148  -5.915 -25.509  0.00  0.00    -0.004 C 
ATOM     14  C   UNL     1      31.194  -3.396 -24.780  0.00  0.00    +0.004 C 
ATOM     15  C   UNL     1      32.026  -4.911 -26.470  0.00  0.00    -0.000 C 
ATOM     16  C   UNL     1      31.549  -3.652 -26.105  0.00  0.00    -0.000 C 
BRANCH  12  20
ATOM     17  F   UNL     1      29.800  -4.753 -22.004  0.00  0.00    -0.166 F 
ATOM     18  F   UNL     1      31.887  -4.449 -21.498  0.00  0.00    -0.166 F 
ATOM     19  F   UNL     1      30.686  -2.777 -22.200  0.00  0.00    -0.166 F 
ATOM     20  C   UNL     1      30.930  -4.104 -22.408  0.00  0.00    +0.418 C 
ENDBRANCH  12  20
ENDBRANCH   4  11
BRANCH   3  21
ATOM     21  C   UNL     1      33.373 -12.943 -22.647  0.00  0.00    +0.058 C 
ATOM     22  C   UNL     1      33.350 -13.907 -23.655  0.00  0.00    +0.089 C 
ATOM     23  C   UNL     1      33.729 -13.302 -21.346  0.00  0.00    +0.015 C 
ATOM     24  C   UNL     1      33.684 -15.229 -23.362  0.00  0.00    +0.008 C 
ATOM     25  C   UNL     1      34.062 -14.624 -21.054  0.00  0.00    +0.001 C 
ATOM     26  C   UNL     1      34.040 -15.588 -22.062  0.00  0.00    +0.000 C 
BRANCH  22  28
ATOM     27  O   UNL     1      32.790 -12.424 -25.447  0.00  0.00    -0.245 OA
ATOM     28  C   UNL     1      32.982 -13.566 -25.023  0.00  0.00    +0.339 C 
BRANCH  28  29
ATOM     29  O   UNL     1      32.867 -14.665 -25.817  0.00  0.00    -0.477 OA
ATOM     30  H   UNL     1      32.333 -15.386 -25.545  0.00  0.00    +0.295 HD
ENDBRANCH  28  29
ENDBRANCH  22  28
ENDBRANCH   3  21
TORSDOF 5
ENDMDL
MODEL 3
REMARK VINA RESULT:      -9.9      6.719      9.677
REMARK  Name = 25138295
REMARK  5 active torsions:
REMARK  status: ('A' for Active; 'I' for Inactive)
REMARK    1  A    between atoms: N_3  and  C_21
REMARK    2  A    between atoms: C_4  and  C_11
REMARK    3  A    between atoms: C_12  and  C_20
REMARK    4  A    between atoms: C_22  and  C_28
REMARK    5  A    between atoms: C_28  and  O_29
REMARK                            x       y       z     vdW  Elec       q    Type
REMARK                         _______ _______ _______ _____ _____    ______ ____
ROOT
ATOM      1  O   UNL     1      33.448 -15.122 -25.639  0.00  0.00    -0.252 OA
ATOM      2  N   UNL     1      32.669 -13.678 -24.011  0.00  0.00    -0.264 N 
ATOM      3  N   UNL     1      33.864 -15.621 -23.412  0.00  0.00    -0.268 N 
ATOM      4  C   UNL     1      32.521 -10.851 -23.409  0.00  0.00    +0.026 C 
ATOM      5  C   UNL     1      33.095 -11.870 -22.403  0.00  0.00    +0.026 C 
ATOM      6  C   UNL     1      32.665 -11.370 -24.854  0.00  0.00    +0.026 C 
ATOM      7  C   UNL     1      32.474 -13.248 -22.619  0.00  0.00    +0.095 C 
ATOM      8  C   UNL     1      32.076 -12.774 -25.000  0.00  0.00    +0.095 C 
ATOM      9  C   UNL     1      33.333 -14.845 -24.443  0.00  0.00    +0.308 C 
ATOM     10  H   UNL     1      34.145 -15.138 -22.602  0.00  0.00    +0.156 HD
ENDROOT
BRANCH   4  11
ATOM     11  C   UNL     1      33.133  -9.473 -23.234  0.00  0.00    -0.018 C 
ATOM     12  C   UNL     1      32.508  -8.503 -22.452  0.00  0.00    +0.067 C 
ATOM     13  C   UNL     1      34.342  -9.185 -23.870  0.00  0.00    -0.004 C 
ATOM     14  C   UNL     1      33.090  -7.244 -22.304  0.00  0.00    +0.004 C 
ATOM     15  C   UNL     1      34.924  -7.926 -23.722  0.00  0.00    -0.000 C 
ATOM     16  C   UNL     1      34.298  -6.956 -22.939  0.00  0.00    -0.000 C 
BRANCH  12  20
ATOM     17  F   UNL     1      30.218  -9.178 -22.610  0.00  0.00    -0.166 F 
ATOM     18  F   UNL     1      31.301  -9.784 -20.832  0.00  0.00    -0.166 F 
ATOM     19  F   UNL     1      30.725  -7.703 -21.096  0.00  0.00    -0.166 F 
ATOM     20  C   UNL     1      31.213  -8.789 -21.762  0.00  0.00    +0.418 C 
ENDBRANCH  12  20
ENDBRANCH   4  11
BRANCH   3  21
ATOM     21  C   UNL     1      34.043 -17.026 -23.401  0.00  0.00    +0.058 C 
ATOM     22  C   UNL     1      34.577 -17.674 -22.287  0.00  0.00    +0.089 C 
ATOM     23  C   UNL     1      33.676 -17.764 -24.527  0.00  0.00    +0.015 C 
ATOM     24  C   UNL     1      34.744 -19.059 -22.299  0.00  0.00    +0.008 C 
ATOM     25  C   UNL     1      33.844 -19.149 -24.539  0.00  0.00    +0.001 C 
ATOM     26  C   UNL     1      34.377 -19.797 -23.425  0.00  0.00    +0.000 C 
BRANCH  22  28
ATOM     27  O   UNL     1      34.494 -15.855 -20.736  0.00  0.00    -0.245 OA
ATOM     28  C   UNL     1      34.970 -16.934 -21.095  0.00  0.00    +0.339 C 
BRANCH  28  29
ATOM     29  O   UNL     1      35.947 -17.568 -20.391  0.00  0.00    -0.477 OA
ATOM     30  H   UNL     1      36.609 -17.070 -19.955  0.00  0.00    +0.295 HD
ENDBRANCH  28  29
ENDBRANCH  22  28
ENDBRANCH   3  21
TORSDOF 5
ENDMDL
MODEL 4
REMARK VINA RESULT:      -9.8      8.064     12.466
REMARK  Name = 25138295
REMARK  5 active torsions:
REMARK  status: ('A' for Active; 'I' for Inactive)
REMARK    1  A    between atoms: N_3  and  C_21
REMARK    2  A    between atoms: C_4  and  C_11
REMARK    3  A    between atoms: C_12  and  C_20
REMARK    4  A    between atoms: C_22  and  C_28
REMARK    5  A    between atoms: C_28  and  O_29
REMARK                            x       y       z     vdW  Elec       q    Type
REMARK                         _______ _______ _______ _____ _____    ______ ____
ROOT
ATOM      1  O   UNL     1      30.367  -9.286 -22.077  0.00  0.00    -0.252 OA
ATOM      2  N   UNL     1      31.964 -10.614 -23.091  0.00  0.00    -0.264 N 
ATOM      3  N   UNL     1      32.486  -8.411 -22.432  0.00  0.00    -0.268 N 
ATOM      4  C   UNL     1      33.028 -13.305 -22.999  0.00  0.00    +0.026 C 
ATOM      5  C   UNL     1      33.940 -12.063 -22.912  0.00  0.00    +0.026 C 
ATOM      6  C   UNL     1      31.606 -12.973 -22.503  0.00  0.00    +0.026 C 
ATOM      7  C   UNL     1      33.305 -10.876 -23.634  0.00  0.00    +0.095 C 
ATOM      8  C   UNL     1      31.041 -11.745 -23.218  0.00  0.00    +0.095 C 
ATOM      9  C   UNL     1      31.516  -9.412 -22.506  0.00  0.00    +0.308 C 
ATOM     10  H   UNL     1      33.418  -8.713 -22.341  0.00  0.00    +0.156 HD
ENDROOT
BRANCH   4  11
ATOM     11  C   UNL     1      33.621 -14.498 -22.274  0.00  0.00    -0.018 C 
ATOM     12  C   UNL     1      34.070 -15.615 -22.977  0.00  0.00    +0.067 C 
ATOM     13  C   UNL     1      33.717 -14.465 -20.882  0.00  0.00    -0.004 C 
ATOM     14  C   UNL     1      34.614 -16.700 -22.290  0.00  0.00    +0.004 C 
ATOM     15  C   UNL     1      34.261 -15.550 -20.195  0.00  0.00    -0.000 C 
ATOM     16  C   UNL     1      34.709 -16.667 -20.898  0.00  0.00    -0.000 C 
BRANCH  12  20
ATOM     17  F   UNL     1      32.817 -15.157 -24.963  0.00  0.00    -0.166 F 
ATOM     18  F   UNL     1      34.974 -14.988 -25.101  0.00  0.00    -0.166 F 
ATOM     19  F   UNL     1      34.047 -16.950 -24.946  0.00  0.00    -0.166 F 
ATOM     20  C   UNL     1      33.978 -15.674 -24.467  0.00  0.00    +0.418 C 
ENDBRANCH  12  20
ENDBRANCH   4  11
BRANCH   3  21
ATOM     21  C   UNL     1      32.278  -7.011 -22.471  0.00  0.00    +0.058 C 
ATOM     22  C   UNL     1      32.187  -6.264 -21.296  0.00  0.00    +0.089 C 
ATOM     23  C   UNL     1      32.165  -6.378 -23.710  0.00  0.00    +0.015 C 
ATOM     24  C   UNL     1      31.983  -4.886 -21.360  0.00  0.00    +0.008 C 
ATOM     25  C   UNL     1      31.960  -4.999 -23.773  0.00  0.00    +0.001 C 
ATOM     26  C   UNL     1      31.869  -4.253 -22.598  0.00  0.00    +0.000 C 
BRANCH  22  28
ATOM     27  O   UNL     1      31.683  -7.896 -19.621  0.00  0.00    -0.245 OA
ATOM     28  C   UNL     1      32.301  -6.893 -19.987  0.00  0.00    +0.339 C 
BRANCH  28  29
ATOM     29  O   UNL     1      33.183  -6.247 -19.177  0.00  0.00    -0.477 OA
ATOM     30  H   UNL     1      34.103  -6.320 -19.334  0.00  0.00    +0.295 HD
ENDBRANCH  28  29
ENDBRANCH  22  28
ENDBRANCH   3  21
TORSDOF 5
ENDMDL
MODEL 5
REMARK VINA RESULT:      -9.7      8.365     12.701
REMARK  Name = 25138295
REMARK  5 active torsions:
REMARK  status: ('A' for Active; 'I' for Inactive)
REMARK    1  A    between atoms: N_3  and  C_21
REMARK    2  A    between atoms: C_4  and  C_11
REMARK    3  A    between atoms: C_12  and  C_20
REMARK    4  A    between atoms: C_22  and  C_28
REMARK    5  A    between atoms: C_28  and  O_29
REMARK                            x       y       z     vdW  Elec       q    Type
REMARK                         _______ _______ _______ _____ _____    ______ ____
ROOT
ATOM      1  O   UNL     1      30.689  -9.098 -20.656  0.00  0.00    -0.252 OA
ATOM      2  N   UNL     1      31.634 -10.496 -22.235  0.00  0.00    -0.264 N 
ATOM      3  N   UNL     1      32.460  -8.309 -21.931  0.00  0.00    -0.268 N 
ATOM      4  C   UNL     1      32.549 -13.224 -22.549  0.00  0.00    +0.026 C 
ATOM      5  C   UNL     1      33.443 -12.018 -22.906  0.00  0.00    +0.026 C 
ATOM      6  C   UNL     1      31.502 -12.833 -21.487  0.00  0.00    +0.026 C 
ATOM      7  C   UNL     1      32.590 -10.815 -23.305  0.00  0.00    +0.095 C 
ATOM      8  C   UNL     1      30.717 -11.592 -21.912  0.00  0.00    +0.095 C 
ATOM      9  C   UNL     1      31.527  -9.271 -21.544  0.00  0.00    +0.308 C 
ATOM     10  H   UNL     1      33.327  -8.644 -22.252  0.00  0.00    +0.156 HD
ENDROOT
BRANCH   4  11
ATOM     11  C   UNL     1      33.366 -14.432 -22.128  0.00  0.00    -0.018 C 
ATOM     12  C   UNL     1      33.826 -15.352 -23.070  0.00  0.00    +0.067 C 
ATOM     13  C   UNL     1      33.656 -14.614 -20.776  0.00  0.00    -0.004 C 
ATOM     14  C   UNL     1      34.576 -16.454 -22.661  0.00  0.00    +0.004 C 
ATOM     15  C   UNL     1      34.406 -15.716 -20.366  0.00  0.00    -0.000 C 
ATOM     16  C   UNL     1      34.866 -16.636 -21.308  0.00  0.00    -0.000 C 
BRANCH  12  20
ATOM     17  F   UNL     1      32.836 -14.036 -24.806  0.00  0.00    -0.166 F 
ATOM     18  F   UNL     1      34.646 -15.122 -25.305  0.00  0.00    -0.166 F 
ATOM     19  F   UNL     1      32.776 -16.198 -25.029  0.00  0.00    -0.166 F 
ATOM     20  C   UNL     1      33.528 -15.178 -24.524  0.00  0.00    +0.418 C 
ENDBRANCH  12  20
ENDBRANCH   4  11
BRANCH   3  21
ATOM     21  C   UNL     1      32.298  -6.901 -21.912  0.00  0.00    +0.058 C 
ATOM     22  C   UNL     1      32.803  -6.106 -22.941  0.00  0.00    +0.089 C 
ATOM     23  C   UNL     1      31.621  -6.312 -20.843  0.00  0.00    +0.015 C 
ATOM     24  C   UNL     1      32.630  -4.722 -22.901  0.00  0.00    +0.008 C 
ATOM     25  C   UNL     1      31.449  -4.928 -20.804  0.00  0.00    +0.001 C 
ATOM     26  C   UNL     1      31.953  -4.133 -21.833  0.00  0.00    +0.000 C 
BRANCH  22  28
ATOM     27  O   UNL     1      34.382  -7.561 -23.994  0.00  0.00    -0.245 OA
ATOM     28  C   UNL     1      33.515  -6.688 -24.071  0.00  0.00    +0.339 C 
BRANCH  28  29
ATOM     29  O   UNL     1      33.118  -6.160 -25.260  0.00  0.00    -0.477 OA
ATOM     30  H   UNL     1      33.716  -5.646 -25.767  0.00  0.00    +0.295 HD
ENDBRANCH  28  29
ENDBRANCH  22  28
ENDBRANCH   3  21
TORSDOF 5
ENDMDL
MODEL 6
REMARK VINA RESULT:      -9.5      8.853     13.166
REMARK  Name = 25138295
REMARK  5 active torsions:
REMARK  status: ('A' for Active; 'I' for Inactive)
REMARK    1  A    between atoms: N_3  and  C_21
REMARK    2  A    between atoms: C_4  and  C_11
REMARK    3  A    between atoms: C_12  and  C_20
REMARK    4  A    between atoms: C_22  and  C_28
REMARK    5  A    between atoms: C_28  and  O_29
REMARK                            x       y       z     vdW  Elec       q    Type
REMARK                         _______ _______ _______ _____ _____    ______ ____
ROOT
ATOM      1  O   UNL     1      30.832  -8.401 -20.363  0.00  0.00    -0.252 OA
ATOM      2  N   UNL     1      31.357  -9.895 -22.046  0.00  0.00    -0.264 N 
ATOM      3  N   UNL     1      32.233  -7.706 -22.077  0.00  0.00    -0.268 N 
ATOM      4  C   UNL     1      32.164 -12.649 -22.426  0.00  0.00    +0.026 C 
ATOM      5  C   UNL     1      32.942 -11.476 -23.059  0.00  0.00    +0.026 C 
ATOM      6  C   UNL     1      31.413 -12.186 -21.161  0.00  0.00    +0.026 C 
ATOM      7  C   UNL     1      32.018 -10.284 -23.300  0.00  0.00    +0.095 C 
ATOM      8  C   UNL     1      30.547 -10.959 -21.447  0.00  0.00    +0.095 C 
ATOM      9  C   UNL     1      31.425  -8.633 -21.420  0.00  0.00    +0.308 C 
ATOM     10  H   UNL     1      32.993  -8.070 -22.584  0.00  0.00    +0.156 HD
ENDROOT
BRANCH   4  11
ATOM     11  C   UNL     1      33.059 -13.843 -22.154  0.00  0.00    -0.018 C 
ATOM     12  C   UNL     1      33.541 -14.632 -23.198  0.00  0.00    +0.067 C 
ATOM     13  C   UNL     1      33.399 -14.147 -20.836  0.00  0.00    -0.004 C 
ATOM     14  C   UNL     1      34.364 -15.725 -22.925  0.00  0.00    +0.004 C 
ATOM     15  C   UNL     1      34.222 -15.239 -20.562  0.00  0.00    -0.000 C 
ATOM     16  C   UNL     1      34.704 -16.028 -21.606  0.00  0.00    -0.000 C 
BRANCH  12  20
ATOM     17  F   UNL     1      33.929 -13.314 -25.156  0.00  0.00    -0.166 F 
ATOM     18  F   UNL     1      33.365 -15.385 -25.461  0.00  0.00    -0.166 F 
ATOM     19  F   UNL     1      31.887 -13.950 -24.765  0.00  0.00    -0.166 F 
ATOM     20  C   UNL     1      33.190 -14.327 -24.618  0.00  0.00    +0.418 C 
ENDBRANCH  12  20
ENDBRANCH   4  11
BRANCH   3  21
ATOM     21  C   UNL     1      32.081  -6.297 -22.096  0.00  0.00    +0.058 C 
ATOM     22  C   UNL     1      32.108  -5.588 -23.298  0.00  0.00    +0.089 C 
ATOM     23  C   UNL     1      31.901  -5.619 -20.890  0.00  0.00    +0.015 C 
ATOM     24  C   UNL     1      31.956  -4.202 -23.292  0.00  0.00    +0.008 C 
ATOM     25  C   UNL     1      31.749  -4.233 -20.886  0.00  0.00    +0.001 C 
ATOM     26  C   UNL     1      31.776  -3.524 -22.086  0.00  0.00    +0.000 C 
BRANCH  22  28
ATOM     27  O   UNL     1      33.284  -6.154 -25.303  0.00  0.00    -0.245 OA
ATOM     28  C   UNL     1      32.295  -6.265 -24.575  0.00  0.00    +0.339 C 
BRANCH  28  29
ATOM     29  O   UNL     1      31.237  -7.057 -24.899  0.00  0.00    -0.477 OA
ATOM     30  H   UNL     1      30.388  -6.873 -24.549  0.00  0.00    +0.295 HD
ENDBRANCH  28  29
ENDBRANCH  22  28
ENDBRANCH   3  21
TORSDOF 5
ENDMDL
MODEL 7
REMARK VINA RESULT:      -9.5      4.655      9.339
REMARK  Name = 25138295
REMARK  5 active torsions:
REMARK  status: ('A' for Active; 'I' for Inactive)
REMARK    1  A    between atoms: N_3  and  C_21
REMARK    2  A    between atoms: C_4  and  C_11
REMARK    3  A    between atoms: C_12  and  C_20
REMARK    4  A    between atoms: C_22  and  C_28
REMARK    5  A    between atoms: C_28  and  O_29
REMARK                            x       y       z     vdW  Elec       q    Type
REMARK                         _______ _______ _______ _____ _____    ______ ____
ROOT
ATOM      1  O   UNL     1      33.089 -16.954 -24.933  0.00  0.00    -0.252 OA
ATOM      2  N   UNL     1      34.208 -17.399 -22.960  0.00  0.00    -0.264 N 
ATOM      3  N   UNL     1      33.278 -15.268 -23.350  0.00  0.00    -0.268 N 
ATOM      4  C   UNL     1      34.405 -19.428 -20.905  0.00  0.00    +0.026 C 
ATOM      5  C   UNL     1      34.146 -17.946 -20.565  0.00  0.00    +0.026 C 
ATOM      6  C   UNL     1      33.914 -19.756 -22.330  0.00  0.00    +0.026 C 
ATOM      7  C   UNL     1      34.739 -17.035 -21.639  0.00  0.00    +0.095 C 
ATOM      8  C   UNL     1      34.495 -18.781 -23.355  0.00  0.00    +0.095 C 
ATOM      9  C   UNL     1      33.498 -16.556 -23.839  0.00  0.00    +0.308 C 
ATOM     10  H   UNL     1      33.197 -15.179 -22.373  0.00  0.00    +0.156 HD
ENDROOT
BRANCH   4  11
ATOM     11  C   UNL     1      33.810 -20.362 -19.867  0.00  0.00    -0.018 C 
ATOM     12  C   UNL     1      34.628 -21.093 -19.007  0.00  0.00    +0.067 C 
ATOM     13  C   UNL     1      32.423 -20.481 -19.781  0.00  0.00    -0.004 C 
ATOM     14  C   UNL     1      34.059 -21.944 -18.059  0.00  0.00    +0.004 C 
ATOM     15  C   UNL     1      31.854 -21.332 -18.834  0.00  0.00    -0.000 C 
ATOM     16  C   UNL     1      32.671 -22.063 -17.973  0.00  0.00    -0.000 C 
BRANCH  12  20
ATOM     17  F   UNL     1      36.654 -21.582 -20.181  0.00  0.00    -0.166 F 
ATOM     18  F   UNL     1      36.564 -19.694 -19.118  0.00  0.00    -0.166 F 
ATOM     19  F   UNL     1      36.736 -21.556 -18.008  0.00  0.00    -0.166 F 
ATOM     20  C   UNL     1      36.116 -20.982 -19.080  0.00  0.00    +0.418 C 
ENDBRANCH  12  20
ENDBRANCH   4  11
BRANCH   3  21
ATOM     21  C   UNL     1      33.157 -14.074 -24.103  0.00  0.00    +0.058 C 
ATOM     22  C   UNL     1      33.099 -12.830 -23.473  0.00  0.00    +0.089 C 
ATOM     23  C   UNL     1      33.096 -14.154 -25.494  0.00  0.00    +0.015 C 
ATOM     24  C   UNL     1      32.981 -11.668 -24.235  0.00  0.00    +0.008 C 
ATOM     25  C   UNL     1      32.977 -12.991 -26.255  0.00  0.00    +0.001 C 
ATOM     26  C   UNL     1      32.920 -11.748 -25.626  0.00  0.00    +0.000 C 
BRANCH  22  28
ATOM     27  O   UNL     1      33.995 -13.255 -21.296  0.00  0.00    -0.245 OA
ATOM     28  C   UNL     1      33.160 -12.711 -22.022  0.00  0.00    +0.339 C 
BRANCH  28  29
ATOM     29  O   UNL     1      32.175 -11.914 -21.527  0.00  0.00    -0.477 OA
ATOM     30  H   UNL     1      31.277 -12.112 -21.707  0.00  0.00    +0.295 HD
ENDBRANCH  28  29
ENDBRANCH  22  28
ENDBRANCH   3  21
TORSDOF 5
ENDMDL
MODEL 8
REMARK VINA RESULT:      -9.1      8.617     11.998
REMARK  Name = 25138295
REMARK  5 active torsions:
REMARK  status: ('A' for Active; 'I' for Inactive)
REMARK    1  A    between atoms: N_3  and  C_21
REMARK    2  A    between atoms: C_4  and  C_11
REMARK    3  A    between atoms: C_12  and  C_20
REMARK    4  A    between atoms: C_22  and  C_28
REMARK    5  A    between atoms: C_28  and  O_29
REMARK                            x       y       z     vdW  Elec       q    Type
REMARK                         _______ _______ _______ _____ _____    ______ ____
ROOT
ATOM      1  O   UNL     1      31.048 -12.795 -22.676  0.00  0.00    -0.252 OA
ATOM      2  N   UNL     1      32.344 -10.895 -22.443  0.00  0.00    -0.264 N 
ATOM      3  N   UNL     1      33.216 -12.812 -23.503  0.00  0.00    -0.268 N 
ATOM      4  C   UNL     1      32.185  -8.022 -22.761  0.00  0.00    +0.026 C 
ATOM      5  C   UNL     1      33.307  -8.855 -23.416  0.00  0.00    +0.026 C 
ATOM      6  C   UNL     1      30.931  -8.887 -22.526  0.00  0.00    +0.026 C 
ATOM      7  C   UNL     1      33.582 -10.120 -22.605  0.00  0.00    +0.095 C 
ATOM      8  C   UNL     1      31.273 -10.165 -21.760  0.00  0.00    +0.095 C 
ATOM      9  C   UNL     1      32.128 -12.226 -22.856  0.00  0.00    +0.308 C 
ATOM     10  H   UNL     1      33.803 -12.205 -24.008  0.00  0.00    +0.156 HD
ENDROOT
BRANCH   4  11
ATOM     11  C   UNL     1      31.873  -6.766 -23.553  0.00  0.00    -0.018 C 
ATOM     12  C   UNL     1      31.743  -5.531 -22.919  0.00  0.00    +0.067 C 
ATOM     13  C   UNL     1      31.717  -6.861 -24.936  0.00  0.00    -0.004 C 
ATOM     14  C   UNL     1      31.458  -4.389 -23.668  0.00  0.00    +0.004 C 
ATOM     15  C   UNL     1      31.431  -5.719 -25.685  0.00  0.00    -0.000 C 
ATOM     16  C   UNL     1      31.302  -4.484 -25.051  0.00  0.00    -0.000 C 
BRANCH  12  20
ATOM     17  F   UNL     1      30.866  -5.931 -20.730  0.00  0.00    -0.166 F 
ATOM     18  F   UNL     1      33.020  -6.032 -20.960  0.00  0.00    -0.166 F 
ATOM     19  F   UNL     1      32.010  -4.107 -21.033  0.00  0.00    -0.166 F 
ATOM     20  C   UNL     1      31.906  -5.405 -21.439  0.00  0.00    +0.418 C 
ENDBRANCH  12  20
ENDBRANCH   4  11
BRANCH   3  21
ATOM     21  C   UNL     1      33.569 -14.184 -23.515  0.00  0.00    +0.058 C 
ATOM     22  C   UNL     1      33.973 -14.832 -22.347  0.00  0.00    +0.089 C 
ATOM     23  C   UNL     1      33.507 -14.889 -24.717  0.00  0.00    +0.015 C 
ATOM     24  C   UNL     1      34.315 -16.184 -22.383  0.00  0.00    +0.008 C 
ATOM     25  C   UNL     1      33.850 -16.241 -24.752  0.00  0.00    +0.001 C 
ATOM     26  C   UNL     1      34.254 -16.888 -23.585  0.00  0.00    +0.000 C 
BRANCH  22  28
ATOM     27  O   UNL     1      34.327 -12.932 -20.937  0.00  0.00    -0.245 OA
ATOM     28  C   UNL     1      34.049 -14.126 -21.075  0.00  0.00    +0.339 C 
BRANCH  28  29
ATOM     29  O   UNL     1      33.775 -14.936 -20.017  0.00  0.00    -0.477 OA
ATOM     30  H   UNL     1      34.464 -15.207 -19.443  0.00  0.00    +0.295 HD
ENDBRANCH  28  29
ENDBRANCH  22  28
ENDBRANCH   3  21
TORSDOF 5
ENDMDL
MODEL 9
REMARK VINA RESULT:      -9.0      8.494     11.766
REMARK  Name = 25138295
REMARK  5 active torsions:
REMARK  status: ('A' for Active; 'I' for Inactive)
REMARK    1  A    between atoms: N_3  and  C_21
REMARK    2  A    between atoms: C_4  and  C_11
REMARK    3  A    between atoms: C_12  and  C_20
REMARK    4  A    between atoms: C_22  and  C_28
REMARK    5  A    between atoms: C_28  and  O_29
REMARK                            x       y       z     vdW  Elec       q    Type
REMARK                         _______ _______ _______ _____ _____    ______ ____
ROOT
ATOM      1  O   UNL     1      33.863 -11.704 -24.620  0.00  0.00    -0.252 OA
ATOM      2  N   UNL     1      32.167 -10.860 -23.296  0.00  0.00    -0.264 N 
ATOM      3  N   UNL     1      33.165 -12.933 -22.780  0.00  0.00    -0.268 N 
ATOM      4  C   UNL     1      31.323  -8.393 -22.039  0.00  0.00    +0.026 C 
ATOM      5  C   UNL     1      31.452  -9.710 -21.246  0.00  0.00    +0.026 C 
ATOM      6  C   UNL     1      32.251  -8.405 -23.271  0.00  0.00    +0.026 C 
ATOM      7  C   UNL     1      31.235 -10.914 -22.161  0.00  0.00    +0.095 C 
ATOM      8  C   UNL     1      32.030  -9.657 -24.120  0.00  0.00    +0.095 C 
ATOM      9  C   UNL     1      33.121 -11.839 -23.644  0.00  0.00    +0.308 C 
ATOM     10  H   UNL     1      32.924 -12.760 -21.842  0.00  0.00    +0.156 HD
ENDROOT
BRANCH   4  11
ATOM     11  C   UNL     1      31.553  -7.176 -21.162  0.00  0.00    -0.018 C 
ATOM     12  C   UNL     1      31.126  -5.911 -21.563  0.00  0.00    +0.067 C 
ATOM     13  C   UNL     1      32.202  -7.338 -19.938  0.00  0.00    -0.004 C 
ATOM     14  C   UNL     1      31.346  -4.807 -20.740  0.00  0.00    +0.004 C 
ATOM     15  C   UNL     1      32.423  -6.234 -19.114  0.00  0.00    -0.000 C 
ATOM     16  C   UNL     1      31.995  -4.969 -19.515  0.00  0.00    -0.000 C 
BRANCH  12  20
ATOM     17  F   UNL     1      31.279  -5.624 -23.933  0.00  0.00    -0.166 F 
ATOM     18  F   UNL     1      29.565  -6.723 -23.184  0.00  0.00    -0.166 F 
ATOM     19  F   UNL     1      29.684  -4.570 -22.897  0.00  0.00    -0.166 F 
ATOM     20  C   UNL     1      30.428  -5.713 -22.869  0.00  0.00    +0.418 C 
ENDBRANCH  12  20
ENDBRANCH   4  11
BRANCH   3  21
ATOM     21  C   UNL     1      33.518 -14.267 -23.103  0.00  0.00    +0.058 C 
ATOM     22  C   UNL     1      33.979 -15.145 -22.122  0.00  0.00    +0.089 C 
ATOM     23  C   UNL     1      33.400 -14.698 -24.425  0.00  0.00    +0.015 C 
ATOM     24  C   UNL     1      34.320 -16.454 -22.463  0.00  0.00    +0.008 C 
ATOM     25  C   UNL     1      33.741 -16.006 -24.765  0.00  0.00    +0.001 C 
ATOM     26  C   UNL     1      34.202 -16.885 -23.785  0.00  0.00    +0.000 C 
BRANCH  22  28
ATOM     27  O   UNL     1      34.176 -13.560 -20.341  0.00  0.00    -0.245 OA
ATOM     28  C   UNL     1      34.115 -14.728 -20.732  0.00  0.00    +0.339 C 
BRANCH  28  29
ATOM     29  O   UNL     1      34.171 -15.785 -19.878  0.00  0.00    -0.477 OA
ATOM     30  H   UNL     1      34.002 -15.660 -18.965  0.00  0.00    +0.295 HD
ENDBRANCH  28  29
ENDBRANCH  22  28
ENDBRANCH   3  21
TORSDOF 5
ENDMDL
