MODEL 1
REMARK VINA RESULT:     -11.1      0.000      0.000
REMARK  Name = 25271580
REMARK  8 active torsions:
REMARK  status: ('A' for Active; 'I' for Inactive)
REMARK    1  A    between atoms: S_1  and  C_4
REMARK    2  A    between atoms: S_1  and  N_16
REMARK    3  A    between atoms: C_7  and  C_10
REMARK    4  A    between atoms: N_16  and  C_18
REMARK    5  A    between atoms: C_18  and  C_20
REMARK    6  A    between atoms: C_18  and  C_23
REMARK    7  A    between atoms: C_20  and  O_21
REMARK    8  A    between atoms: C_23  and  C_24
REMARK                            x       y       z     vdW  Elec       q    Type
REMARK                         _______ _______ _______ _____ _____    ______ ____
ROOT
ATOM      1  S   UNL     1      35.924 -23.151 -15.162  0.00  0.00    +0.061 S 
ATOM      2  O   UNL     1      35.469 -22.358 -14.036  0.00  0.00    -0.153 OA
ATOM      3  O   UNL     1      35.322 -24.441 -15.437  0.00  0.00    -0.153 OA
ENDROOT
BRANCH   1   4
ATOM      4  C   UNL     1      35.743 -22.175 -16.624  0.00  0.00    +0.122 C 
ATOM      5  C   UNL     1      34.623 -22.342 -17.440  0.00  0.00    +0.020 C 
ATOM      6  C   UNL     1      36.718 -21.236 -16.961  0.00  0.00    +0.020 C 
ATOM      7  C   UNL     1      35.456 -20.633 -18.931  0.00  0.00    +0.000 C 
ATOM      8  C   UNL     1      34.480 -21.571 -18.593  0.00  0.00    +0.001 C 
ATOM      9  C   UNL     1      36.575 -20.465 -18.115  0.00  0.00    +0.001 C 
BRANCH   7  10
ATOM     10  C   UNL     1      35.307 -19.833 -20.127  0.00  0.00    +0.000 C 
ATOM     11  C   UNL     1      36.356 -19.021 -20.559  0.00  0.00    +0.000 C 
ATOM     12  C   UNL     1      34.115 -19.875 -20.851  0.00  0.00    +0.000 C 
ATOM     13  C   UNL     1      36.213 -18.250 -21.712  0.00  0.00    +0.000 C 
ATOM     14  C   UNL     1      33.972 -19.104 -22.005  0.00  0.00    +0.000 C 
ATOM     15  C   UNL     1      35.020 -18.292 -22.435  0.00  0.00    +0.000 C 
ENDBRANCH   7  10
ENDBRANCH   1   4
BRANCH   1  16
ATOM     16  N   UNL     1      37.611 -23.339 -15.076  0.00  0.00    -0.170 NA
ATOM     17  H   UNL     1      37.980 -22.493 -14.644  0.00  0.00    +0.149 HD
BRANCH  16  18
ATOM     18  C   UNL     1      38.191 -24.484 -14.337  0.00  0.00    +0.174 C 
BRANCH  18  20
ATOM     19  O   UNL     1      40.587 -24.031 -14.237  0.00  0.00    -0.249 OA
ATOM     20  C   UNL     1      39.636 -24.594 -14.761  0.00  0.00    +0.330 C 
BRANCH  20  21
ATOM     21  O   UNL     1      39.757 -25.430 -15.826  0.00  0.00    -0.479 OA
ATOM     22  H   UNL     1      40.111 -25.112 -16.632  0.00  0.00    +0.295 HD
ENDBRANCH  20  21
ENDBRANCH  18  20
BRANCH  18  23
ATOM     23  C   UNL     1      38.078 -24.242 -12.830  0.00  0.00    +0.029 C 
BRANCH  23  24
ATOM     24  C   UNL     1      37.221 -25.276 -12.069  0.00  0.00    +0.002 C 
ATOM     25  C   UNL     1      36.724 -26.401 -12.978  0.00  0.00    +0.000 C 
ATOM     26  C   UNL     1      36.027 -24.576 -11.415  0.00  0.00    +0.000 C 
ENDBRANCH  23  24
ENDBRANCH  18  23
ENDBRANCH  16  18
ENDBRANCH   1  16
TORSDOF 8
ENDMDL
MODEL 2
REMARK VINA RESULT:     -11.0      7.711     11.417
REMARK  Name = 25271580
REMARK  8 active torsions:
REMARK  status: ('A' for Active; 'I' for Inactive)
REMARK    1  A    between atoms: S_1  and  C_4
REMARK    2  A    between atoms: S_1  and  N_16
REMARK    3  A    between atoms: C_7  and  C_10
REMARK    4  A    between atoms: N_16  and  C_18
REMARK    5  A    between atoms: C_18  and  C_20
REMARK    6  A    between atoms: C_18  and  C_23
REMARK    7  A    between atoms: C_20  and  O_21
REMARK    8  A    between atoms: C_23  and  C_24
REMARK                            x       y       z     vdW  Elec       q    Type
REMARK                         _______ _______ _______ _____ _____    ______ ____
ROOT
ATOM      1  S   UNL     1      33.904 -15.425 -24.435  0.00  0.00    +0.061 S 
ATOM      2  O   UNL     1      35.231 -14.948 -24.773  0.00  0.00    -0.153 OA
ATOM      3  O   UNL     1      33.022 -15.925 -25.471  0.00  0.00    -0.153 OA
ENDROOT
BRANCH   1   4
ATOM      4  C   UNL     1      34.077 -16.715 -23.238  0.00  0.00    +0.122 C 
ATOM      5  C   UNL     1      34.595 -16.428 -21.975  0.00  0.00    +0.020 C 
ATOM      6  C   UNL     1      33.694 -18.018 -23.557  0.00  0.00    +0.020 C 
ATOM      7  C   UNL     1      34.349 -18.749 -21.350  0.00  0.00    +0.000 C 
ATOM      8  C   UNL     1      34.732 -17.445 -21.031  0.00  0.00    +0.001 C 
ATOM      9  C   UNL     1      33.830 -19.035 -22.612  0.00  0.00    +0.001 C 
BRANCH   7  10
ATOM     10  C   UNL     1      34.490 -19.804 -20.370  0.00  0.00    +0.000 C 
ATOM     11  C   UNL     1      33.361 -20.476 -19.900  0.00  0.00    +0.000 C 
ATOM     12  C   UNL     1      35.755 -20.151 -19.895  0.00  0.00    +0.000 C 
ATOM     13  C   UNL     1      33.497 -21.493 -18.955  0.00  0.00    +0.000 C 
ATOM     14  C   UNL     1      35.891 -21.169 -18.950  0.00  0.00    +0.000 C 
ATOM     15  C   UNL     1      34.762 -21.839 -18.480  0.00  0.00    +0.000 C 
ENDBRANCH   7  10
ENDBRANCH   1   4
BRANCH   1  16
ATOM     16  N   UNL     1      33.083 -14.232 -23.545  0.00  0.00    -0.170 NA
ATOM     17  H   UNL     1      32.677 -14.697 -22.734  0.00  0.00    +0.149 HD
BRANCH  16  18
ATOM     18  C   UNL     1      33.818 -13.052 -23.038  0.00  0.00    +0.174 C 
BRANCH  18  20
ATOM     19  O   UNL     1      33.360 -10.681 -23.394  0.00  0.00    -0.249 OA
ATOM     20  C   UNL     1      33.260 -11.845 -23.754  0.00  0.00    +0.330 C 
BRANCH  20  21
ATOM     21  O   UNL     1      32.619 -12.222 -24.892  0.00  0.00    -0.479 OA
ATOM     22  H   UNL     1      32.951 -12.932 -25.403  0.00  0.00    +0.295 HD
ENDBRANCH  20  21
ENDBRANCH  18  20
BRANCH  18  23
ATOM     23  C   UNL     1      33.626 -12.928 -21.524  0.00  0.00    +0.029 C 
BRANCH  23  24
ATOM     24  C   UNL     1      32.164 -13.040 -21.044  0.00  0.00    +0.002 C 
ATOM     25  C   UNL     1      31.602 -11.697 -20.574  0.00  0.00    +0.000 C 
ATOM     26  C   UNL     1      32.069 -14.064 -19.910  0.00  0.00    +0.000 C 
ENDBRANCH  23  24
ENDBRANCH  18  23
ENDBRANCH  16  18
ENDBRANCH   1  16
TORSDOF 8
ENDMDL
MODEL 3
REMARK VINA RESULT:     -10.9      4.016      5.593
REMARK  Name = 25271580
REMARK  8 active torsions:
REMARK  status: ('A' for Active; 'I' for Inactive)
REMARK    1  A    between atoms: S_1  and  C_4
REMARK    2  A    between atoms: S_1  and  N_16
REMARK    3  A    between atoms: C_7  and  C_10
REMARK    4  A    between atoms: N_16  and  C_18
REMARK    5  A    between atoms: C_18  and  C_20
REMARK    6  A    between atoms: C_18  and  C_23
REMARK    7  A    between atoms: C_20  and  O_21
REMARK    8  A    between atoms: C_23  and  C_24
REMARK                            x       y       z     vdW  Elec       q    Type
REMARK                         _______ _______ _______ _____ _____    ______ ____
ROOT
ATOM      1  S   UNL     1      33.455 -22.892 -17.454  0.00  0.00    +0.061 S 
ATOM      2  O   UNL     1      33.073 -24.115 -18.134  0.00  0.00    -0.153 OA
ATOM      3  O   UNL     1      34.634 -22.862 -16.612  0.00  0.00    -0.153 OA
ENDROOT
BRANCH   1   4
ATOM      4  C   UNL     1      33.661 -21.631 -18.677  0.00  0.00    +0.122 C 
ATOM      5  C   UNL     1      34.943 -21.254 -19.079  0.00  0.00    +0.020 C 
ATOM      6  C   UNL     1      32.543 -21.015 -19.239  0.00  0.00    +0.020 C 
ATOM      7  C   UNL     1      33.987 -19.644 -20.606  0.00  0.00    +0.000 C 
ATOM      8  C   UNL     1      35.106 -20.260 -20.044  0.00  0.00    +0.001 C 
ATOM      9  C   UNL     1      32.706 -20.021 -20.204  0.00  0.00    +0.001 C 
BRANCH   7  10
ATOM     10  C   UNL     1      34.157 -18.613 -21.607  0.00  0.00    +0.000 C 
ATOM     11  C   UNL     1      34.706 -17.380 -21.252  0.00  0.00    +0.000 C 
ATOM     12  C   UNL     1      33.774 -18.850 -22.927  0.00  0.00    +0.000 C 
ATOM     13  C   UNL     1      34.870 -16.385 -22.216  0.00  0.00    +0.000 C 
ATOM     14  C   UNL     1      33.938 -17.857 -23.892  0.00  0.00    +0.000 C 
ATOM     15  C   UNL     1      34.485 -16.624 -23.536  0.00  0.00    +0.000 C 
ENDBRANCH   7  10
ENDBRANCH   1   4
BRANCH   1  16
ATOM     16  N   UNL     1      32.130 -22.302 -16.566  0.00  0.00    -0.170 NA
ATOM     17  H   UNL     1      31.490 -21.879 -17.238  0.00  0.00    +0.149 HD
BRANCH  16  18
ATOM     18  C   UNL     1      31.329 -23.226 -15.734  0.00  0.00    +0.174 C 
BRANCH  18  20
ATOM     19  O   UNL     1      32.087 -24.453 -13.764  0.00  0.00    -0.249 OA
ATOM     20  C   UNL     1      32.097 -23.442 -14.451  0.00  0.00    +0.330 C 
BRANCH  20  21
ATOM     21  O   UNL     1      32.834 -22.340 -14.148  0.00  0.00    -0.479 OA
ATOM     22  H   UNL     1      33.421 -21.981 -14.783  0.00  0.00    +0.295 HD
ENDBRANCH  20  21
ENDBRANCH  18  20
BRANCH  18  23
ATOM     23  C   UNL     1      29.954 -22.614 -15.452  0.00  0.00    +0.029 C 
BRANCH  23  24
ATOM     24  C   UNL     1      28.756 -23.531 -15.776  0.00  0.00    +0.002 C 
ATOM     25  C   UNL     1      27.450 -22.749 -15.928  0.00  0.00    +0.000 C 
ATOM     26  C   UNL     1      28.600 -24.585 -14.677  0.00  0.00    +0.000 C 
ENDBRANCH  23  24
ENDBRANCH  18  23
ENDBRANCH  16  18
ENDBRANCH   1  16
TORSDOF 8
ENDMDL
MODEL 4
REMARK VINA RESULT:     -10.8      1.351      1.744
REMARK  Name = 25271580
REMARK  8 active torsions:
REMARK  status: ('A' for Active; 'I' for Inactive)
REMARK    1  A    between atoms: S_1  and  C_4
REMARK    2  A    between atoms: S_1  and  N_16
REMARK    3  A    between atoms: C_7  and  C_10
REMARK    4  A    between atoms: N_16  and  C_18
REMARK    5  A    between atoms: C_18  and  C_20
REMARK    6  A    between atoms: C_18  and  C_23
REMARK    7  A    between atoms: C_20  and  O_21
REMARK    8  A    between atoms: C_23  and  C_24
REMARK                            x       y       z     vdW  Elec       q    Type
REMARK                         _______ _______ _______ _____ _____    ______ ____
ROOT
ATOM      1  S   UNL     1      34.724 -23.267 -15.511  0.00  0.00    +0.061 S 
ATOM      2  O   UNL     1      34.533 -22.400 -14.364  0.00  0.00    -0.153 OA
ATOM      3  O   UNL     1      33.751 -24.298 -15.816  0.00  0.00    -0.153 OA
ENDROOT
BRANCH   1   4
ATOM      4  C   UNL     1      34.863 -22.247 -16.948  0.00  0.00    +0.122 C 
ATOM      5  C   UNL     1      33.787 -22.133 -17.829  0.00  0.00    +0.020 C 
ATOM      6  C   UNL     1      36.048 -21.556 -17.201  0.00  0.00    +0.020 C 
ATOM      7  C   UNL     1      35.082 -20.637 -19.215  0.00  0.00    +0.000 C 
ATOM      8  C   UNL     1      33.896 -21.328 -18.962  0.00  0.00    +0.001 C 
ATOM      9  C   UNL     1      36.158 -20.750 -18.334  0.00  0.00    +0.001 C 
BRANCH   7  10
ATOM     10  C   UNL     1      35.195 -19.801 -20.391  0.00  0.00    +0.000 C 
ATOM     11  C   UNL     1      36.352 -19.051 -20.605  0.00  0.00    +0.000 C 
ATOM     12  C   UNL     1      34.149 -19.746 -21.312  0.00  0.00    +0.000 C 
ATOM     13  C   UNL     1      36.463 -18.246 -21.738  0.00  0.00    +0.000 C 
ATOM     14  C   UNL     1      34.259 -18.941 -22.446  0.00  0.00    +0.000 C 
ATOM     15  C   UNL     1      35.415 -18.191 -22.659  0.00  0.00    +0.000 C 
ENDBRANCH   7  10
ENDBRANCH   1   4
BRANCH   1  16
ATOM     16  N   UNL     1      36.268 -23.974 -15.435  0.00  0.00    -0.170 NA
ATOM     17  H   UNL     1      36.942 -23.210 -15.426  0.00  0.00    +0.149 HD
BRANCH  16  18
ATOM     18  C   UNL     1      36.617 -24.866 -14.307  0.00  0.00    +0.174 C 
BRANCH  18  20
ATOM     19  O   UNL     1      36.283 -26.779 -15.786  0.00  0.00    -0.249 OA
ATOM     20  C   UNL     1      36.912 -26.226 -14.896  0.00  0.00    +0.330 C 
BRANCH  20  21
ATOM     21  O   UNL     1      38.004 -26.774 -14.301  0.00  0.00    -0.479 OA
ATOM     22  H   UNL     1      37.971 -27.022 -13.399  0.00  0.00    +0.295 HD
ENDBRANCH  20  21
ENDBRANCH  18  20
BRANCH  18  23
ATOM     23  C   UNL     1      37.838 -24.314 -13.565  0.00  0.00    +0.029 C 
BRANCH  23  24
ATOM     24  C   UNL     1      37.600 -23.989 -12.076  0.00  0.00    +0.002 C 
ATOM     25  C   UNL     1      36.565 -24.916 -11.436  0.00  0.00    +0.000 C 
ATOM     26  C   UNL     1      37.146 -22.533 -11.931  0.00  0.00    +0.000 C 
ENDBRANCH  23  24
ENDBRANCH  18  23
ENDBRANCH  16  18
ENDBRANCH   1  16
TORSDOF 8
ENDMDL
MODEL 5
REMARK VINA RESULT:     -10.8      2.722      3.929
REMARK  Name = 25271580
REMARK  8 active torsions:
REMARK  status: ('A' for Active; 'I' for Inactive)
REMARK    1  A    between atoms: S_1  and  C_4
REMARK    2  A    between atoms: S_1  and  N_16
REMARK    3  A    between atoms: C_7  and  C_10
REMARK    4  A    between atoms: N_16  and  C_18
REMARK    5  A    between atoms: C_18  and  C_20
REMARK    6  A    between atoms: C_18  and  C_23
REMARK    7  A    between atoms: C_20  and  O_21
REMARK    8  A    between atoms: C_23  and  C_24
REMARK                            x       y       z     vdW  Elec       q    Type
REMARK                         _______ _______ _______ _____ _____    ______ ____
ROOT
ATOM      1  S   UNL     1      33.045 -22.941 -17.592  0.00  0.00    +0.061 S 
ATOM      2  O   UNL     1      31.972 -22.498 -16.722  0.00  0.00    -0.153 OA
ATOM      3  O   UNL     1      32.919 -24.180 -18.333  0.00  0.00    -0.153 OA
ENDROOT
BRANCH   1   4
ATOM      4  C   UNL     1      33.353 -21.662 -18.772  0.00  0.00    +0.122 C 
ATOM      5  C   UNL     1      32.286 -20.965 -19.340  0.00  0.00    +0.020 C 
ATOM      6  C   UNL     1      34.663 -21.349 -19.136  0.00  0.00    +0.020 C 
ATOM      7  C   UNL     1      33.839 -19.644 -20.634  0.00  0.00    +0.000 C 
ATOM      8  C   UNL     1      32.529 -19.957 -20.271  0.00  0.00    +0.001 C 
ATOM      9  C   UNL     1      34.906 -20.339 -20.067  0.00  0.00    +0.001 C 
BRANCH   7  10
ATOM     10  C   UNL     1      34.091 -18.596 -21.601  0.00  0.00    +0.000 C 
ATOM     11  C   UNL     1      34.650 -17.386 -21.188  0.00  0.00    +0.000 C 
ATOM     12  C   UNL     1      33.776 -18.795 -22.945  0.00  0.00    +0.000 C 
ATOM     13  C   UNL     1      34.893 -16.376 -22.118  0.00  0.00    +0.000 C 
ATOM     14  C   UNL     1      34.019 -17.786 -23.876  0.00  0.00    +0.000 C 
ATOM     15  C   UNL     1      34.577 -16.576 -23.463  0.00  0.00    +0.000 C 
ENDBRANCH   7  10
ENDBRANCH   1   4
BRANCH   1  16
ATOM     16  N   UNL     1      34.504 -22.969 -16.719  0.00  0.00    -0.170 NA
ATOM     17  H   UNL     1      35.133 -22.311 -17.177  0.00  0.00    +0.149 HD
BRANCH  16  18
ATOM     18  C   UNL     1      34.509 -22.634 -15.278  0.00  0.00    +0.174 C 
BRANCH  18  20
ATOM     19  O   UNL     1      33.576 -24.064 -13.534  0.00  0.00    -0.249 OA
ATOM     20  C   UNL     1      34.277 -23.923 -14.526  0.00  0.00    +0.330 C 
BRANCH  20  21
ATOM     21  O   UNL     1      34.960 -24.943 -15.110  0.00  0.00    -0.479 OA
ATOM     22  H   UNL     1      35.097 -25.742 -14.642  0.00  0.00    +0.295 HD
ENDBRANCH  20  21
ENDBRANCH  18  20
BRANCH  18  23
ATOM     23  C   UNL     1      35.853 -22.009 -14.893  0.00  0.00    +0.029 C 
BRANCH  23  24
ATOM     24  C   UNL     1      36.916 -22.015 -16.011  0.00  0.00    +0.002 C 
ATOM     25  C   UNL     1      38.185 -22.764 -15.604  0.00  0.00    +0.000 C 
ATOM     26  C   UNL     1      37.269 -20.575 -16.396  0.00  0.00    +0.000 C 
ENDBRANCH  23  24
ENDBRANCH  18  23
ENDBRANCH  16  18
ENDBRANCH   1  16
TORSDOF 8
ENDMDL
MODEL 6
REMARK VINA RESULT:     -10.5      2.865      4.684
REMARK  Name = 25271580
REMARK  8 active torsions:
REMARK  status: ('A' for Active; 'I' for Inactive)
REMARK    1  A    between atoms: S_1  and  C_4
REMARK    2  A    between atoms: S_1  and  N_16
REMARK    3  A    between atoms: C_7  and  C_10
REMARK    4  A    between atoms: N_16  and  C_18
REMARK    5  A    between atoms: C_18  and  C_20
REMARK    6  A    between atoms: C_18  and  C_23
REMARK    7  A    between atoms: C_20  and  O_21
REMARK    8  A    between atoms: C_23  and  C_24
REMARK                            x       y       z     vdW  Elec       q    Type
REMARK                         _______ _______ _______ _____ _____    ______ ____
ROOT
ATOM      1  S   UNL     1      34.964 -23.153 -15.417  0.00  0.00    +0.061 S 
ATOM      2  O   UNL     1      34.580 -24.497 -15.804  0.00  0.00    -0.153 OA
ATOM      3  O   UNL     1      36.199 -22.927 -14.692  0.00  0.00    -0.153 OA
ENDROOT
BRANCH   1   4
ATOM      4  C   UNL     1      35.037 -22.164 -16.881  0.00  0.00    +0.122 C 
ATOM      5  C   UNL     1      36.194 -21.443 -17.179  0.00  0.00    +0.020 C 
ATOM      6  C   UNL     1      33.938 -22.106 -17.738  0.00  0.00    +0.020 C 
ATOM      7  C   UNL     1      35.152 -20.605 -19.190  0.00  0.00    +0.000 C 
ATOM      8  C   UNL     1      36.251 -20.664 -18.333  0.00  0.00    +0.001 C 
ATOM      9  C   UNL     1      33.995 -21.326 -18.893  0.00  0.00    +0.001 C 
BRANCH   7  10
ATOM     10  C   UNL     1      35.212 -19.796 -20.389  0.00  0.00    +0.000 C 
ATOM     11  C   UNL     1      34.137 -19.786 -21.278  0.00  0.00    +0.000 C 
ATOM     12  C   UNL     1      36.343 -19.025 -20.655  0.00  0.00    +0.000 C 
ATOM     13  C   UNL     1      34.193 -19.006 -22.433  0.00  0.00    +0.000 C 
ATOM     14  C   UNL     1      36.400 -18.244 -21.810  0.00  0.00    +0.000 C 
ATOM     15  C   UNL     1      35.326 -18.235 -22.699  0.00  0.00    +0.000 C 
ENDBRANCH   7  10
ENDBRANCH   1   4
BRANCH   1  16
ATOM     16  N   UNL     1      33.686 -22.423 -14.567  0.00  0.00    -0.170 NA
ATOM     17  H   UNL     1      33.369 -21.635 -15.131  0.00  0.00    +0.149 HD
BRANCH  16  18
ATOM     18  C   UNL     1      32.483 -23.212 -14.220  0.00  0.00    +0.174 C 
BRANCH  18  20
ATOM     19  O   UNL     1      33.695 -23.684 -12.154  0.00  0.00    -0.249 OA
ATOM     20  C   UNL     1      32.794 -23.946 -12.937  0.00  0.00    +0.330 C 
BRANCH  20  21
ATOM     21  O   UNL     1      31.914 -24.965 -12.747  0.00  0.00    -0.479 OA
ATOM     22  H   UNL     1      31.044 -24.783 -12.451  0.00  0.00    +0.295 HD
ENDBRANCH  20  21
ENDBRANCH  18  20
BRANCH  18  23
ATOM     23  C   UNL     1      31.282 -22.280 -14.040  0.00  0.00    +0.029 C 
BRANCH  23  24
ATOM     24  C   UNL     1      30.108 -22.541 -15.007  0.00  0.00    +0.002 C 
ATOM     25  C   UNL     1      29.461 -23.909 -14.779  0.00  0.00    +0.000 C 
ATOM     26  C   UNL     1      30.596 -22.437 -16.454  0.00  0.00    +0.000 C 
ENDBRANCH  23  24
ENDBRANCH  18  23
ENDBRANCH  16  18
ENDBRANCH   1  16
TORSDOF 8
ENDMDL
MODEL 7
REMARK VINA RESULT:     -10.3      3.989      5.807
REMARK  Name = 25271580
REMARK  8 active torsions:
REMARK  status: ('A' for Active; 'I' for Inactive)
REMARK    1  A    between atoms: S_1  and  C_4
REMARK    2  A    between atoms: S_1  and  N_16
REMARK    3  A    between atoms: C_7  and  C_10
REMARK    4  A    between atoms: N_16  and  C_18
REMARK    5  A    between atoms: C_18  and  C_20
REMARK    6  A    between atoms: C_18  and  C_23
REMARK    7  A    between atoms: C_20  and  O_21
REMARK    8  A    between atoms: C_23  and  C_24
REMARK                            x       y       z     vdW  Elec       q    Type
REMARK                         _______ _______ _______ _____ _____    ______ ____
ROOT
ATOM      1  S   UNL     1      32.941 -22.772 -17.529  0.00  0.00    +0.061 S 
ATOM      2  O   UNL     1      33.150 -24.070 -18.142  0.00  0.00    -0.153 OA
ATOM      3  O   UNL     1      33.679 -22.401 -16.337  0.00  0.00    -0.153 OA
ENDROOT
BRANCH   1   4
ATOM      4  C   UNL     1      33.271 -21.534 -18.747  0.00  0.00    +0.122 C 
ATOM      5  C   UNL     1      32.218 -20.821 -19.320  0.00  0.00    +0.020 C 
ATOM      6  C   UNL     1      34.586 -21.270 -19.134  0.00  0.00    +0.020 C 
ATOM      7  C   UNL     1      33.793 -19.580 -20.668  0.00  0.00    +0.000 C 
ATOM      8  C   UNL     1      32.478 -19.844 -20.280  0.00  0.00    +0.001 C 
ATOM      9  C   UNL     1      34.846 -20.293 -20.095  0.00  0.00    +0.001 C 
BRANCH   7  10
ATOM     10  C   UNL     1      34.062 -18.567 -21.664  0.00  0.00    +0.000 C 
ATOM     11  C   UNL     1      33.748 -18.803 -23.003  0.00  0.00    +0.000 C 
ATOM     12  C   UNL     1      34.635 -17.352 -21.288  0.00  0.00    +0.000 C 
ATOM     13  C   UNL     1      34.008 -17.827 -23.964  0.00  0.00    +0.000 C 
ATOM     14  C   UNL     1      34.895 -16.374 -22.249  0.00  0.00    +0.000 C 
ATOM     15  C   UNL     1      34.582 -16.612 -23.587  0.00  0.00    +0.000 C 
ENDBRANCH   7  10
ENDBRANCH   1   4
BRANCH   1  16
ATOM     16  N   UNL     1      31.282 -22.544 -17.241  0.00  0.00    -0.170 NA
ATOM     17  H   UNL     1      30.795 -23.316 -17.695  0.00  0.00    +0.149 HD
BRANCH  16  18
ATOM     18  C   UNL     1      30.775 -22.477 -15.852  0.00  0.00    +0.174 C 
BRANCH  18  20
ATOM     19  O   UNL     1      28.622 -22.141 -16.953  0.00  0.00    -0.249 OA
ATOM     20  C   UNL     1      29.302 -22.154 -15.937  0.00  0.00    +0.330 C 
BRANCH  20  21
ATOM     21  O   UNL     1      28.805 -21.877 -14.702  0.00  0.00    -0.479 OA
ATOM     22  H   UNL     1      28.814 -22.535 -14.036  0.00  0.00    +0.295 HD
ENDBRANCH  20  21
ENDBRANCH  18  20
BRANCH  18  23
ATOM     23  C   UNL     1      31.002 -23.818 -15.149  0.00  0.00    +0.029 C 
BRANCH  23  24
ATOM     24  C   UNL     1      31.343 -23.714 -13.648  0.00  0.00    +0.002 C 
ATOM     25  C   UNL     1      32.806 -24.052 -13.359  0.00  0.00    +0.000 C 
ATOM     26  C   UNL     1      30.430 -24.645 -12.845  0.00  0.00    +0.000 C 
ENDBRANCH  23  24
ENDBRANCH  18  23
ENDBRANCH  16  18
ENDBRANCH   1  16
TORSDOF 8
ENDMDL
MODEL 8
REMARK VINA RESULT:     -10.3      5.640      8.215
REMARK  Name = 25271580
REMARK  8 active torsions:
REMARK  status: ('A' for Active; 'I' for Inactive)
REMARK    1  A    between atoms: S_1  and  C_4
REMARK    2  A    between atoms: S_1  and  N_16
REMARK    3  A    between atoms: C_7  and  C_10
REMARK    4  A    between atoms: N_16  and  C_18
REMARK    5  A    between atoms: C_18  and  C_20
REMARK    6  A    between atoms: C_18  and  C_23
REMARK    7  A    between atoms: C_20  and  O_21
REMARK    8  A    between atoms: C_23  and  C_24
REMARK                            x       y       z     vdW  Elec       q    Type
REMARK                         _______ _______ _______ _____ _____    ______ ____
ROOT
ATOM      1  S   UNL     1      35.669 -18.323 -21.482  0.00  0.00    +0.061 S 
ATOM      2  O   UNL     1      36.364 -18.597 -22.725  0.00  0.00    -0.153 OA
ATOM      3  O   UNL     1      36.398 -18.294 -20.230  0.00  0.00    -0.153 OA
ENDROOT
BRANCH   1   4
ATOM      4  C   UNL     1      34.860 -16.759 -21.644  0.00  0.00    +0.122 C 
ATOM      5  C   UNL     1      34.386 -16.099 -20.510  0.00  0.00    +0.020 C 
ATOM      6  C   UNL     1      34.697 -16.185 -22.905  0.00  0.00    +0.020 C 
ATOM      7  C   UNL     1      33.585 -14.292 -21.899  0.00  0.00    +0.000 C 
ATOM      8  C   UNL     1      33.748 -14.866 -20.637  0.00  0.00    +0.001 C 
ATOM      9  C   UNL     1      34.059 -14.951 -23.032  0.00  0.00    +0.001 C 
BRANCH   7  10
ATOM     10  C   UNL     1      32.923 -13.012 -22.031  0.00  0.00    +0.000 C 
ATOM     11  C   UNL     1      33.264 -12.154 -23.077  0.00  0.00    +0.000 C 
ATOM     12  C   UNL     1      31.943 -12.634 -21.113  0.00  0.00    +0.000 C 
ATOM     13  C   UNL     1      32.627 -10.921 -23.205  0.00  0.00    +0.000 C 
ATOM     14  C   UNL     1      31.305 -11.401 -21.240  0.00  0.00    +0.000 C 
ATOM     15  C   UNL     1      31.647 -10.544 -22.286  0.00  0.00    +0.000 C 
ENDBRANCH   7  10
ENDBRANCH   1   4
BRANCH   1  16
ATOM     16  N   UNL     1      34.350 -19.383 -21.326  0.00  0.00    -0.170 NA
ATOM     17  H   UNL     1      34.576 -20.216 -21.869  0.00  0.00    +0.149 HD
BRANCH  16  18
ATOM     18  C   UNL     1      33.929 -19.847 -19.985  0.00  0.00    +0.174 C 
BRANCH  18  20
ATOM     19  O   UNL     1      31.771 -20.665 -19.191  0.00  0.00    -0.249 OA
ATOM     20  C   UNL     1      32.455 -20.164 -20.072  0.00  0.00    +0.330 C 
BRANCH  20  21
ATOM     21  O   UNL     1      31.963 -19.804 -21.286  0.00  0.00    -0.479 OA
ATOM     22  H   UNL     1      31.941 -20.426 -21.986  0.00  0.00    +0.295 HD
ENDBRANCH  20  21
ENDBRANCH  18  20
BRANCH  18  23
ATOM     23  C   UNL     1      34.734 -21.088 -19.587  0.00  0.00    +0.029 C 
BRANCH  23  24
ATOM     24  C   UNL     1      34.905 -21.291 -18.068  0.00  0.00    +0.002 C 
ATOM     25  C   UNL     1      36.368 -21.497 -17.670  0.00  0.00    +0.000 C 
ATOM     26  C   UNL     1      34.073 -22.491 -17.609  0.00  0.00    +0.000 C 
ENDBRANCH  23  24
ENDBRANCH  18  23
ENDBRANCH  16  18
ENDBRANCH   1  16
TORSDOF 8
ENDMDL
MODEL 9
REMARK VINA RESULT:     -10.1      5.447      8.002
REMARK  Name = 25271580
REMARK  8 active torsions:
REMARK  status: ('A' for Active; 'I' for Inactive)
REMARK    1  A    between atoms: S_1  and  C_4
REMARK    2  A    between atoms: S_1  and  N_16
REMARK    3  A    between atoms: C_7  and  C_10
REMARK    4  A    between atoms: N_16  and  C_18
REMARK    5  A    between atoms: C_18  and  C_20
REMARK    6  A    between atoms: C_18  and  C_23
REMARK    7  A    between atoms: C_20  and  O_21
REMARK    8  A    between atoms: C_23  and  C_24
REMARK                            x       y       z     vdW  Elec       q    Type
REMARK                         _______ _______ _______ _____ _____    ______ ____
ROOT
ATOM      1  S   UNL     1      35.651 -18.485 -21.979  0.00  0.00    +0.061 S 
ATOM      2  O   UNL     1      35.021 -19.305 -22.996  0.00  0.00    -0.153 OA
ATOM      3  O   UNL     1      37.079 -18.237 -22.022  0.00  0.00    -0.153 OA
ENDROOT
BRANCH   1   4
ATOM      4  C   UNL     1      34.853 -16.908 -21.979  0.00  0.00    +0.122 C 
ATOM      5  C   UNL     1      34.579 -16.265 -23.186  0.00  0.00    +0.020 C 
ATOM      6  C   UNL     1      34.498 -16.306 -20.771  0.00  0.00    +0.020 C 
ATOM      7  C   UNL     1      33.593 -14.420 -21.979  0.00  0.00    +0.000 C 
ATOM      8  C   UNL     1      33.949 -15.021 -23.186  0.00  0.00    +0.001 C 
ATOM      9  C   UNL     1      33.867 -15.062 -20.771  0.00  0.00    +0.001 C 
BRANCH   7  10
ATOM     10  C   UNL     1      32.940 -13.129 -21.979  0.00  0.00    +0.000 C 
ATOM     11  C   UNL     1      33.183 -12.224 -23.013  0.00  0.00    +0.000 C 
ATOM     12  C   UNL     1      32.066 -12.788 -20.947  0.00  0.00    +0.000 C 
ATOM     13  C   UNL     1      32.553 -10.980 -23.015  0.00  0.00    +0.000 C 
ATOM     14  C   UNL     1      31.435 -11.544 -20.948  0.00  0.00    +0.000 C 
ATOM     15  C   UNL     1      31.679 -10.639 -21.981  0.00  0.00    +0.000 C 
ENDBRANCH   7  10
ENDBRANCH   1   4
BRANCH   1  16
ATOM     16  N   UNL     1      35.244 -19.082 -20.440  0.00  0.00    -0.170 NA
ATOM     17  H   UNL     1      34.236 -18.967 -20.337  0.00  0.00    +0.149 HD
BRANCH  16  18
ATOM     18  C   UNL     1      35.554 -20.485 -20.085  0.00  0.00    +0.174 C 
BRANCH  18  20
ATOM     19  O   UNL     1      36.114 -21.353 -17.874  0.00  0.00    -0.249 OA
ATOM     20  C   UNL     1      36.177 -20.463 -18.710  0.00  0.00    +0.330 C 
BRANCH  20  21
ATOM     21  O   UNL     1      36.848 -19.298 -18.510  0.00  0.00    -0.479 OA
ATOM     22  H   UNL     1      37.274 -18.875 -19.229  0.00  0.00    +0.295 HD
ENDBRANCH  20  21
ENDBRANCH  18  20
BRANCH  18  23
ATOM     23  C   UNL     1      34.270 -21.319 -20.092  0.00  0.00    +0.029 C 
BRANCH  23  24
ATOM     24  C   UNL     1      33.114 -20.740 -19.250  0.00  0.00    +0.002 C 
ATOM     25  C   UNL     1      32.535 -21.765 -18.274  0.00  0.00    +0.000 C 
ATOM     26  C   UNL     1      32.007 -20.228 -20.176  0.00  0.00    +0.000 C 
ENDBRANCH  23  24
ENDBRANCH  18  23
ENDBRANCH  16  18
ENDBRANCH   1  16
TORSDOF 8
ENDMDL
