MODEL 1
REMARK VINA RESULT:     -12.4      0.000      0.000
REMARK  Name = 24812717
REMARK  2 active torsions:
REMARK  status: ('A' for Active; 'I' for Inactive)
REMARK    1  A    between atoms: N_2  and  C_31
REMARK    2  A    between atoms: C_4  and  C_12
REMARK                            x       y       z     vdW  Elec       q    Type
REMARK                         _______ _______ _______ _____ _____    ______ ____
ROOT
ATOM      1  O   UNL     1      33.769 -14.946 -21.044  0.00  0.00    -0.269 OA
ATOM      2  N   UNL     1      34.158 -16.475 -22.794  0.00  0.00    -0.233 N 
ATOM      3  C   UNL     1      33.738 -15.241 -22.241  0.00  0.00    +0.256 C 
ATOM      4  C   UNL     1      33.261 -14.180 -23.213  0.00  0.00    +0.050 C 
ATOM      5  C   UNL     1      34.196 -16.633 -24.174  0.00  0.00    +0.072 C 
ATOM      6  C   UNL     1      33.315 -14.410 -24.540  0.00  0.00    -0.016 C 
ATOM      7  C   UNL     1      33.811 -15.677 -25.023  0.00  0.00    +0.012 C 
ATOM      8  C   UNL     1      32.886 -13.457 -25.624  0.00  0.00    +0.031 C 
ENDROOT
BRANCH   4  12
ATOM      9  N   UNL     1      31.337  -9.313 -21.104  0.00  0.00    -0.338 NA
ATOM     10  N   UNL     1      32.559  -8.071 -22.770  0.00  0.00    -0.170 NA
ATOM     11  N   UNL     1      31.249  -6.969 -21.170  0.00  0.00    -0.293 N 
ATOM     12  C   UNL     1      32.763 -12.905 -22.667  0.00  0.00    +0.004 C 
ATOM     13  C   UNL     1      33.143 -11.698 -23.247  0.00  0.00    +0.004 C 
ATOM     14  C   UNL     1      31.909 -12.900 -21.570  0.00  0.00    +0.003 C 
ATOM     15  C   UNL     1      32.664 -10.485 -22.722  0.00  0.00    +0.051 C 
ATOM     16  C   UNL     1      31.801 -10.467 -21.614  0.00  0.00    +0.146 C 
ATOM     17  C   UNL     1      31.437 -11.690 -21.054  0.00  0.00    +0.033 C 
ATOM     18  C   UNL     1      33.005  -9.245 -23.254  0.00  0.00    +0.114 C 
ATOM     19  C   UNL     1      31.741  -8.178 -21.710  0.00  0.00    +0.141 C 
ATOM     20  H   UNL     1      30.645  -6.988 -20.392  0.00  0.00    +0.155 HD
ATOM     21  H   UNL     1      31.509  -6.109 -21.570  0.00  0.00    +0.155 HD
ENDBRANCH   4  12
BRANCH   2  31
ATOM     22  N   UNL     1      33.251 -20.491 -20.058  0.00  0.00    -0.333 N 
ATOM     23  C   UNL     1      35.564 -20.847 -19.407  0.00  0.00    +0.038 C 
ATOM     24  C   UNL     1      34.077 -21.195 -19.084  0.00  0.00    +0.091 C 
ATOM     25  C   UNL     1      35.388 -19.620 -20.267  0.00  0.00    -0.008 C 
ATOM     26  C   UNL     1      34.036 -19.472 -20.593  0.00  0.00    +0.042 C 
ATOM     27  C   UNL     1      36.354 -20.561 -18.128  0.00  0.00    +0.006 C 
ATOM     28  C   UNL     1      36.229 -21.973 -20.210  0.00  0.00    +0.006 C 
ATOM     29  C   UNL     1      36.342 -18.734 -20.746  0.00  0.00    -0.002 C 
ATOM     30  C   UNL     1      33.618 -18.458 -21.437  0.00  0.00    +0.029 C 
ATOM     31  C   UNL     1      34.570 -17.557 -21.919  0.00  0.00    +0.060 C 
ATOM     32  C   UNL     1      35.922 -17.692 -21.574  0.00  0.00    +0.015 C 
ATOM     33  H   UNL     1      32.316 -20.696 -20.293  0.00  0.00    +0.147 HD
ENDBRANCH   2  31
TORSDOF 2
ENDMDL
MODEL 2
REMARK VINA RESULT:     -11.8      1.376      9.303
REMARK  Name = 24812717
REMARK  2 active torsions:
REMARK  status: ('A' for Active; 'I' for Inactive)
REMARK    1  A    between atoms: N_2  and  C_31
REMARK    2  A    between atoms: C_4  and  C_12
REMARK                            x       y       z     vdW  Elec       q    Type
REMARK                         _______ _______ _______ _____ _____    ______ ____
ROOT
ATOM      1  O   UNL     1      33.734 -14.900 -21.265  0.00  0.00    -0.269 OA
ATOM      2  N   UNL     1      33.109 -14.195 -23.424  0.00  0.00    -0.233 N 
ATOM      3  C   UNL     1      33.626 -15.108 -22.476  0.00  0.00    +0.256 C 
ATOM      4  C   UNL     1      34.031 -16.476 -22.990  0.00  0.00    +0.050 C 
ATOM      5  C   UNL     1      32.917 -14.601 -24.739  0.00  0.00    +0.072 C 
ATOM      6  C   UNL     1      33.827 -16.796 -24.284  0.00  0.00    -0.016 C 
ATOM      7  C   UNL     1      33.240 -15.822 -25.173  0.00  0.00    +0.012 C 
ATOM      8  C   UNL     1      34.169 -18.109 -24.938  0.00  0.00    +0.031 C 
ENDROOT
BRANCH   4  12
ATOM      9  N   UNL     1      36.340 -20.126 -19.360  0.00  0.00    -0.338 NA
ATOM     10  N   UNL     1      34.197 -21.170 -18.996  0.00  0.00    -0.170 NA
ATOM     11  N   UNL     1      36.113 -21.940 -17.888  0.00  0.00    -0.293 N 
ATOM     12  C   UNL     1      34.627 -17.432 -22.040  0.00  0.00    +0.004 C 
ATOM     13  C   UNL     1      33.833 -18.393 -21.422  0.00  0.00    +0.004 C 
ATOM     14  C   UNL     1      35.988 -17.381 -21.757  0.00  0.00    +0.003 C 
ATOM     15  C   UNL     1      34.408 -19.303 -20.517  0.00  0.00    +0.051 C 
ATOM     16  C   UNL     1      35.780 -19.261 -20.223  0.00  0.00    +0.146 C 
ATOM     17  C   UNL     1      36.551 -18.289 -20.856  0.00  0.00    +0.033 C 
ATOM     18  C   UNL     1      33.670 -20.288 -19.865  0.00  0.00    +0.114 C 
ATOM     19  C   UNL     1      35.518 -21.034 -18.793  0.00  0.00    +0.141 C 
ATOM     20  H   UNL     1      37.078 -21.887 -17.701  0.00  0.00    +0.155 HD
ATOM     21  H   UNL     1      35.563 -22.625 -17.444  0.00  0.00    +0.155 HD
ENDBRANCH   4  12
BRANCH   2  31
ATOM     22  N   UNL     1      33.607  -9.280 -23.616  0.00  0.00    -0.333 N 
ATOM     23  C   UNL     1      31.840  -8.813 -22.016  0.00  0.00    +0.038 C 
ATOM     24  C   UNL     1      33.089  -8.229 -22.748  0.00  0.00    +0.091 C 
ATOM     25  C   UNL     1      32.053 -10.291 -22.225  0.00  0.00    -0.008 C 
ATOM     26  C   UNL     1      33.088 -10.484 -23.146  0.00  0.00    +0.042 C 
ATOM     27  C   UNL     1      31.835  -8.421 -20.536  0.00  0.00    +0.006 C 
ATOM     28  C   UNL     1      30.542  -8.356 -22.697  0.00  0.00    +0.006 C 
ATOM     29  C   UNL     1      31.371 -11.367 -21.676  0.00  0.00    -0.002 C 
ATOM     30  C   UNL     1      33.434 -11.757 -23.565  0.00  0.00    +0.029 C 
ATOM     31  C   UNL     1      32.757 -12.848 -23.014  0.00  0.00    +0.060 C 
ATOM     32  C   UNL     1      31.735 -12.655 -22.074  0.00  0.00    +0.015 C 
ATOM     33  H   UNL     1      34.209  -9.162 -24.386  0.00  0.00    +0.147 HD
ENDBRANCH   2  31
TORSDOF 2
ENDMDL
MODEL 3
REMARK VINA RESULT:     -11.7      2.886     10.681
REMARK  Name = 24812717
REMARK  2 active torsions:
REMARK  status: ('A' for Active; 'I' for Inactive)
REMARK    1  A    between atoms: N_2  and  C_31
REMARK    2  A    between atoms: C_4  and  C_12
REMARK                            x       y       z     vdW  Elec       q    Type
REMARK                         _______ _______ _______ _____ _____    ______ ____
ROOT
ATOM      1  O   UNL     1      33.282 -10.656 -23.896  0.00  0.00    -0.269 OA
ATOM      2  N   UNL     1      31.931  -9.274 -22.550  0.00  0.00    -0.233 N 
ATOM      3  C   UNL     1      32.545 -10.494 -22.922  0.00  0.00    +0.256 C 
ATOM      4  C   UNL     1      32.315 -11.683 -22.009  0.00  0.00    +0.050 C 
ATOM      5  C   UNL     1      31.229  -9.192 -21.354  0.00  0.00    +0.072 C 
ATOM      6  C   UNL     1      31.611 -11.531 -20.870  0.00  0.00    -0.016 C 
ATOM      7  C   UNL     1      31.066 -10.236 -20.537  0.00  0.00    +0.012 C 
ATOM      8  C   UNL     1      31.306 -12.610 -19.865  0.00  0.00    +0.031 C 
ENDROOT
BRANCH   4  12
ATOM      9  N   UNL     1      34.517 -16.654 -23.519  0.00  0.00    -0.338 NA
ATOM     10  N   UNL     1      35.031 -17.161 -21.219  0.00  0.00    -0.170 NA
ATOM     11  N   UNL     1      35.553 -18.676 -22.929  0.00  0.00    -0.293 N 
ATOM     12  C   UNL     1      32.893 -12.983 -22.396  0.00  0.00    +0.004 C 
ATOM     13  C   UNL     1      33.414 -13.834 -21.427  0.00  0.00    +0.004 C 
ATOM     14  C   UNL     1      32.918 -13.367 -23.733  0.00  0.00    +0.003 C 
ATOM     15  C   UNL     1      33.963 -15.073 -21.803  0.00  0.00    +0.051 C 
ATOM     16  C   UNL     1      33.995 -15.472 -23.149  0.00  0.00    +0.146 C 
ATOM     17  C   UNL     1      33.465 -14.600 -24.097  0.00  0.00    +0.033 C 
ATOM     18  C   UNL     1      34.501 -15.970 -20.885  0.00  0.00    +0.114 C 
ATOM     19  C   UNL     1      35.006 -17.434 -22.534  0.00  0.00    +0.141 C 
ATOM     20  H   UNL     1      35.561 -18.928 -23.881  0.00  0.00    +0.155 HD
ATOM     21  H   UNL     1      35.924 -19.287 -22.254  0.00  0.00    +0.155 HD
ENDBRANCH   4  12
BRANCH   2  31
ATOM     22  N   UNL     1      34.409  -5.381 -24.323  0.00  0.00    -0.333 N 
ATOM     23  C   UNL     1      32.677  -4.704 -25.886  0.00  0.00    +0.038 C 
ATOM     24  C   UNL     1      33.969  -4.253 -25.136  0.00  0.00    +0.091 C 
ATOM     25  C   UNL     1      32.277  -5.906 -25.066  0.00  0.00    -0.008 C 
ATOM     26  C   UNL     1      33.314  -6.230 -24.185  0.00  0.00    +0.042 C 
ATOM     27  C   UNL     1      31.616  -3.601 -25.871  0.00  0.00    +0.006 C 
ATOM     28  C   UNL     1      32.997  -5.122 -27.328  0.00  0.00    +0.006 C 
ATOM     29  C   UNL     1      31.117  -6.664 -25.119  0.00  0.00    -0.002 C 
ATOM     30  C   UNL     1      33.225  -7.344 -23.367  0.00  0.00    +0.029 C 
ATOM     31  C   UNL     1      32.058  -8.110 -23.408  0.00  0.00    +0.060 C 
ATOM     32  C   UNL     1      31.009  -7.771 -24.275  0.00  0.00    +0.015 C 
ATOM     33  H   UNL     1      35.308  -5.516 -23.944  0.00  0.00    +0.147 HD
ENDBRANCH   2  31
TORSDOF 2
ENDMDL
MODEL 4
REMARK VINA RESULT:     -11.5      3.328     10.951
REMARK  Name = 24812717
REMARK  2 active torsions:
REMARK  status: ('A' for Active; 'I' for Inactive)
REMARK    1  A    between atoms: N_2  and  C_31
REMARK    2  A    between atoms: C_4  and  C_12
REMARK                            x       y       z     vdW  Elec       q    Type
REMARK                         _______ _______ _______ _____ _____    ______ ____
ROOT
ATOM      1  O   UNL     1      33.803  -9.874 -23.939  0.00  0.00    -0.269 OA
ATOM      2  N   UNL     1      32.345  -8.322 -22.931  0.00  0.00    -0.233 N 
ATOM      3  C   UNL     1      32.878  -9.612 -23.167  0.00  0.00    +0.256 C 
ATOM      4  C   UNL     1      32.293 -10.754 -22.359  0.00  0.00    +0.050 C 
ATOM      5  C   UNL     1      31.391  -8.142 -21.937  0.00  0.00    +0.072 C 
ATOM      6  C   UNL     1      31.359 -10.505 -21.419  0.00  0.00    -0.016 C 
ATOM      7  C   UNL     1      30.912  -9.149 -21.203  0.00  0.00    +0.012 C 
ATOM      8  C   UNL     1      30.693 -11.527 -20.538  0.00  0.00    +0.031 C 
ENDROOT
BRANCH   4  12
ATOM      9  N   UNL     1      34.167 -15.976 -23.388  0.00  0.00    -0.338 NA
ATOM     10  N   UNL     1      34.622 -16.309 -21.044  0.00  0.00    -0.170 NA
ATOM     11  N   UNL     1      35.057 -18.002 -22.605  0.00  0.00    -0.293 N 
ATOM     12  C   UNL     1      32.785 -12.119 -22.621  0.00  0.00    +0.004 C 
ATOM     13  C   UNL     1      33.238 -12.913 -21.572  0.00  0.00    +0.004 C 
ATOM     14  C   UNL     1      32.798 -12.621 -23.918  0.00  0.00    +0.003 C 
ATOM     15  C   UNL     1      33.705 -14.215 -21.828  0.00  0.00    +0.051 C 
ATOM     16  C   UNL     1      33.723 -14.733 -23.132  0.00  0.00    +0.146 C 
ATOM     17  C   UNL     1      33.264 -13.916 -24.163  0.00  0.00    +0.033 C 
ATOM     18  C   UNL     1      34.171 -15.060 -20.825  0.00  0.00    +0.114 C 
ATOM     19  C   UNL     1      34.592 -16.696 -22.330  0.00  0.00    +0.141 C 
ATOM     20  H   UNL     1      35.058 -18.338 -23.531  0.00  0.00    +0.155 HD
ATOM     21  H   UNL     1      35.379 -18.574 -21.873  0.00  0.00    +0.155 HD
ENDBRANCH   4  12
BRANCH   2  31
ATOM     22  N   UNL     1      32.414  -5.532 -27.012  0.00  0.00    -0.333 N 
ATOM     23  C   UNL     1      33.996  -3.905 -26.145  0.00  0.00    +0.038 C 
ATOM     24  C   UNL     1      33.322  -4.472 -27.434  0.00  0.00    +0.091 C 
ATOM     25  C   UNL     1      33.717  -5.018 -25.166  0.00  0.00    -0.008 C 
ATOM     26  C   UNL     1      32.811  -5.919 -25.734  0.00  0.00    +0.042 C 
ATOM     27  C   UNL     1      35.493  -3.673 -26.363  0.00  0.00    +0.006 C 
ATOM     28  C   UNL     1      33.311  -2.609 -25.693  0.00  0.00    +0.006 C 
ATOM     29  C   UNL     1      34.196  -5.199 -23.877  0.00  0.00    -0.002 C 
ATOM     30  C   UNL     1      32.335  -6.997 -25.007  0.00  0.00    +0.029 C 
ATOM     31  C   UNL     1      32.815  -7.192 -23.711  0.00  0.00    +0.060 C 
ATOM     32  C   UNL     1      33.742  -6.301 -23.150  0.00  0.00    +0.015 C 
ATOM     33  H   UNL     1      31.663  -5.903 -27.531  0.00  0.00    +0.147 HD
ENDBRANCH   2  31
TORSDOF 2
ENDMDL
MODEL 5
REMARK VINA RESULT:     -11.4      1.550      9.171
REMARK  Name = 24812717
REMARK  2 active torsions:
REMARK  status: ('A' for Active; 'I' for Inactive)
REMARK    1  A    between atoms: N_2  and  C_31
REMARK    2  A    between atoms: C_4  and  C_12
REMARK                            x       y       z     vdW  Elec       q    Type
REMARK                         _______ _______ _______ _____ _____    ______ ____
ROOT
ATOM      1  O   UNL     1      33.807 -15.179 -21.377  0.00  0.00    -0.269 OA
ATOM      2  N   UNL     1      33.178 -14.649 -23.585  0.00  0.00    -0.233 N 
ATOM      3  C   UNL     1      33.696 -15.485 -22.566  0.00  0.00    +0.256 C 
ATOM      4  C   UNL     1      34.096 -16.891 -22.970  0.00  0.00    +0.050 C 
ATOM      5  C   UNL     1      32.983 -15.161 -24.862  0.00  0.00    +0.072 C 
ATOM      6  C   UNL     1      33.888 -17.314 -24.233  0.00  0.00    -0.016 C 
ATOM      7  C   UNL     1      33.301 -16.414 -25.197  0.00  0.00    +0.012 C 
ATOM      8  C   UNL     1      34.225 -18.676 -24.779  0.00  0.00    +0.031 C 
ENDROOT
BRANCH   4  12
ATOM      9  N   UNL     1      36.404 -20.240 -19.059  0.00  0.00    -0.338 NA
ATOM     10  N   UNL     1      34.305 -21.388 -18.757  0.00  0.00    -0.170 NA
ATOM     11  N   UNL     1      36.198 -21.998 -17.517  0.00  0.00    -0.293 N 
ATOM     12  C   UNL     1      34.692 -17.769 -21.946  0.00  0.00    +0.004 C 
ATOM     13  C   UNL     1      33.920 -18.746 -21.325  0.00  0.00    +0.004 C 
ATOM     14  C   UNL     1      36.030 -17.626 -21.596  0.00  0.00    +0.003 C 
ATOM     15  C   UNL     1      34.494 -19.580 -20.351  0.00  0.00    +0.051 C 
ATOM     16  C   UNL     1      35.844 -19.447 -19.989  0.00  0.00    +0.146 C 
ATOM     17  C   UNL     1      36.593 -18.461 -20.627  0.00  0.00    +0.033 C 
ATOM     18  C   UNL     1      33.778 -20.576 -19.693  0.00  0.00    +0.114 C 
ATOM     19  C   UNL     1      35.604 -21.167 -18.493  0.00  0.00    +0.141 C 
ATOM     20  H   UNL     1      37.148 -21.880 -17.284  0.00  0.00    +0.155 HD
ATOM     21  H   UNL     1      35.663 -22.693 -17.071  0.00  0.00    +0.155 HD
ENDBRANCH   4  12
BRANCH   2  31
ATOM     22  N   UNL     1      30.445 -11.208 -21.321  0.00  0.00    -0.333 N 
ATOM     23  C   UNL     1      31.687  -9.317 -22.206  0.00  0.00    +0.038 C 
ATOM     24  C   UNL     1      30.356  -9.767 -21.524  0.00  0.00    +0.091 C 
ATOM     25  C   UNL     1      32.205 -10.638 -22.717  0.00  0.00    -0.008 C 
ATOM     26  C   UNL     1      31.439 -11.676 -22.177  0.00  0.00    +0.042 C 
ATOM     27  C   UNL     1      31.418  -8.314 -23.330  0.00  0.00    +0.006 C 
ATOM     28  C   UNL     1      32.657  -8.723 -21.176  0.00  0.00    +0.006 C 
ATOM     29  C   UNL     1      33.278 -10.899 -23.556  0.00  0.00    -0.002 C 
ATOM     30  C   UNL     1      31.757 -12.999 -22.436  0.00  0.00    +0.029 C 
ATOM     31  C   UNL     1      32.832 -13.273 -23.284  0.00  0.00    +0.060 C 
ATOM     32  C   UNL     1      33.585 -12.230 -23.844  0.00  0.00    +0.015 C 
ATOM     33  H   UNL     1      29.906 -11.747 -20.698  0.00  0.00    +0.147 HD
ENDBRANCH   2  31
TORSDOF 2
ENDMDL
MODEL 6
REMARK VINA RESULT:     -10.8      3.336      6.428
REMARK  Name = 24812717
REMARK  2 active torsions:
REMARK  status: ('A' for Active; 'I' for Inactive)
REMARK    1  A    between atoms: N_2  and  C_31
REMARK    2  A    between atoms: C_4  and  C_12
REMARK                            x       y       z     vdW  Elec       q    Type
REMARK                         _______ _______ _______ _____ _____    ______ ____
ROOT
ATOM      1  O   UNL     1      32.662 -19.409 -20.247  0.00  0.00    -0.269 OA
ATOM      2  N   UNL     1      34.331 -20.686 -19.183  0.00  0.00    -0.233 N 
ATOM      3  C   UNL     1      33.835 -19.771 -20.142  0.00  0.00    +0.256 C 
ATOM      4  C   UNL     1      34.849 -19.149 -21.084  0.00  0.00    +0.050 C 
ATOM      5  C   UNL     1      35.699 -20.910 -19.086  0.00  0.00    +0.072 C 
ATOM      6  C   UNL     1      36.160 -19.423 -20.938  0.00  0.00    -0.016 C 
ATOM      7  C   UNL     1      36.587 -20.325 -19.894  0.00  0.00    +0.012 C 
ATOM      8  C   UNL     1      37.280 -18.881 -21.786  0.00  0.00    +0.031 C 
ENDROOT
BRANCH   4  12
ATOM      9  N   UNL     1      32.972 -15.677 -25.116  0.00  0.00    -0.338 NA
ATOM     10  N   UNL     1      33.587 -13.757 -23.794  0.00  0.00    -0.170 NA
ATOM     11  N   UNL     1      32.606 -13.497 -25.906  0.00  0.00    -0.293 N 
ATOM     12  C   UNL     1      34.360 -18.236 -22.132  0.00  0.00    +0.004 C 
ATOM     13  C   UNL     1      34.441 -16.858 -21.956  0.00  0.00    +0.004 C 
ATOM     14  C   UNL     1      33.815 -18.746 -23.306  0.00  0.00    +0.003 C 
ATOM     15  C   UNL     1      33.974 -15.992 -22.960  0.00  0.00    +0.051 C 
ATOM     16  C   UNL     1      33.422 -16.495 -24.149  0.00  0.00    +0.146 C 
ATOM     17  C   UNL     1      33.353 -17.878 -24.299  0.00  0.00    +0.033 C 
ATOM     18  C   UNL     1      34.027 -14.606 -22.847  0.00  0.00    +0.114 C 
ATOM     19  C   UNL     1      33.079 -14.352 -24.886  0.00  0.00    +0.141 C 
ATOM     20  H   UNL     1      32.223 -13.879 -26.729  0.00  0.00    +0.155 HD
ATOM     21  H   UNL     1      32.658 -12.521 -25.794  0.00  0.00    +0.155 HD
ENDBRANCH   4  12
BRANCH   2  31
ATOM     22  N   UNL     1      33.311 -23.514 -15.258  0.00  0.00    -0.333 N 
ATOM     23  C   UNL     1      30.898 -23.376 -15.503  0.00  0.00    +0.038 C 
ATOM     24  C   UNL     1      32.072 -24.158 -14.836  0.00  0.00    +0.091 C 
ATOM     25  C   UNL     1      31.632 -22.635 -16.593  0.00  0.00    -0.008 C 
ATOM     26  C   UNL     1      33.010 -22.767 -16.395  0.00  0.00    +0.042 C 
ATOM     27  C   UNL     1      29.838 -24.333 -16.051  0.00  0.00    +0.006 C 
ATOM     28  C   UNL     1      30.268 -22.386 -14.513  0.00  0.00    +0.006 C 
ATOM     29  C   UNL     1      31.126 -21.886 -17.644  0.00  0.00    -0.002 C 
ATOM     30  C   UNL     1      33.909 -22.118 -17.224  0.00  0.00    +0.029 C 
ATOM     31  C   UNL     1      33.411 -21.366 -18.289  0.00  0.00    +0.060 C 
ATOM     32  C   UNL     1      32.029 -21.252 -18.501  0.00  0.00    +0.015 C 
ATOM     33  H   UNL     1      34.191 -23.592 -14.823  0.00  0.00    +0.147 HD
ENDBRANCH   2  31
TORSDOF 2
ENDMDL
MODEL 7
REMARK VINA RESULT:     -10.8      3.543     10.901
REMARK  Name = 24812717
REMARK  2 active torsions:
REMARK  status: ('A' for Active; 'I' for Inactive)
REMARK    1  A    between atoms: N_2  and  C_31
REMARK    2  A    between atoms: C_4  and  C_12
REMARK                            x       y       z     vdW  Elec       q    Type
REMARK                         _______ _______ _______ _____ _____    ______ ____
ROOT
ATOM      1  O   UNL     1      33.243 -10.068 -23.949  0.00  0.00    -0.269 OA
ATOM      2  N   UNL     1      31.992  -8.482 -22.737  0.00  0.00    -0.233 N 
ATOM      3  C   UNL     1      32.533  -9.766 -22.988  0.00  0.00    +0.256 C 
ATOM      4  C   UNL     1      32.257 -10.840 -21.954  0.00  0.00    +0.050 C 
ATOM      5  C   UNL     1      31.318  -8.239 -21.547  0.00  0.00    +0.072 C 
ATOM      6  C   UNL     1      31.584 -10.533 -20.827  0.00  0.00    -0.016 C 
ATOM      7  C   UNL     1      31.115  -9.183 -20.624  0.00  0.00    +0.012 C 
ATOM      8  C   UNL     1      31.240 -11.484 -19.711  0.00  0.00    +0.031 C 
ENDROOT
BRANCH   4  12
ATOM      9  N   UNL     1      34.186 -16.055 -22.911  0.00  0.00    -0.338 NA
ATOM     10  N   UNL     1      33.379 -15.972 -25.181  0.00  0.00    -0.170 NA
ATOM     11  N   UNL     1      34.479 -17.874 -24.366  0.00  0.00    -0.293 N 
ATOM     12  C   UNL     1      32.757 -12.203 -22.211  0.00  0.00    +0.004 C 
ATOM     13  C   UNL     1      32.586 -12.788 -23.461  0.00  0.00    +0.004 C 
ATOM     14  C   UNL     1      33.406 -12.911 -21.204  0.00  0.00    +0.003 C 
ATOM     15  C   UNL     1      33.066 -14.087 -23.701  0.00  0.00    +0.051 C 
ATOM     16  C   UNL     1      33.723 -14.813 -22.693  0.00  0.00    +0.146 C 
ATOM     17  C   UNL     1      33.880 -14.202 -21.451  0.00  0.00    +0.033 C 
ATOM     18  C   UNL     1      32.928 -14.730 -24.927  0.00  0.00    +0.114 C 
ATOM     19  C   UNL     1      33.989 -16.567 -24.143  0.00  0.00    +0.141 C 
ATOM     20  H   UNL     1      34.936 -18.358 -23.640  0.00  0.00    +0.155 HD
ATOM     21  H   UNL     1      34.365 -18.299 -25.246  0.00  0.00    +0.155 HD
ENDBRANCH   4  12
BRANCH   2  31
ATOM     22  N   UNL     1      34.545  -4.773 -24.778  0.00  0.00    -0.333 N 
ATOM     23  C   UNL     1      32.916  -4.311 -26.520  0.00  0.00    +0.038 C 
ATOM     24  C   UNL     1      34.150  -3.754 -25.743  0.00  0.00    +0.091 C 
ATOM     25  C   UNL     1      32.474  -5.418 -25.596  0.00  0.00    -0.008 C 
ATOM     26  C   UNL     1      33.452  -5.621 -24.616  0.00  0.00    +0.042 C 
ATOM     27  C   UNL     1      31.846  -3.233 -26.703  0.00  0.00    +0.006 C 
ATOM     28  C   UNL     1      33.339  -4.885 -27.880  0.00  0.00    +0.006 C 
ATOM     29  C   UNL     1      31.328  -6.198 -25.638  0.00  0.00    -0.002 C 
ATOM     30  C   UNL     1      33.318  -6.635 -23.683  0.00  0.00    +0.029 C 
ATOM     31  C   UNL     1      32.165  -7.422 -23.713  0.00  0.00    +0.060 C 
ATOM     32  C   UNL     1      31.175  -7.203 -24.682  0.00  0.00    +0.015 C 
ATOM     33  H   UNL     1      35.417  -4.848 -24.327  0.00  0.00    +0.147 HD
ENDBRANCH   2  31
TORSDOF 2
ENDMDL
MODEL 8
REMARK VINA RESULT:     -10.3      5.668     12.472
REMARK  Name = 24812717
REMARK  2 active torsions:
REMARK  status: ('A' for Active; 'I' for Inactive)
REMARK    1  A    between atoms: N_2  and  C_31
REMARK    2  A    between atoms: C_4  and  C_12
REMARK                            x       y       z     vdW  Elec       q    Type
REMARK                         _______ _______ _______ _____ _____    ______ ____
ROOT
ATOM      1  O   UNL     1      35.900 -22.250 -17.630  0.00  0.00    -0.269 OA
ATOM      2  N   UNL     1      33.627 -21.676 -17.863  0.00  0.00    -0.233 N 
ATOM      3  C   UNL     1      34.722 -22.363 -17.285  0.00  0.00    +0.256 C 
ATOM      4  C   UNL     1      34.418 -23.272 -16.110  0.00  0.00    +0.050 C 
ATOM      5  C   UNL     1      32.364 -21.792 -17.295  0.00  0.00    +0.072 C 
ATOM      6  C   UNL     1      33.164 -23.343 -15.620  0.00  0.00    -0.016 C 
ATOM      7  C   UNL     1      32.116 -22.564 -16.234  0.00  0.00    +0.012 C 
ATOM      8  C   UNL     1      32.712 -24.190 -14.460  0.00  0.00    +0.031 C 
ENDROOT
BRANCH   4  12
ATOM      9  N   UNL     1      38.639 -26.257 -13.848  0.00  0.00    -0.338 NA
ATOM     10  N   UNL     1      40.151 -24.403 -14.142  0.00  0.00    -0.170 NA
ATOM     11  N   UNL     1      40.885 -26.412 -13.184  0.00  0.00    -0.293 N 
ATOM     12  C   UNL     1      35.526 -24.046 -15.521  0.00  0.00    +0.004 C 
ATOM     13  C   UNL     1      36.790 -23.477 -15.396  0.00  0.00    +0.004 C 
ATOM     14  C   UNL     1      35.314 -25.350 -15.085  0.00  0.00    +0.003 C 
ATOM     15  C   UNL     1      37.842 -24.221 -14.832  0.00  0.00    +0.051 C 
ATOM     16  C   UNL     1      37.640 -25.538 -14.389  0.00  0.00    +0.146 C 
ATOM     17  C   UNL     1      36.365 -26.081 -14.526  0.00  0.00    +0.033 C 
ATOM     18  C   UNL     1      39.128 -23.712 -14.678  0.00  0.00    +0.114 C 
ATOM     19  C   UNL     1      39.840 -25.650 -13.754  0.00  0.00    +0.141 C 
ATOM     20  H   UNL     1      40.713 -27.333 -12.882  0.00  0.00    +0.155 HD
ATOM     21  H   UNL     1      41.783 -26.021 -13.090  0.00  0.00    +0.155 HD
ENDBRANCH   4  12
BRANCH   2  31
ATOM     22  N   UNL     1      36.504 -19.226 -21.050  0.00  0.00    -0.333 N 
ATOM     23  C   UNL     1      34.677 -18.447 -22.449  0.00  0.00    +0.038 C 
ATOM     24  C   UNL     1      36.178 -18.240 -22.074  0.00  0.00    +0.091 C 
ATOM     25  C   UNL     1      34.196 -19.249 -21.265  0.00  0.00    -0.008 C 
ATOM     26  C   UNL     1      35.297 -19.653 -20.502  0.00  0.00    +0.042 C 
ATOM     27  C   UNL     1      33.953 -17.106 -22.585  0.00  0.00    +0.006 C 
ATOM     28  C   UNL     1      34.542 -19.265 -23.741  0.00  0.00    +0.006 C 
ATOM     29  C   UNL     1      32.906 -19.616 -20.914  0.00  0.00    -0.002 C 
ATOM     30  C   UNL     1      35.129 -20.466 -19.394  0.00  0.00    +0.029 C 
ATOM     31  C   UNL     1      33.834 -20.837 -19.028  0.00  0.00    +0.060 C 
ATOM     32  C   UNL     1      32.729 -20.412 -19.781  0.00  0.00    +0.015 C 
ATOM     33  H   UNL     1      37.405 -19.531 -20.795  0.00  0.00    +0.147 HD
ENDBRANCH   2  31
TORSDOF 2
ENDMDL
MODEL 9
REMARK VINA RESULT:     -10.2      2.856      5.482
REMARK  Name = 24812717
REMARK  2 active torsions:
REMARK  status: ('A' for Active; 'I' for Inactive)
REMARK    1  A    between atoms: N_2  and  C_31
REMARK    2  A    between atoms: C_4  and  C_12
REMARK                            x       y       z     vdW  Elec       q    Type
REMARK                         _______ _______ _______ _____ _____    ______ ____
ROOT
ATOM      1  O   UNL     1      32.667 -11.114 -23.485  0.00  0.00    -0.269 OA
ATOM      2  N   UNL     1      32.434 -11.925 -21.286  0.00  0.00    -0.233 N 
ATOM      3  C   UNL     1      32.382 -10.938 -22.298  0.00  0.00    +0.256 C 
ATOM      4  C   UNL     1      31.884  -9.563 -21.893  0.00  0.00    +0.050 C 
ATOM      5  C   UNL     1      31.959 -11.631 -20.013  0.00  0.00    +0.072 C 
ATOM      6  C   UNL     1      31.452  -9.349 -20.634  0.00  0.00    -0.016 C 
ATOM      7  C   UNL     1      31.485 -10.429 -19.677  0.00  0.00    +0.012 C 
ATOM      8  C   UNL     1      30.925  -8.049 -20.086  0.00  0.00    +0.031 C 
ENDROOT
BRANCH   4  12
ATOM      9  N   UNL     1      31.810  -5.485 -25.791  0.00  0.00    -0.338 NA
ATOM     10  N   UNL     1      34.180  -5.139 -25.520  0.00  0.00    -0.170 NA
ATOM     11  N   UNL     1      32.946  -3.862 -27.049  0.00  0.00    -0.293 N 
ATOM     12  C   UNL     1      31.872  -8.496 -22.909  0.00  0.00    +0.004 C 
ATOM     13  C   UNL     1      33.049  -7.833 -23.243  0.00  0.00    +0.004 C 
ATOM     14  C   UNL     1      30.684  -8.147 -23.543  0.00  0.00    +0.003 C 
ATOM     15  C   UNL     1      33.031  -6.816 -24.214  0.00  0.00    +0.051 C 
ATOM     16  C   UNL     1      31.838  -6.455 -24.861  0.00  0.00    +0.146 C 
ATOM     17  C   UNL     1      30.675  -7.136 -24.507  0.00  0.00    +0.033 C 
ATOM     18  C   UNL     1      34.172  -6.115 -24.594  0.00  0.00    +0.114 C 
ATOM     19  C   UNL     1      32.983  -4.880 -26.070  0.00  0.00    +0.141 C 
ATOM     20  H   UNL     1      32.094  -3.630 -27.486  0.00  0.00    +0.155 HD
ATOM     21  H   UNL     1      33.771  -3.385 -27.295  0.00  0.00    +0.155 HD
ENDBRANCH   4  12
BRANCH   2  31
ATOM     22  N   UNL     1      33.836 -15.474 -24.428  0.00  0.00    -0.333 N 
ATOM     23  C   UNL     1      34.539 -17.035 -22.704  0.00  0.00    +0.038 C 
ATOM     24  C   UNL     1      34.148 -16.882 -24.208  0.00  0.00    +0.091 C 
ATOM     25  C   UNL     1      33.973 -15.759 -22.132  0.00  0.00    -0.008 C 
ATOM     26  C   UNL     1      33.581 -14.917 -23.177  0.00  0.00    +0.042 C 
ATOM     27  C   UNL     1      33.904 -18.287 -22.095  0.00  0.00    +0.006 C 
ATOM     28  C   UNL     1      36.064 -17.069 -22.535  0.00  0.00    +0.006 C 
ATOM     29  C   UNL     1      33.848 -15.366 -20.808  0.00  0.00    -0.002 C 
ATOM     30  C   UNL     1      33.093 -13.648 -22.918  0.00  0.00    +0.029 C 
ATOM     31  C   UNL     1      32.957 -13.244 -21.588  0.00  0.00    +0.060 C 
ATOM     32  C   UNL     1      33.329 -14.099 -20.539  0.00  0.00    +0.015 C 
ATOM     33  H   UNL     1      33.811 -15.007 -25.295  0.00  0.00    +0.147 HD
ENDBRANCH   2  31
TORSDOF 2
ENDMDL
