MODEL 1
REMARK VINA RESULT:     -11.0      0.000      0.000
REMARK  Name = 56069
REMARK  8 active torsions:
REMARK  status: ('A' for Active; 'I' for Inactive)
REMARK    1  A    between atoms: N_2  and  C_5
REMARK    2  A    between atoms: C_3  and  C_17
REMARK    3  A    between atoms: C_8  and  C_14
REMARK    4  A    between atoms: C_9  and  C_16
REMARK    5  A    between atoms: C_17  and  O_19
REMARK    6  A    between atoms: C_17  and  C_21
REMARK    7  A    between atoms: C_21  and  S_22
REMARK    8  A    between atoms: S_22  and  C_26
REMARK                            x       y       z     vdW  Elec       q    Type
REMARK                         _______ _______ _______ _____ _____    ______ ____
ROOT
ATOM      1  O   UNL     1      34.204 -14.637 -20.801  0.00  0.00    -0.272 OA
ATOM      2  N   UNL     1      33.556 -14.308 -23.026  0.00  0.00    -0.282 N 
ATOM      3  C   UNL     1      34.065 -15.036 -21.956  0.00  0.00    +0.252 C 
ATOM      4  H   UNL     1      33.510 -14.779 -23.889  0.00  0.00    +0.155 HD
ENDROOT
BRANCH   2   5
ATOM      5  C   UNL     1      33.095 -12.969 -23.021  0.00  0.00    +0.050 C 
ATOM      6  C   UNL     1      32.403 -12.494 -21.920  0.00  0.00    +0.019 C 
ATOM      7  C   UNL     1      33.346 -12.163 -24.118  0.00  0.00    +0.015 C 
ATOM      8  C   UNL     1      31.950 -11.175 -21.915  0.00  0.00    +0.082 C 
ATOM      9  C   UNL     1      32.194 -10.350 -23.012  0.00  0.00    +0.072 C 
ATOM     10  C   UNL     1      32.893 -10.844 -24.114  0.00  0.00    +0.011 C 
BRANCH   8  14
ATOM     11  F   UNL     1      31.613  -9.450 -20.292  0.00  0.00    -0.166 F 
ATOM     12  F   UNL     1      29.861 -10.564 -20.922  0.00  0.00    -0.166 F 
ATOM     13  F   UNL     1      31.343 -11.507 -19.640  0.00  0.00    -0.166 F 
ATOM     14  C   UNL     1      31.205 -10.681 -20.716  0.00  0.00    +0.419 C 
ENDBRANCH   8  14
BRANCH   9  16
ATOM     15  N   UNL     1      31.370  -7.894 -23.047  0.00  0.00    -0.191 NA
ATOM     16  C   UNL     1      31.739  -8.993 -23.032  0.00  0.00    +0.100 C 
ENDBRANCH   9  16
ENDBRANCH   2   5
BRANCH   3  17
ATOM     17  C   UNL     1      34.466 -16.471 -22.345  0.00  0.00    +0.179 C 
ATOM     18  C   UNL     1      33.802 -16.874 -23.667  0.00  0.00    +0.041 C 
BRANCH  17  19
ATOM     19  O   UNL     1      35.877 -16.490 -22.557  0.00  0.00    -0.377 OA
ATOM     20  H   UNL     1      36.086 -17.095 -23.286  0.00  0.00    +0.211 HD
ENDBRANCH  17  19
BRANCH  17  21
ATOM     21  C   UNL     1      34.147 -17.501 -21.258  0.00  0.00    +0.191 C 
BRANCH  21  22
ATOM     22  S   UNL     1      35.315 -18.827 -21.184  0.00  0.00    +0.012 S 
ATOM     23  O   UNL     1      36.497 -18.365 -20.480  0.00  0.00    -0.169 OA
ATOM     24  O   UNL     1      35.429 -19.388 -22.518  0.00  0.00    -0.169 OA
BRANCH  22  26
ATOM     25  F   UNL     1      32.706 -22.815 -17.749  0.00  0.00    -0.204 F 
ATOM     26  C   UNL     1      34.531 -20.027 -20.151  0.00  0.00    +0.106 C 
ATOM     27  C   UNL     1      35.312 -20.861 -19.370  0.00  0.00    +0.021 C 
ATOM     28  C   UNL     1      33.149 -20.111 -20.142  0.00  0.00    +0.021 C 
ATOM     29  C   UNL     1      34.693 -21.808 -18.554  0.00  0.00    +0.031 C 
ATOM     30  C   UNL     1      32.530 -21.057 -19.326  0.00  0.00    +0.031 C 
ATOM     31  C   UNL     1      33.301 -21.905 -18.531  0.00  0.00    +0.140 C 
ENDBRANCH  22  26
ENDBRANCH  21  22
ENDBRANCH  17  21
ENDBRANCH   3  17
TORSDOF 8
ENDMDL
MODEL 2
REMARK VINA RESULT:     -10.3      1.457      2.055
REMARK  Name = 56069
REMARK  8 active torsions:
REMARK  status: ('A' for Active; 'I' for Inactive)
REMARK    1  A    between atoms: N_2  and  C_5
REMARK    2  A    between atoms: C_3  and  C_17
REMARK    3  A    between atoms: C_8  and  C_14
REMARK    4  A    between atoms: C_9  and  C_16
REMARK    5  A    between atoms: C_17  and  O_19
REMARK    6  A    between atoms: C_17  and  C_21
REMARK    7  A    between atoms: C_21  and  S_22
REMARK    8  A    between atoms: S_22  and  C_26
REMARK                            x       y       z     vdW  Elec       q    Type
REMARK                         _______ _______ _______ _____ _____    ______ ____
ROOT
ATOM      1  O   UNL     1      34.308 -15.115 -20.603  0.00  0.00    -0.272 OA
ATOM      2  N   UNL     1      33.133 -14.125 -22.369  0.00  0.00    -0.282 N 
ATOM      3  C   UNL     1      33.933 -15.094 -21.774  0.00  0.00    +0.252 C 
ATOM      4  H   UNL     1      32.923 -14.260 -23.322  0.00  0.00    +0.155 HD
ENDROOT
BRANCH   2   5
ATOM      5  C   UNL     1      32.583 -12.968 -21.767  0.00  0.00    +0.050 C 
ATOM      6  C   UNL     1      32.406 -11.826 -22.530  0.00  0.00    +0.019 C 
ATOM      7  C   UNL     1      32.234 -13.003 -20.428  0.00  0.00    +0.015 C 
ATOM      8  C   UNL     1      31.864 -10.686 -21.936  0.00  0.00    +0.082 C 
ATOM      9  C   UNL     1      31.506 -10.704 -20.588  0.00  0.00    +0.072 C 
ATOM     10  C   UNL     1      31.691 -11.863 -19.833  0.00  0.00    +0.011 C 
BRANCH   8  14
ATOM     11  F   UNL     1      31.906  -9.676 -24.105  0.00  0.00    -0.166 F 
ATOM     12  F   UNL     1      30.422  -8.939 -22.704  0.00  0.00    -0.166 F 
ATOM     13  F   UNL     1      32.521  -8.452 -22.416  0.00  0.00    -0.166 F 
ATOM     14  C   UNL     1      31.680  -9.462 -22.776  0.00  0.00    +0.419 C 
ENDBRANCH   8  14
BRANCH   9  16
ATOM     15  N   UNL     1      30.497  -8.611 -19.443  0.00  0.00    -0.191 NA
ATOM     16  C   UNL     1      30.949  -9.548 -19.955  0.00  0.00    +0.100 C 
ENDBRANCH   9  16
ENDBRANCH   2   5
BRANCH   3  17
ATOM     17  C   UNL     1      34.343 -16.213 -22.749  0.00  0.00    +0.179 C 
ATOM     18  C   UNL     1      33.723 -15.974 -24.131  0.00  0.00    +0.041 C 
BRANCH  17  19
ATOM     19  O   UNL     1      35.760 -16.161 -22.907  0.00  0.00    -0.377 OA
ATOM     20  H   UNL     1      36.021 -16.691 -23.676  0.00  0.00    +0.211 HD
ENDBRANCH  17  19
BRANCH  17  21
ATOM     21  C   UNL     1      33.985 -17.613 -22.244  0.00  0.00    +0.191 C 
BRANCH  21  22
ATOM     22  S   UNL     1      35.352 -18.466 -21.513  0.00  0.00    +0.012 S 
ATOM     23  O   UNL     1      36.029 -17.562 -20.602  0.00  0.00    -0.169 OA
ATOM     24  O   UNL     1      36.087 -19.117 -22.583  0.00  0.00    -0.169 OA
BRANCH  22  26
ATOM     25  F   UNL     1      32.825 -22.640 -18.241  0.00  0.00    -0.204 F 
ATOM     26  C   UNL     1      34.592 -19.722 -20.530  0.00  0.00    +0.106 C 
ATOM     27  C   UNL     1      35.391 -20.591 -19.807  0.00  0.00    +0.021 C 
ATOM     28  C   UNL     1      33.211 -19.814 -20.500  0.00  0.00    +0.021 C 
ATOM     29  C   UNL     1      34.792 -21.582 -19.030  0.00  0.00    +0.031 C 
ATOM     30  C   UNL     1      32.611 -20.805 -19.722  0.00  0.00    +0.031 C 
ATOM     31  C   UNL     1      33.401 -21.688 -18.987  0.00  0.00    +0.140 C 
ENDBRANCH  22  26
ENDBRANCH  21  22
ENDBRANCH  17  21
ENDBRANCH   3  17
TORSDOF 8
ENDMDL
MODEL 3
REMARK VINA RESULT:     -10.2      1.668      2.277
REMARK  Name = 56069
REMARK  8 active torsions:
REMARK  status: ('A' for Active; 'I' for Inactive)
REMARK    1  A    between atoms: N_2  and  C_5
REMARK    2  A    between atoms: C_3  and  C_17
REMARK    3  A    between atoms: C_8  and  C_14
REMARK    4  A    between atoms: C_9  and  C_16
REMARK    5  A    between atoms: C_17  and  O_19
REMARK    6  A    between atoms: C_17  and  C_21
REMARK    7  A    between atoms: C_21  and  S_22
REMARK    8  A    between atoms: S_22  and  C_26
REMARK                            x       y       z     vdW  Elec       q    Type
REMARK                         _______ _______ _______ _____ _____    ______ ____
ROOT
ATOM      1  O   UNL     1      34.938 -16.601 -20.230  0.00  0.00    -0.272 OA
ATOM      2  N   UNL     1      34.367 -16.492 -22.498  0.00  0.00    -0.282 N 
ATOM      3  C   UNL     1      34.828 -17.114 -21.343  0.00  0.00    +0.252 C 
ATOM      4  H   UNL     1      34.340 -17.049 -23.309  0.00  0.00    +0.155 HD
ENDROOT
BRANCH   2   5
ATOM      5  C   UNL     1      33.931 -15.154 -22.645  0.00  0.00    +0.050 C 
ATOM      6  C   UNL     1      33.220 -14.555 -21.619  0.00  0.00    +0.019 C 
ATOM      7  C   UNL     1      34.225 -14.471 -23.814  0.00  0.00    +0.015 C 
ATOM      8  C   UNL     1      32.791 -13.236 -21.765  0.00  0.00    +0.082 C 
ATOM      9  C   UNL     1      33.079 -12.534 -22.935  0.00  0.00    +0.072 C 
ATOM     10  C   UNL     1      33.797 -13.151 -23.960  0.00  0.00    +0.011 C 
BRANCH   8  14
ATOM     11  F   UNL     1      32.703 -11.602 -20.019  0.00  0.00    -0.166 F 
ATOM     12  F   UNL     1      30.843 -12.051 -21.042  0.00  0.00    -0.166 F 
ATOM     13  F   UNL     1      31.703 -13.501 -19.668  0.00  0.00    -0.166 F 
ATOM     14  C   UNL     1      32.024 -12.607 -20.645  0.00  0.00    +0.419 C 
ENDBRANCH   8  14
BRANCH   9  16
ATOM     15  N   UNL     1      32.303 -10.083 -23.250  0.00  0.00    -0.191 NA
ATOM     16  C   UNL     1      32.650 -11.180 -23.109  0.00  0.00    +0.100 C 
ENDBRANCH   9  16
ENDBRANCH   2   5
BRANCH   3  17
ATOM     17  C   UNL     1      35.214 -18.587 -21.569  0.00  0.00    +0.179 C 
ATOM     18  C   UNL     1      34.966 -18.989 -23.028  0.00  0.00    +0.041 C 
BRANCH  17  19
ATOM     19  O   UNL     1      36.615 -18.716 -21.328  0.00  0.00    -0.377 OA
ATOM     20  H   UNL     1      36.875 -18.123 -20.605  0.00  0.00    +0.211 HD
ENDBRANCH  17  19
BRANCH  17  21
ATOM     21  C   UNL     1      34.492 -19.551 -20.624  0.00  0.00    +0.191 C 
BRANCH  21  22
ATOM     22  S   UNL     1      35.593 -20.542 -19.657  0.00  0.00    +0.012 S 
ATOM     23  O   UNL     1      36.440 -19.662 -18.873  0.00  0.00    -0.169 OA
ATOM     24  O   UNL     1      36.181 -21.535 -20.538  0.00  0.00    -0.169 OA
BRANCH  22  26
ATOM     25  F   UNL     1      32.044 -23.326 -15.892  0.00  0.00    -0.204 F 
ATOM     26  C   UNL     1      34.526 -21.380 -18.524  0.00  0.00    +0.106 C 
ATOM     27  C   UNL     1      35.055 -21.903 -17.357  0.00  0.00    +0.021 C 
ATOM     28  C   UNL     1      33.179 -21.498 -18.825  0.00  0.00    +0.021 C 
ATOM     29  C   UNL     1      34.213 -22.564 -16.463  0.00  0.00    +0.031 C 
ATOM     30  C   UNL     1      32.337 -22.158 -17.931  0.00  0.00    +0.031 C 
ATOM     31  C   UNL     1      32.854 -22.691 -16.750  0.00  0.00    +0.140 C 
ENDBRANCH  22  26
ENDBRANCH  21  22
ENDBRANCH  17  21
ENDBRANCH   3  17
TORSDOF 8
ENDMDL
MODEL 4
REMARK VINA RESULT:     -10.2      4.371     10.524
REMARK  Name = 56069
REMARK  8 active torsions:
REMARK  status: ('A' for Active; 'I' for Inactive)
REMARK    1  A    between atoms: N_2  and  C_5
REMARK    2  A    between atoms: C_3  and  C_17
REMARK    3  A    between atoms: C_8  and  C_14
REMARK    4  A    between atoms: C_9  and  C_16
REMARK    5  A    between atoms: C_17  and  O_19
REMARK    6  A    between atoms: C_17  and  C_21
REMARK    7  A    between atoms: C_21  and  S_22
REMARK    8  A    between atoms: S_22  and  C_26
REMARK                            x       y       z     vdW  Elec       q    Type
REMARK                         _______ _______ _______ _____ _____    ______ ____
ROOT
ATOM      1  O   UNL     1      32.322 -21.454 -19.405  0.00  0.00    -0.272 OA
ATOM      2  N   UNL     1      34.003 -21.745 -17.802  0.00  0.00    -0.282 N 
ATOM      3  C   UNL     1      33.485 -21.332 -19.025  0.00  0.00    +0.252 C 
ATOM      4  H   UNL     1      34.961 -21.569 -17.655  0.00  0.00    +0.155 HD
ENDROOT
BRANCH   2   5
ATOM      5  C   UNL     1      33.317 -22.388 -16.744  0.00  0.00    +0.050 C 
ATOM      6  C   UNL     1      31.933 -22.376 -16.728  0.00  0.00    +0.019 C 
ATOM      7  C   UNL     1      34.046 -23.015 -15.748  0.00  0.00    +0.015 C 
ATOM      8  C   UNL     1      31.257 -23.010 -15.685  0.00  0.00    +0.082 C 
ATOM      9  C   UNL     1      31.976 -23.647 -14.673  0.00  0.00    +0.072 C 
ATOM     10  C   UNL     1      33.370 -23.650 -14.705  0.00  0.00    +0.011 C 
BRANCH   8  14
ATOM     11  F   UNL     1      29.228 -22.333 -16.757  0.00  0.00    -0.166 F 
ATOM     12  F   UNL     1      29.200 -24.229 -15.704  0.00  0.00    -0.166 F 
ATOM     13  F   UNL     1      29.251 -22.367 -14.583  0.00  0.00    -0.166 F 
ATOM     14  C   UNL     1      29.762 -22.986 -15.685  0.00  0.00    +0.419 C 
ENDBRANCH   8  14
BRANCH   9  16
ATOM     15  N   UNL     1      30.764 -24.836 -12.717  0.00  0.00    -0.191 NA
ATOM     16  C   UNL     1      31.306 -24.303 -13.592  0.00  0.00    +0.100 C 
ENDBRANCH   9  16
ENDBRANCH   2   5
BRANCH   3  17
ATOM     17  C   UNL     1      34.539 -20.665 -19.927  0.00  0.00    +0.179 C 
ATOM     18  C   UNL     1      35.861 -20.490 -19.170  0.00  0.00    +0.041 C 
BRANCH  17  19
ATOM     19  O   UNL     1      34.794 -21.540 -21.026  0.00  0.00    -0.377 OA
ATOM     20  H   UNL     1      35.511 -22.151 -20.794  0.00  0.00    +0.211 HD
ENDBRANCH  17  19
BRANCH  17  21
ATOM     21  C   UNL     1      34.078 -19.323 -20.502  0.00  0.00    +0.191 C 
BRANCH  21  22
ATOM     22  S   UNL     1      35.040 -18.784 -21.885  0.00  0.00    +0.012 S 
ATOM     23  O   UNL     1      34.562 -19.463 -23.076  0.00  0.00    -0.169 OA
ATOM     24  O   UNL     1      36.439 -18.865 -21.506  0.00  0.00    -0.169 OA
BRANCH  22  26
ATOM     25  F   UNL     1      33.643 -13.106 -22.455  0.00  0.00    -0.204 F 
ATOM     26  C   UNL     1      34.619 -17.076 -22.056  0.00  0.00    +0.106 C 
ATOM     27  C   UNL     1      34.430 -16.309 -20.920  0.00  0.00    +0.021 C 
ATOM     28  C   UNL     1      34.487 -16.536 -23.325  0.00  0.00    +0.021 C 
ATOM     29  C   UNL     1      34.099 -14.961 -21.055  0.00  0.00    +0.031 C 
ATOM     30  C   UNL     1      34.156 -15.188 -23.460  0.00  0.00    +0.031 C 
ATOM     31  C   UNL     1      33.962 -14.400 -22.325  0.00  0.00    +0.140 C 
ENDBRANCH  22  26
ENDBRANCH  21  22
ENDBRANCH  17  21
ENDBRANCH   3  17
TORSDOF 8
ENDMDL
MODEL 5
REMARK VINA RESULT:     -10.1      3.578      9.964
REMARK  Name = 56069
REMARK  8 active torsions:
REMARK  status: ('A' for Active; 'I' for Inactive)
REMARK    1  A    between atoms: N_2  and  C_5
REMARK    2  A    between atoms: C_3  and  C_17
REMARK    3  A    between atoms: C_8  and  C_14
REMARK    4  A    between atoms: C_9  and  C_16
REMARK    5  A    between atoms: C_17  and  O_19
REMARK    6  A    between atoms: C_17  and  C_21
REMARK    7  A    between atoms: C_21  and  S_22
REMARK    8  A    between atoms: S_22  and  C_26
REMARK                            x       y       z     vdW  Elec       q    Type
REMARK                         _______ _______ _______ _____ _____    ______ ____
ROOT
ATOM      1  O   UNL     1      33.399 -19.459 -21.168  0.00  0.00    -0.272 OA
ATOM      2  N   UNL     1      35.485 -19.589 -20.114  0.00  0.00    -0.282 N 
ATOM      3  C   UNL     1      34.577 -19.123 -21.058  0.00  0.00    +0.252 C 
ATOM      4  H   UNL     1      36.394 -19.214 -20.163  0.00  0.00    +0.155 HD
ENDROOT
BRANCH   2   5
ATOM      5  C   UNL     1      35.257 -20.540 -19.089  0.00  0.00    +0.050 C 
ATOM      6  C   UNL     1      36.205 -20.705 -18.094  0.00  0.00    +0.019 C 
ATOM      7  C   UNL     1      34.090 -21.284 -19.105  0.00  0.00    +0.015 C 
ATOM      8  C   UNL     1      35.980 -21.641 -17.085  0.00  0.00    +0.082 C 
ATOM      9  C   UNL     1      34.809 -22.400 -17.086  0.00  0.00    +0.072 C 
ATOM     10  C   UNL     1      33.864 -22.221 -18.096  0.00  0.00    +0.011 C 
BRANCH   8  14
ATOM     11  F   UNL     1      36.514 -21.710 -14.754  0.00  0.00    -0.166 F 
ATOM     12  F   UNL     1      37.655 -23.009 -16.064  0.00  0.00    -0.166 F 
ATOM     13  F   UNL     1      37.998 -20.862 -16.098  0.00  0.00    -0.166 F 
ATOM     14  C   UNL     1      37.016 -21.804 -16.019  0.00  0.00    +0.419 C 
ENDBRANCH   8  14
BRANCH   9  16
ATOM     15  N   UNL     1      34.349 -24.150 -15.233  0.00  0.00    -0.191 NA
ATOM     16  C   UNL     1      34.555 -23.366 -16.062  0.00  0.00    +0.100 C 
ENDBRANCH   9  16
ENDBRANCH   2   5
BRANCH   3  17
ATOM     17  C   UNL     1      35.190 -18.086 -22.017  0.00  0.00    +0.179 C 
ATOM     18  C   UNL     1      36.719 -18.210 -22.035  0.00  0.00    +0.041 C 
BRANCH  17  19
ATOM     19  O   UNL     1      34.727 -18.379 -23.335  0.00  0.00    -0.377 OA
ATOM     20  H   UNL     1      35.458 -18.278 -23.965  0.00  0.00    +0.211 HD
ENDBRANCH  17  19
BRANCH  17  21
ATOM     21  C   UNL     1      34.780 -16.648 -21.692  0.00  0.00    +0.191 C 
BRANCH  21  22
ATOM     22  S   UNL     1      34.204 -15.746 -23.100  0.00  0.00    +0.012 S 
ATOM     23  O   UNL     1      33.217 -16.552 -23.795  0.00  0.00    -0.169 OA
ATOM     24  O   UNL     1      35.369 -15.243 -23.807  0.00  0.00    -0.169 OA
BRANCH  22  26
ATOM     25  F   UNL     1      31.367 -11.155 -20.780  0.00  0.00    -0.204 F 
ATOM     26  C   UNL     1      33.350 -14.366 -22.402  0.00  0.00    +0.106 C 
ATOM     27  C   UNL     1      33.220 -14.276 -21.027  0.00  0.00    +0.021 C 
ATOM     28  C   UNL     1      32.826 -13.399 -23.244  0.00  0.00    +0.021 C 
ATOM     29  C   UNL     1      32.548 -13.186 -20.475  0.00  0.00    +0.031 C 
ATOM     30  C   UNL     1      32.153 -12.309 -22.692  0.00  0.00    +0.031 C 
ATOM     31  C   UNL     1      32.014 -12.202 -21.308  0.00  0.00    +0.140 C 
ENDBRANCH  22  26
ENDBRANCH  21  22
ENDBRANCH  17  21
ENDBRANCH   3  17
TORSDOF 8
ENDMDL
MODEL 6
REMARK VINA RESULT:     -10.1      5.554     11.162
REMARK  Name = 56069
REMARK  8 active torsions:
REMARK  status: ('A' for Active; 'I' for Inactive)
REMARK    1  A    between atoms: N_2  and  C_5
REMARK    2  A    between atoms: C_3  and  C_17
REMARK    3  A    between atoms: C_8  and  C_14
REMARK    4  A    between atoms: C_9  and  C_16
REMARK    5  A    between atoms: C_17  and  O_19
REMARK    6  A    between atoms: C_17  and  C_21
REMARK    7  A    between atoms: C_21  and  S_22
REMARK    8  A    between atoms: S_22  and  C_26
REMARK                            x       y       z     vdW  Elec       q    Type
REMARK                         _______ _______ _______ _____ _____    ______ ____
ROOT
ATOM      1  O   UNL     1      33.491 -10.075 -23.377  0.00  0.00    -0.272 OA
ATOM      2  N   UNL     1      32.109 -11.427 -22.056  0.00  0.00    -0.282 N 
ATOM      3  C   UNL     1      32.502 -10.240 -22.664  0.00  0.00    +0.252 C 
ATOM      4  H   UNL     1      31.287 -11.387 -21.517  0.00  0.00    +0.155 HD
ENDROOT
BRANCH   2   5
ATOM      5  C   UNL     1      32.752 -12.687 -22.122  0.00  0.00    +0.050 C 
ATOM      6  C   UNL     1      32.820 -13.350 -23.335  0.00  0.00    +0.019 C 
ATOM      7  C   UNL     1      33.297 -13.228 -20.971  0.00  0.00    +0.015 C 
ATOM      8  C   UNL     1      33.453 -14.592 -23.399  0.00  0.00    +0.082 C 
ATOM      9  C   UNL     1      34.009 -15.152 -22.249  0.00  0.00    +0.072 C 
ATOM     10  C   UNL     1      33.931 -14.470 -21.034  0.00  0.00    +0.011 C 
BRANCH   8  14
ATOM     11  F   UNL     1      34.774 -15.701 -25.057  0.00  0.00    -0.166 F 
ATOM     12  F   UNL     1      32.747 -16.418 -24.773  0.00  0.00    -0.166 F 
ATOM     13  F   UNL     1      33.094 -14.506 -25.748  0.00  0.00    -0.166 F 
ATOM     14  C   UNL     1      33.517 -15.293 -24.719  0.00  0.00    +0.419 C 
ENDBRANCH   8  14
BRANCH   9  16
ATOM     15  N   UNL     1      35.193 -17.454 -22.321  0.00  0.00    -0.191 NA
ATOM     16  C   UNL     1      34.663 -16.424 -22.289  0.00  0.00    +0.100 C 
ENDBRANCH   9  16
ENDBRANCH   2   5
BRANCH   3  17
ATOM     17  C   UNL     1      31.548  -9.069 -22.364  0.00  0.00    +0.179 C 
ATOM     18  C   UNL     1      30.110  -9.576 -22.204  0.00  0.00    +0.041 C 
BRANCH  17  19
ATOM     19  O   UNL     1      31.936  -8.496 -21.116  0.00  0.00    -0.377 OA
ATOM     20  H   UNL     1      32.563  -9.086 -20.669  0.00  0.00    +0.211 HD
ENDBRANCH  17  19
BRANCH  17  21
ATOM     21  C   UNL     1      31.604  -7.961 -23.419  0.00  0.00    +0.191 C 
BRANCH  21  22
ATOM     22  S   UNL     1      32.539  -6.550 -22.906  0.00  0.00    +0.012 S 
ATOM     23  O   UNL     1      33.787  -7.008 -22.324  0.00  0.00    -0.169 OA
ATOM     24  O   UNL     1      31.651  -5.683 -22.152  0.00  0.00    -0.169 OA
BRANCH  22  26
ATOM     25  F   UNL     1      33.877  -3.832 -27.940  0.00  0.00    -0.204 F 
ATOM     26  C   UNL     1      32.942  -5.733 -24.421  0.00  0.00    +0.106 C 
ATOM     27  C   UNL     1      32.207  -6.018 -25.559  0.00  0.00    +0.021 C 
ATOM     28  C   UNL     1      33.985  -4.823 -24.442  0.00  0.00    +0.021 C 
ATOM     29  C   UNL     1      32.524  -5.372 -26.754  0.00  0.00    +0.031 C 
ATOM     30  C   UNL     1      34.302  -4.178 -25.637  0.00  0.00    +0.031 C 
ATOM     31  C   UNL     1      33.571  -4.452 -26.793  0.00  0.00    +0.140 C 
ENDBRANCH  22  26
ENDBRANCH  21  22
ENDBRANCH  17  21
ENDBRANCH   3  17
TORSDOF 8
ENDMDL
MODEL 7
REMARK VINA RESULT:     -10.0      2.675      3.555
REMARK  Name = 56069
REMARK  8 active torsions:
REMARK  status: ('A' for Active; 'I' for Inactive)
REMARK    1  A    between atoms: N_2  and  C_5
REMARK    2  A    between atoms: C_3  and  C_17
REMARK    3  A    between atoms: C_8  and  C_14
REMARK    4  A    between atoms: C_9  and  C_16
REMARK    5  A    between atoms: C_17  and  O_19
REMARK    6  A    between atoms: C_17  and  C_21
REMARK    7  A    between atoms: C_21  and  S_22
REMARK    8  A    between atoms: S_22  and  C_26
REMARK                            x       y       z     vdW  Elec       q    Type
REMARK                         _______ _______ _______ _____ _____    ______ ____
ROOT
ATOM      1  O   UNL     1      34.994 -16.758 -20.236  0.00  0.00    -0.272 OA
ATOM      2  N   UNL     1      34.324 -16.705 -22.479  0.00  0.00    -0.282 N 
ATOM      3  C   UNL     1      34.804 -17.307 -21.320  0.00  0.00    +0.252 C 
ATOM      4  H   UNL     1      34.228 -17.291 -23.264  0.00  0.00    +0.155 HD
ENDROOT
BRANCH   2   5
ATOM      5  C   UNL     1      33.957 -15.351 -22.663  0.00  0.00    +0.050 C 
ATOM      6  C   UNL     1      33.617 -14.906 -23.929  0.00  0.00    +0.019 C 
ATOM      7  C   UNL     1      33.948 -14.499 -21.572  0.00  0.00    +0.015 C 
ATOM      8  C   UNL     1      33.255 -13.571 -24.109  0.00  0.00    +0.082 C 
ATOM      9  C   UNL     1      33.240 -12.699 -23.020  0.00  0.00    +0.072 C 
ATOM     10  C   UNL     1      33.586 -13.163 -21.751  0.00  0.00    +0.011 C 
BRANCH   8  14
ATOM     11  F   UNL     1      33.078 -14.061 -26.445  0.00  0.00    -0.166 F 
ATOM     12  F   UNL     1      31.583 -12.735 -25.601  0.00  0.00    -0.166 F 
ATOM     13  F   UNL     1      33.621 -12.031 -25.883  0.00  0.00    -0.166 F 
ATOM     14  C   UNL     1      32.889 -13.110 -25.484  0.00  0.00    +0.419 C 
ENDBRANCH   8  14
BRANCH   9  16
ATOM     15  N   UNL     1      32.576 -10.212 -23.309  0.00  0.00    -0.191 NA
ATOM     16  C   UNL     1      32.873 -11.325 -23.180  0.00  0.00    +0.100 C 
ENDBRANCH   9  16
ENDBRANCH   2   5
BRANCH   3  17
ATOM     17  C   UNL     1      35.097 -18.808 -21.502  0.00  0.00    +0.179 C 
ATOM     18  C   UNL     1      34.738 -19.256 -22.923  0.00  0.00    +0.041 C 
BRANCH  17  19
ATOM     19  O   UNL     1      36.501 -19.004 -21.338  0.00  0.00    -0.377 OA
ATOM     20  H   UNL     1      36.747 -18.831 -20.415  0.00  0.00    +0.211 HD
ENDBRANCH  17  19
BRANCH  17  21
ATOM     21  C   UNL     1      34.384 -19.689 -20.473  0.00  0.00    +0.191 C 
BRANCH  21  22
ATOM     22  S   UNL     1      35.485 -20.712 -19.541  0.00  0.00    +0.012 S 
ATOM     23  O   UNL     1      36.386 -19.857 -18.789  0.00  0.00    -0.169 OA
ATOM     24  O   UNL     1      36.012 -21.724 -20.439  0.00  0.00    -0.169 OA
BRANCH  22  26
ATOM     25  F   UNL     1      31.987 -23.382 -15.649  0.00  0.00    -0.204 F 
ATOM     26  C   UNL     1      34.433 -21.514 -18.370  0.00  0.00    +0.106 C 
ATOM     27  C   UNL     1      33.081 -21.632 -18.645  0.00  0.00    +0.021 C 
ATOM     28  C   UNL     1      34.979 -22.011 -17.199  0.00  0.00    +0.021 C 
ATOM     29  C   UNL     1      32.250 -22.266 -17.722  0.00  0.00    +0.031 C 
ATOM     30  C   UNL     1      34.149 -22.646 -16.276  0.00  0.00    +0.031 C 
ATOM     31  C   UNL     1      32.784 -22.774 -16.537  0.00  0.00    +0.140 C 
ENDBRANCH  22  26
ENDBRANCH  21  22
ENDBRANCH  17  21
ENDBRANCH   3  17
TORSDOF 8
ENDMDL
MODEL 8
REMARK VINA RESULT:      -9.9      3.252      4.984
REMARK  Name = 56069
REMARK  8 active torsions:
REMARK  status: ('A' for Active; 'I' for Inactive)
REMARK    1  A    between atoms: N_2  and  C_5
REMARK    2  A    between atoms: C_3  and  C_17
REMARK    3  A    between atoms: C_8  and  C_14
REMARK    4  A    between atoms: C_9  and  C_16
REMARK    5  A    between atoms: C_17  and  O_19
REMARK    6  A    between atoms: C_17  and  C_21
REMARK    7  A    between atoms: C_21  and  S_22
REMARK    8  A    between atoms: S_22  and  C_26
REMARK                            x       y       z     vdW  Elec       q    Type
REMARK                         _______ _______ _______ _____ _____    ______ ____
ROOT
ATOM      1  O   UNL     1      33.225 -19.984 -20.915  0.00  0.00    -0.272 OA
ATOM      2  N   UNL     1      35.059 -18.528 -20.901  0.00  0.00    -0.282 N 
ATOM      3  C   UNL     1      34.357 -19.674 -20.545  0.00  0.00    +0.252 C 
ATOM      4  H   UNL     1      35.960 -18.433 -20.516  0.00  0.00    +0.155 HD
ENDROOT
BRANCH   2   5
ATOM      5  C   UNL     1      34.631 -17.481 -21.753  0.00  0.00    +0.050 C 
ATOM      6  C   UNL     1      34.390 -16.227 -21.218  0.00  0.00    +0.019 C 
ATOM      7  C   UNL     1      34.461 -17.734 -23.103  0.00  0.00    +0.015 C 
ATOM      8  C   UNL     1      33.969 -15.196 -22.057  0.00  0.00    +0.082 C 
ATOM      9  C   UNL     1      33.793 -15.433 -23.420  0.00  0.00    +0.072 C 
ATOM     10  C   UNL     1      34.040 -16.703 -23.944  0.00  0.00    +0.011 C 
BRANCH   8  14
ATOM     11  F   UNL     1      34.238 -12.822 -22.191  0.00  0.00    -0.166 F 
ATOM     12  F   UNL     1      32.389 -13.555 -21.327  0.00  0.00    -0.166 F 
ATOM     13  F   UNL     1      34.248 -13.723 -20.212  0.00  0.00    -0.166 F 
ATOM     14  C   UNL     1      33.714 -13.848 -21.460  0.00  0.00    +0.419 C 
ENDBRANCH   8  14
BRANCH   9  16
ATOM     15  N   UNL     1      33.011 -13.549 -25.016  0.00  0.00    -0.191 NA
ATOM     16  C   UNL     1      33.361 -14.393 -24.302  0.00  0.00    +0.100 C 
ENDBRANCH   9  16
ENDBRANCH   2   5
BRANCH   3  17
ATOM     17  C   UNL     1      35.150 -20.590 -19.595  0.00  0.00    +0.179 C 
ATOM     18  C   UNL     1      35.545 -21.889 -20.307  0.00  0.00    +0.041 C 
BRANCH  17  19
ATOM     19  O   UNL     1      36.358 -19.917 -19.242  0.00  0.00    -0.377 OA
ATOM     20  H   UNL     1      36.609 -19.307 -19.954  0.00  0.00    +0.211 HD
ENDBRANCH  17  19
BRANCH  17  21
ATOM     21  C   UNL     1      34.401 -20.905 -18.297  0.00  0.00    +0.191 C 
BRANCH  21  22
ATOM     22  S   UNL     1      33.081 -22.062 -18.511  0.00  0.00    +0.012 S 
ATOM     23  O   UNL     1      33.572 -23.188 -19.284  0.00  0.00    -0.169 OA
ATOM     24  O   UNL     1      31.914 -21.321 -18.956  0.00  0.00    -0.169 OA
BRANCH  22  26
ATOM     25  F   UNL     1      32.023 -24.022 -13.075  0.00  0.00    -0.204 F 
ATOM     26  C   UNL     1      32.763 -22.653 -16.876  0.00  0.00    +0.106 C 
ATOM     27  C   UNL     1      33.829 -22.982 -16.057  0.00  0.00    +0.021 C 
ATOM     28  C   UNL     1      31.453 -22.774 -16.444  0.00  0.00    +0.021 C 
ATOM     29  C   UNL     1      33.578 -23.447 -14.766  0.00  0.00    +0.031 C 
ATOM     30  C   UNL     1      31.202 -23.238 -15.153  0.00  0.00    +0.031 C 
ATOM     31  C   UNL     1      32.264 -23.574 -14.314  0.00  0.00    +0.140 C 
ENDBRANCH  22  26
ENDBRANCH  21  22
ENDBRANCH  17  21
ENDBRANCH   3  17
TORSDOF 8
ENDMDL
MODEL 9
REMARK VINA RESULT:      -9.8      3.247      9.520
REMARK  Name = 56069
REMARK  8 active torsions:
REMARK  status: ('A' for Active; 'I' for Inactive)
REMARK    1  A    between atoms: N_2  and  C_5
REMARK    2  A    between atoms: C_3  and  C_17
REMARK    3  A    between atoms: C_8  and  C_14
REMARK    4  A    between atoms: C_9  and  C_16
REMARK    5  A    between atoms: C_17  and  O_19
REMARK    6  A    between atoms: C_17  and  C_21
REMARK    7  A    between atoms: C_21  and  S_22
REMARK    8  A    between atoms: S_22  and  C_26
REMARK                            x       y       z     vdW  Elec       q    Type
REMARK                         _______ _______ _______ _____ _____    ______ ____
ROOT
ATOM      1  O   UNL     1      35.171 -17.755 -20.604  0.00  0.00    -0.272 OA
ATOM      2  N   UNL     1      34.472 -19.945 -21.046  0.00  0.00    -0.282 N 
ATOM      3  C   UNL     1      34.718 -18.613 -21.360  0.00  0.00    +0.252 C 
ATOM      4  H   UNL     1      34.107 -20.502 -21.771  0.00  0.00    +0.155 HD
ENDROOT
BRANCH   2   5
ATOM      5  C   UNL     1      34.686 -20.596 -19.807  0.00  0.00    +0.050 C 
ATOM      6  C   UNL     1      33.620 -21.211 -19.172  0.00  0.00    +0.019 C 
ATOM      7  C   UNL     1      35.956 -20.602 -19.256  0.00  0.00    +0.015 C 
ATOM      8  C   UNL     1      33.831 -21.851 -17.951  0.00  0.00    +0.082 C 
ATOM      9  C   UNL     1      35.105 -21.868 -17.382  0.00  0.00    +0.072 C 
ATOM     10  C   UNL     1      36.168 -21.243 -18.035  0.00  0.00    +0.011 C 
BRANCH   8  14
ATOM     11  F   UNL     1      32.631 -23.863 -17.461  0.00  0.00    -0.166 F 
ATOM     12  F   UNL     1      32.646 -22.327 -15.929  0.00  0.00    -0.166 F 
ATOM     13  F   UNL     1      31.471 -22.044 -17.736  0.00  0.00    -0.166 F 
ATOM     14  C   UNL     1      32.668 -22.511 -17.280  0.00  0.00    +0.419 C 
ENDBRANCH   8  14
BRANCH   9  16
ATOM     15  N   UNL     1      35.543 -23.044 -15.117  0.00  0.00    -0.191 NA
ATOM     16  C   UNL     1      35.347 -22.518 -16.131  0.00  0.00    +0.100 C 
ENDBRANCH   9  16
ENDBRANCH   2   5
BRANCH   3  17
ATOM     17  C   UNL     1      34.360 -18.266 -22.817  0.00  0.00    +0.179 C 
ATOM     18  C   UNL     1      34.712 -19.432 -23.748  0.00  0.00    +0.041 C 
BRANCH  17  19
ATOM     19  O   UNL     1      32.947 -18.078 -22.889  0.00  0.00    -0.377 OA
ATOM     20  H   UNL     1      32.639 -17.626 -22.088  0.00  0.00    +0.211 HD
ENDBRANCH  17  19
BRANCH  17  21
ATOM     21  C   UNL     1      35.024 -16.977 -23.309  0.00  0.00    +0.191 C 
BRANCH  21  22
ATOM     22  S   UNL     1      33.948 -15.958 -24.275  0.00  0.00    +0.012 S 
ATOM     23  O   UNL     1      32.771 -16.731 -24.628  0.00  0.00    -0.169 OA
ATOM     24  O   UNL     1      34.749 -15.328 -25.309  0.00  0.00    -0.169 OA
BRANCH  22  26
ATOM     25  F   UNL     1      32.210 -11.783 -20.525  0.00  0.00    -0.204 F 
ATOM     26  C   UNL     1      33.426 -14.701 -23.148  0.00  0.00    +0.106 C 
ATOM     27  C   UNL     1      32.656 -13.650 -23.616  0.00  0.00    +0.021 C 
ATOM     28  C   UNL     1      33.795 -14.792 -21.816  0.00  0.00    +0.021 C 
ATOM     29  C   UNL     1      32.243 -12.659 -22.725  0.00  0.00    +0.031 C 
ATOM     30  C   UNL     1      33.382 -13.801 -20.926  0.00  0.00    +0.031 C 
ATOM     31  C   UNL     1      32.605 -12.735 -21.380  0.00  0.00    +0.140 C 
ENDBRANCH  22  26
ENDBRANCH  21  22
ENDBRANCH  17  21
ENDBRANCH   3  17
TORSDOF 8
ENDMDL
