MODEL 1
REMARK VINA RESULT:     -11.6      0.000      0.000
REMARK  Name = 25263414
REMARK  3 active torsions:
REMARK  status: ('A' for Active; 'I' for Inactive)
REMARK    1  A    between atoms: N_1  and  C_7
REMARK    2  A    between atoms: N_1  and  C_13
REMARK    3  A    between atoms: C_16  and  C_22
REMARK                            x       y       z     vdW  Elec       q    Type
REMARK                         _______ _______ _______ _____ _____    ______ ____
ROOT
ATOM      1  N   UNL     1      32.988 -22.810 -18.231  0.00  0.00    -0.299 N 
ATOM      2  H   UNL     1      32.896 -23.668 -18.704  0.00  0.00    +0.153 HD
ENDROOT
BRANCH   1   7
ATOM      3  N   UNL     1      33.468 -23.065 -15.928  0.00  0.00    -0.106 N 
ATOM      4  N   UNL     1      31.835 -22.801 -14.183  0.00  0.00    -0.340 NA
ATOM      5  N   UNL     1      34.790 -23.362 -16.037  0.00  0.00    -0.139 NA
ATOM      6  N   UNL     1      34.171 -23.358 -13.847  0.00  0.00    -0.145 NA
ATOM      7  C   UNL     1      32.541 -22.789 -16.941  0.00  0.00    +0.138 C 
ATOM      8  C   UNL     1      31.274 -22.521 -16.587  0.00  0.00    +0.061 C 
ATOM      9  C   UNL     1      33.112 -23.069 -14.576  0.00  0.00    +0.174 C 
ATOM     10  C   UNL     1      30.974 -22.544 -15.124  0.00  0.00    +0.125 C 
ATOM     11  C   UNL     1      29.554 -22.245 -14.712  0.00  0.00    +0.068 C 
ATOM     12  C   UNL     1      35.152 -23.524 -14.770  0.00  0.00    +0.230 C 
ENDBRANCH   1   7
BRANCH   1  13
ATOM     13  C   UNL     1      33.563 -21.766 -18.967  0.00  0.00    +0.049 C 
ATOM     14  C   UNL     1      32.747 -20.880 -19.669  0.00  0.00    +0.015 C 
ATOM     15  C   UNL     1      34.949 -21.613 -18.996  0.00  0.00    +0.015 C 
ATOM     16  C   UNL     1      34.705 -19.686 -20.433  0.00  0.00    +0.072 C 
ATOM     17  C   UNL     1      33.318 -19.840 -20.403  0.00  0.00    +0.005 C 
ATOM     18  C   UNL     1      35.519 -20.574 -19.729  0.00  0.00    +0.005 C 
BRANCH  16  22
ATOM     19  F   UNL     1      34.800 -17.346 -20.917  0.00  0.00    -0.166 F 
ATOM     20  F   UNL     1      36.663 -18.450 -21.030  0.00  0.00    -0.166 F 
ATOM     21  F   UNL     1      35.144 -18.724 -22.562  0.00  0.00    -0.166 F 
ATOM     22  C   UNL     1      35.316 -18.574 -21.216  0.00  0.00    +0.419 C 
ENDBRANCH  16  22
ENDBRANCH   1  13
TORSDOF 3
ENDMDL
MODEL 2
REMARK VINA RESULT:     -11.5      1.168      2.688
REMARK  Name = 25263414
REMARK  3 active torsions:
REMARK  status: ('A' for Active; 'I' for Inactive)
REMARK    1  A    between atoms: N_1  and  C_7
REMARK    2  A    between atoms: N_1  and  C_13
REMARK    3  A    between atoms: C_16  and  C_22
REMARK                            x       y       z     vdW  Elec       q    Type
REMARK                         _______ _______ _______ _____ _____    ______ ____
ROOT
ATOM      1  N   UNL     1      32.328 -22.350 -18.342  0.00  0.00    -0.299 N 
ATOM      2  H   UNL     1      31.716 -22.905 -18.878  0.00  0.00    +0.153 HD
ENDROOT
BRANCH   1   7
ATOM      3  N   UNL     1      31.053 -22.466 -16.353  0.00  0.00    -0.106 N 
ATOM      4  N   UNL     1      31.986 -22.955 -14.192  0.00  0.00    -0.340 NA
ATOM      5  N   UNL     1      29.834 -22.189 -16.887  0.00  0.00    -0.139 NA
ATOM      6  N   UNL     1      29.645 -22.516 -14.642  0.00  0.00    -0.145 NA
ATOM      7  C   UNL     1      32.295 -22.559 -16.994  0.00  0.00    +0.138 C 
ATOM      8  C   UNL     1      33.374 -22.846 -16.249  0.00  0.00    +0.061 C 
ATOM      9  C   UNL     1      30.911 -22.662 -14.975  0.00  0.00    +0.174 C 
ATOM     10  C   UNL     1      33.139 -23.042 -14.787  0.00  0.00    +0.125 C 
ATOM     11  C   UNL     1      34.344 -23.365 -13.938  0.00  0.00    +0.068 C 
ATOM     12  C   UNL     1      29.039 -22.234 -15.824  0.00  0.00    +0.230 C 
ENDBRANCH   1   7
BRANCH   1  13
ATOM     13  C   UNL     1      33.121 -21.448 -19.062  0.00  0.00    +0.049 C 
ATOM     14  C   UNL     1      32.519 -20.481 -19.867  0.00  0.00    +0.015 C 
ATOM     15  C   UNL     1      34.511 -21.514 -18.971  0.00  0.00    +0.015 C 
ATOM     16  C   UNL     1      34.699 -19.648 -20.494  0.00  0.00    +0.072 C 
ATOM     17  C   UNL     1      33.308 -19.581 -20.584  0.00  0.00    +0.005 C 
ATOM     18  C   UNL     1      35.300 -20.615 -19.687  0.00  0.00    +0.005 C 
BRANCH  16  22
ATOM     19  F   UNL     1      36.883 -18.840 -21.043  0.00  0.00    -0.166 F 
ATOM     20  F   UNL     1      35.388 -18.779 -22.612  0.00  0.00    -0.166 F 
ATOM     21  F   UNL     1      35.270 -17.385 -20.948  0.00  0.00    -0.166 F 
ATOM     22  C   UNL     1      35.543 -18.686 -21.259  0.00  0.00    +0.419 C 
ENDBRANCH  16  22
ENDBRANCH   1  13
TORSDOF 3
ENDMDL
MODEL 3
REMARK VINA RESULT:     -11.3      5.974      9.003
REMARK  Name = 25263414
REMARK  3 active torsions:
REMARK  status: ('A' for Active; 'I' for Inactive)
REMARK    1  A    between atoms: N_1  and  C_7
REMARK    2  A    between atoms: N_1  and  C_13
REMARK    3  A    between atoms: C_16  and  C_22
REMARK                            x       y       z     vdW  Elec       q    Type
REMARK                         _______ _______ _______ _____ _____    ______ ____
ROOT
ATOM      1  N   UNL     1      34.949 -16.654 -22.846  0.00  0.00    -0.299 N 
ATOM      2  H   UNL     1      35.501 -16.712 -23.659  0.00  0.00    +0.153 HD
ENDROOT
BRANCH   1   7
ATOM      3  N   UNL     1      33.731 -14.892 -23.851  0.00  0.00    -0.106 N 
ATOM      4  N   UNL     1      32.708 -13.099 -22.619  0.00  0.00    -0.340 NA
ATOM      5  N   UNL     1      33.856 -15.284 -25.146  0.00  0.00    -0.139 NA
ATOM      6  N   UNL     1      32.644 -13.361 -25.028  0.00  0.00    -0.145 NA
ATOM      7  C   UNL     1      34.231 -15.503 -22.694  0.00  0.00    +0.138 C 
ATOM      8  C   UNL     1      33.977 -14.924 -21.509  0.00  0.00    +0.061 C 
ATOM      9  C   UNL     1      32.983 -13.711 -23.804  0.00  0.00    +0.174 C 
ATOM     10  C   UNL     1      33.172 -13.666 -21.544  0.00  0.00    +0.125 C 
ATOM     11  C   UNL     1      32.880 -13.005 -20.220  0.00  0.00    +0.068 C 
ATOM     12  C   UNL     1      33.190 -14.337 -25.797  0.00  0.00    +0.230 C 
ENDBRANCH   1   7
BRANCH   1  13
ATOM     13  C   UNL     1      35.000 -17.764 -21.994  0.00  0.00    +0.049 C 
ATOM     14  C   UNL     1      36.170 -18.048 -21.290  0.00  0.00    +0.015 C 
ATOM     15  C   UNL     1      33.881 -18.583 -21.848  0.00  0.00    +0.015 C 
ATOM     16  C   UNL     1      35.102 -19.974 -20.294  0.00  0.00    +0.072 C 
ATOM     17  C   UNL     1      36.221 -19.153 -20.441  0.00  0.00    +0.005 C 
ATOM     18  C   UNL     1      33.932 -19.688 -20.999  0.00  0.00    +0.005 C 
BRANCH  16  22
ATOM     19  F   UNL     1      36.333 -21.265 -18.701  0.00  0.00    -0.166 F 
ATOM     20  F   UNL     1      34.185 -21.151 -18.427  0.00  0.00    -0.166 F 
ATOM     21  F   UNL     1      35.009 -22.337 -20.052  0.00  0.00    -0.166 F 
ATOM     22  C   UNL     1      35.156 -21.154 -19.386  0.00  0.00    +0.419 C 
ENDBRANCH  16  22
ENDBRANCH   1  13
TORSDOF 3
ENDMDL
MODEL 4
REMARK VINA RESULT:     -11.2      5.754      8.610
REMARK  Name = 25263414
REMARK  3 active torsions:
REMARK  status: ('A' for Active; 'I' for Inactive)
REMARK    1  A    between atoms: N_1  and  C_7
REMARK    2  A    between atoms: N_1  and  C_13
REMARK    3  A    between atoms: C_16  and  C_22
REMARK                            x       y       z     vdW  Elec       q    Type
REMARK                         _______ _______ _______ _____ _____    ______ ____
ROOT
ATOM      1  N   UNL     1      35.248 -16.783 -23.075  0.00  0.00    -0.299 N 
ATOM      2  H   UNL     1      36.025 -16.834 -23.678  0.00  0.00    +0.153 HD
ENDROOT
BRANCH   1   7
ATOM      3  N   UNL     1      33.997 -15.034 -22.089  0.00  0.00    -0.106 N 
ATOM      4  N   UNL     1      32.735 -13.418 -23.344  0.00  0.00    -0.340 NA
ATOM      5  N   UNL     1      34.267 -15.313 -20.787  0.00  0.00    -0.139 NA
ATOM      6  N   UNL     1      32.907 -13.493 -20.927  0.00  0.00    -0.145 NA
ATOM      7  C   UNL     1      34.435 -15.699 -23.241  0.00  0.00    +0.138 C 
ATOM      8  C   UNL     1      34.032 -15.234 -24.435  0.00  0.00    +0.061 C 
ATOM      9  C   UNL     1      33.162 -13.914 -22.150  0.00  0.00    +0.174 C 
ATOM     10  C   UNL     1      33.142 -14.035 -24.415  0.00  0.00    +0.125 C 
ATOM     11  C   UNL     1      32.682 -13.503 -25.749  0.00  0.00    +0.068 C 
ATOM     12  C   UNL     1      33.594 -14.364 -20.145  0.00  0.00    +0.230 C 
ENDBRANCH   1   7
BRANCH   1  13
ATOM     13  C   UNL     1      35.120 -17.832 -22.157  0.00  0.00    +0.049 C 
ATOM     14  C   UNL     1      33.940 -18.574 -22.109  0.00  0.00    +0.015 C 
ATOM     15  C   UNL     1      36.171 -18.135 -21.292  0.00  0.00    +0.015 C 
ATOM     16  C   UNL     1      34.863 -19.924 -20.329  0.00  0.00    +0.072 C 
ATOM     17  C   UNL     1      33.812 -19.620 -21.195  0.00  0.00    +0.005 C 
ATOM     18  C   UNL     1      36.043 -19.180 -20.379  0.00  0.00    +0.005 C 
BRANCH  16  22
ATOM     19  F   UNL     1      34.869 -22.279 -19.913  0.00  0.00    -0.166 F 
ATOM     20  F   UNL     1      35.644 -21.001 -18.342  0.00  0.00    -0.166 F 
ATOM     21  F   UNL     1      33.506 -21.057 -18.739  0.00  0.00    -0.166 F 
ATOM     22  C   UNL     1      34.726 -21.042 -19.352  0.00  0.00    +0.419 C 
ENDBRANCH  16  22
ENDBRANCH   1  13
TORSDOF 3
ENDMDL
MODEL 5
REMARK VINA RESULT:     -10.9      4.899      7.970
REMARK  Name = 25263414
REMARK  3 active torsions:
REMARK  status: ('A' for Active; 'I' for Inactive)
REMARK    1  A    between atoms: N_1  and  C_7
REMARK    2  A    between atoms: N_1  and  C_13
REMARK    3  A    between atoms: C_16  and  C_22
REMARK                            x       y       z     vdW  Elec       q    Type
REMARK                         _______ _______ _______ _____ _____    ______ ____
ROOT
ATOM      1  N   UNL     1      35.288 -18.816 -21.392  0.00  0.00    -0.299 N 
ATOM      2  H   UNL     1      36.203 -19.029 -21.684  0.00  0.00    +0.153 HD
ENDROOT
BRANCH   1   7
ATOM      3  N   UNL     1      34.106 -17.791 -23.167  0.00  0.00    -0.106 N 
ATOM      4  N   UNL     1      33.531 -15.457 -23.222  0.00  0.00    -0.340 NA
ATOM      5  N   UNL     1      33.947 -18.889 -23.953  0.00  0.00    -0.139 NA
ATOM      6  N   UNL     1      32.995 -17.075 -24.946  0.00  0.00    -0.145 NA
ATOM      7  C   UNL     1      34.741 -17.683 -21.924  0.00  0.00    +0.138 C 
ATOM      8  C   UNL     1      34.775 -16.479 -21.329  0.00  0.00    +0.061 C 
ATOM      9  C   UNL     1      33.515 -16.691 -23.797  0.00  0.00    +0.174 C 
ATOM     10  C   UNL     1      34.121 -15.357 -22.066  0.00  0.00    +0.125 C 
ATOM     11  C   UNL     1      34.152 -13.999 -21.411  0.00  0.00    +0.068 C 
ATOM     12  C   UNL     1      33.279 -18.401 -24.993  0.00  0.00    +0.230 C 
ENDBRANCH   1   7
BRANCH   1  13
ATOM     13  C   UNL     1      34.712 -19.713 -20.484  0.00  0.00    +0.049 C 
ATOM     14  C   UNL     1      33.325 -19.831 -20.406  0.00  0.00    +0.015 C 
ATOM     15  C   UNL     1      35.527 -20.490 -19.660  0.00  0.00    +0.015 C 
ATOM     16  C   UNL     1      33.566 -21.502 -18.677  0.00  0.00    +0.072 C 
ATOM     17  C   UNL     1      32.752 -20.725 -19.502  0.00  0.00    +0.005 C 
ATOM     18  C   UNL     1      34.954 -21.383 -18.757  0.00  0.00    +0.005 C 
BRANCH  16  22
ATOM     19  F   UNL     1      33.557 -22.463 -16.487  0.00  0.00    -0.166 F 
ATOM     20  F   UNL     1      31.635 -22.209 -17.457  0.00  0.00    -0.166 F 
ATOM     21  F   UNL     1      33.004 -23.751 -18.149  0.00  0.00    -0.166 F 
ATOM     22  C   UNL     1      32.953 -22.459 -17.712  0.00  0.00    +0.419 C 
ENDBRANCH  16  22
ENDBRANCH   1  13
TORSDOF 3
ENDMDL
MODEL 6
REMARK VINA RESULT:     -10.6      3.317      5.472
REMARK  Name = 25263414
REMARK  3 active torsions:
REMARK  status: ('A' for Active; 'I' for Inactive)
REMARK    1  A    between atoms: N_1  and  C_7
REMARK    2  A    between atoms: N_1  and  C_13
REMARK    3  A    between atoms: C_16  and  C_22
REMARK                            x       y       z     vdW  Elec       q    Type
REMARK                         _______ _______ _______ _____ _____    ______ ____
ROOT
ATOM      1  N   UNL     1      36.807 -22.253 -14.427  0.00  0.00    -0.299 N 
ATOM      2  H   UNL     1      36.920 -21.449 -13.870  0.00  0.00    +0.153 HD
ENDROOT
BRANCH   1   7
ATOM      3  N   UNL     1      36.746 -23.995 -12.828  0.00  0.00    -0.106 N 
ATOM      4  N   UNL     1      38.341 -25.793 -12.747  0.00  0.00    -0.340 NA
ATOM      5  N   UNL     1      35.646 -23.590 -12.142  0.00  0.00    -0.139 NA
ATOM      6  N   UNL     1      36.472 -25.506 -11.229  0.00  0.00    -0.145 NA
ATOM      7  C   UNL     1      37.361 -23.400 -13.937  0.00  0.00    +0.138 C 
ATOM      8  C   UNL     1      38.453 -23.989 -14.450  0.00  0.00    +0.061 C 
ATOM      9  C   UNL     1      37.235 -25.171 -12.250  0.00  0.00    +0.174 C 
ATOM     10  C   UNL     1      38.911 -25.241 -13.777  0.00  0.00    +0.125 C 
ATOM     11  C   UNL     1      40.138 -25.912 -14.344  0.00  0.00    +0.068 C 
ATOM     12  C   UNL     1      35.531 -24.527 -11.206  0.00  0.00    +0.230 C 
ENDBRANCH   1   7
BRANCH   1  13
ATOM     13  C   UNL     1      36.097 -22.073 -15.620  0.00  0.00    +0.049 C 
ATOM     14  C   UNL     1      36.712 -21.455 -16.709  0.00  0.00    +0.015 C 
ATOM     15  C   UNL     1      34.778 -22.514 -15.721  0.00  0.00    +0.015 C 
ATOM     16  C   UNL     1      34.685 -21.716 -18.000  0.00  0.00    +0.072 C 
ATOM     17  C   UNL     1      36.006 -21.277 -17.899  0.00  0.00    +0.005 C 
ATOM     18  C   UNL     1      34.072 -22.335 -16.910  0.00  0.00    +0.005 C 
BRANCH  16  22
ATOM     19  F   UNL     1      32.820 -20.743 -19.137  0.00  0.00    -0.166 F 
ATOM     20  F   UNL     1      34.665 -20.935 -20.259  0.00  0.00    -0.166 F 
ATOM     21  F   UNL     1      33.486 -22.704 -19.800  0.00  0.00    -0.166 F 
ATOM     22  C   UNL     1      33.931 -21.526 -19.271  0.00  0.00    +0.419 C 
ENDBRANCH  16  22
ENDBRANCH   1  13
TORSDOF 3
ENDMDL
MODEL 7
REMARK VINA RESULT:     -10.3      3.425      5.037
REMARK  Name = 25263414
REMARK  3 active torsions:
REMARK  status: ('A' for Active; 'I' for Inactive)
REMARK    1  A    between atoms: N_1  and  C_7
REMARK    2  A    between atoms: N_1  and  C_13
REMARK    3  A    between atoms: C_16  and  C_22
REMARK                            x       y       z     vdW  Elec       q    Type
REMARK                         _______ _______ _______ _____ _____    ______ ____
ROOT
ATOM      1  N   UNL     1      36.802 -21.887 -14.198  0.00  0.00    -0.299 N 
ATOM      2  H   UNL     1      37.328 -21.090 -13.961  0.00  0.00    +0.153 HD
ENDROOT
BRANCH   1   7
ATOM      3  N   UNL     1      37.679 -23.964 -13.480  0.00  0.00    -0.106 N 
ATOM      4  N   UNL     1      36.961 -25.103 -11.488  0.00  0.00    -0.340 NA
ATOM      5  N   UNL     1      38.567 -24.159 -14.490  0.00  0.00    -0.139 NA
ATOM      6  N   UNL     1      38.656 -25.900 -13.027  0.00  0.00    -0.145 NA
ATOM      7  C   UNL     1      36.798 -22.894 -13.277  0.00  0.00    +0.138 C 
ATOM      8  C   UNL     1      36.005 -22.921 -12.193  0.00  0.00    +0.061 C 
ATOM      9  C   UNL     1      37.752 -25.045 -12.596  0.00  0.00    +0.174 C 
ATOM     10  C   UNL     1      36.144 -24.109 -11.298  0.00  0.00    +0.125 C 
ATOM     11  C   UNL     1      35.258 -24.152 -10.078  0.00  0.00    +0.068 C 
ATOM     12  C   UNL     1      39.118 -25.323 -14.166  0.00  0.00    +0.230 C 
ENDBRANCH   1   7
BRANCH   1  13
ATOM     13  C   UNL     1      36.154 -21.842 -15.438  0.00  0.00    +0.049 C 
ATOM     14  C   UNL     1      34.895 -22.423 -15.587  0.00  0.00    +0.015 C 
ATOM     15  C   UNL     1      36.766 -21.215 -16.524  0.00  0.00    +0.015 C 
ATOM     16  C   UNL     1      34.860 -21.752 -17.908  0.00  0.00    +0.072 C 
ATOM     17  C   UNL     1      34.248 -22.379 -16.822  0.00  0.00    +0.005 C 
ATOM     18  C   UNL     1      36.119 -21.171 -17.758  0.00  0.00    +0.005 C 
BRANCH  16  22
ATOM     19  F   UNL     1      34.981 -21.326 -20.259  0.00  0.00    -0.166 F 
ATOM     20  F   UNL     1      33.640 -22.902 -19.612  0.00  0.00    -0.166 F 
ATOM     21  F   UNL     1      33.126 -20.822 -19.243  0.00  0.00    -0.166 F 
ATOM     22  C   UNL     1      34.168 -21.704 -19.228  0.00  0.00    +0.419 C 
ENDBRANCH  16  22
ENDBRANCH   1  13
TORSDOF 3
ENDMDL
MODEL 8
REMARK VINA RESULT:     -10.2      6.828      9.354
REMARK  Name = 25263414
REMARK  3 active torsions:
REMARK  status: ('A' for Active; 'I' for Inactive)
REMARK    1  A    between atoms: N_1  and  C_7
REMARK    2  A    between atoms: N_1  and  C_13
REMARK    3  A    between atoms: C_16  and  C_22
REMARK                            x       y       z     vdW  Elec       q    Type
REMARK                         _______ _______ _______ _____ _____    ______ ____
ROOT
ATOM      1  N   UNL     1      34.657 -14.975 -23.132  0.00  0.00    -0.299 N 
ATOM      2  H   UNL     1      35.340 -14.673 -23.774  0.00  0.00    +0.153 HD
ENDROOT
BRANCH   1   7
ATOM      3  N   UNL     1      33.840 -17.124 -23.687  0.00  0.00    -0.106 N 
ATOM      4  N   UNL     1      34.442 -19.131 -22.507  0.00  0.00    -0.340 NA
ATOM      5  N   UNL     1      33.056 -16.768 -24.738  0.00  0.00    -0.139 NA
ATOM      6  N   UNL     1      32.936 -19.016 -24.404  0.00  0.00    -0.145 NA
ATOM      7  C   UNL     1      34.637 -16.314 -22.869  0.00  0.00    +0.138 C 
ATOM      8  C   UNL     1      35.333 -16.899 -21.879  0.00  0.00    +0.061 C 
ATOM      9  C   UNL     1      33.750 -18.508 -23.501  0.00  0.00    +0.174 C 
ATOM     10  C   UNL     1      35.183 -18.379 -21.748  0.00  0.00    +0.125 C 
ATOM     11  C   UNL     1      35.958 -19.048 -20.640  0.00  0.00    +0.068 C 
ATOM     12  C   UNL     1      32.546 -17.933 -25.123  0.00  0.00    +0.230 C 
ENDBRANCH   1   7
BRANCH   1  13
ATOM     13  C   UNL     1      33.832 -13.974 -22.604  0.00  0.00    +0.049 C 
ATOM     14  C   UNL     1      33.484 -12.874 -23.387  0.00  0.00    +0.015 C 
ATOM     15  C   UNL     1      33.357 -14.079 -21.297  0.00  0.00    +0.015 C 
ATOM     16  C   UNL     1      32.186 -11.982 -21.554  0.00  0.00    +0.072 C 
ATOM     17  C   UNL     1      32.661 -11.877 -22.862  0.00  0.00    +0.005 C 
ATOM     18  C   UNL     1      32.534 -13.084 -20.772  0.00  0.00    +0.005 C 
BRANCH  16  22
ATOM     19  F   UNL     1      29.986 -11.075 -21.307  0.00  0.00    -0.166 F 
ATOM     20  F   UNL     1      31.341 -10.840 -19.631  0.00  0.00    -0.166 F 
ATOM     21  F   UNL     1      31.640  -9.670 -21.440  0.00  0.00    -0.166 F 
ATOM     22  C   UNL     1      31.306 -10.917 -20.994  0.00  0.00    +0.419 C 
ENDBRANCH  16  22
ENDBRANCH   1  13
TORSDOF 3
ENDMDL
MODEL 9
REMARK VINA RESULT:     -10.1      2.624      4.236
REMARK  Name = 25263414
REMARK  3 active torsions:
REMARK  status: ('A' for Active; 'I' for Inactive)
REMARK    1  A    between atoms: N_1  and  C_7
REMARK    2  A    between atoms: N_1  and  C_13
REMARK    3  A    between atoms: C_16  and  C_22
REMARK                            x       y       z     vdW  Elec       q    Type
REMARK                         _______ _______ _______ _____ _____    ______ ____
ROOT
ATOM      1  N   UNL     1      33.797 -23.626 -14.682  0.00  0.00    -0.299 N 
ATOM      2  H   UNL     1      32.840 -23.817 -14.554  0.00  0.00    +0.153 HD
ENDROOT
BRANCH   1   7
ATOM      3  N   UNL     1      35.513 -25.110 -14.012  0.00  0.00    -0.106 N 
ATOM      4  N   UNL     1      36.458 -25.154 -11.802  0.00  0.00    -0.340 NA
ATOM      5  N   UNL     1      35.671 -25.768 -15.191  0.00  0.00    -0.139 NA
ATOM      6  N   UNL     1      37.112 -26.598 -13.636  0.00  0.00    -0.145 NA
ATOM      7  C   UNL     1      34.630 -24.070 -13.697  0.00  0.00    +0.138 C 
ATOM      8  C   UNL     1      34.656 -23.571 -12.449  0.00  0.00    +0.061 C 
ATOM      9  C   UNL     1      36.407 -25.636 -13.074  0.00  0.00    +0.174 C 
ATOM     10  C   UNL     1      35.639 -24.187 -11.508  0.00  0.00    +0.125 C 
ATOM     11  C   UNL     1      35.677 -23.637 -10.104  0.00  0.00    +0.068 C 
ATOM     12  C   UNL     1      36.634 -26.638 -14.906  0.00  0.00    +0.230 C 
ENDBRANCH   1   7
BRANCH   1  13
ATOM     13  C   UNL     1      34.129 -22.933 -15.853  0.00  0.00    +0.049 C 
ATOM     14  C   UNL     1      35.383 -22.334 -15.976  0.00  0.00    +0.015 C 
ATOM     15  C   UNL     1      33.208 -22.845 -16.896  0.00  0.00    +0.015 C 
ATOM     16  C   UNL     1      34.793 -21.555 -18.186  0.00  0.00    +0.072 C 
ATOM     17  C   UNL     1      35.714 -21.645 -17.142  0.00  0.00    +0.005 C 
ATOM     18  C   UNL     1      33.539 -22.156 -18.062  0.00  0.00    +0.005 C 
BRANCH  16  22
ATOM     19  F   UNL     1      34.159 -19.988 -19.878  0.00  0.00    -0.166 F 
ATOM     20  F   UNL     1      36.250 -20.023 -19.303  0.00  0.00    -0.166 F 
ATOM     21  F   UNL     1      35.420 -21.655 -20.477  0.00  0.00    -0.166 F 
ATOM     22  C   UNL     1      35.148 -20.819 -19.433  0.00  0.00    +0.419 C 
ENDBRANCH  16  22
ENDBRANCH   1  13
TORSDOF 3
ENDMDL
