MODEL 1
REMARK VINA RESULT:     -11.9      0.000      0.000
REMARK  Name = 6420118
REMARK  2 active torsions:
REMARK  status: ('A' for Active; 'I' for Inactive)
REMARK    1  A    between atoms: S_1  and  C_7
REMARK    2  A    between atoms: S_1  and  C_18
REMARK                            x       y       z     vdW  Elec       q    Type
REMARK                         _______ _______ _______ _____ _____    ______ ____
ROOT
ATOM      1  S   UNL     1      35.629 -18.443 -21.635  0.00  0.00    +0.077 S 
ATOM      2  O   UNL     1      36.802 -18.229 -20.815  0.00  0.00    -0.160 OA
ATOM      3  O   UNL     1      35.669 -19.020 -22.961  0.00  0.00    -0.160 OA
ENDROOT
BRANCH   1   7
ATOM      4 CL   UNL     1      31.966 -11.452 -22.858  0.00  0.00    -0.082 Cl
ATOM      5  O   UNL     1      34.612 -16.135 -20.638  0.00  0.00    -0.437 OA
ATOM      6  C   UNL     1      34.340 -16.206 -22.870  0.00  0.00    +0.034 A 
ATOM      7  C   UNL     1      34.823 -16.866 -21.763  0.00  0.00    +0.253 A 
ATOM      8  C   UNL     1      33.794 -14.983 -22.400  0.00  0.00    +0.036 A 
ATOM      9  C   UNL     1      33.986 -14.988 -21.023  0.00  0.00    +0.147 A 
ATOM     10  C   UNL     1      34.382 -16.678 -24.268  0.00  0.00    +0.036 C 
ATOM     11  C   UNL     1      33.158 -13.875 -22.986  0.00  0.00    +0.014 C 
ATOM     12  C   UNL     1      33.588 -13.955 -20.175  0.00  0.00    +0.038 C 
ATOM     13  C   UNL     1      32.746 -12.820 -22.159  0.00  0.00    +0.058 C 
ATOM     14  C   UNL     1      32.958 -12.863 -20.778  0.00  0.00    +0.015 C 
ENDBRANCH   1   7
BRANCH   1  18
ATOM     15  O   UNL     1      32.177 -21.767 -18.582  0.00  0.00    -0.268 OA
ATOM     16  N   UNL     1      35.111 -20.204 -19.828  0.00  0.00    -0.160 NA
ATOM     17  N   UNL     1      34.277 -20.993 -19.105  0.00  0.00    -0.201 N 
ATOM     18  C   UNL     1      34.550 -19.452 -20.712  0.00  0.00    +0.211 C 
ATOM     19  C   UNL     1      33.117 -19.367 -21.009  0.00  0.00    +0.045 C 
ATOM     20  C   UNL     1      32.325 -20.155 -20.283  0.00  0.00    +0.062 C 
ATOM     21  C   UNL     1      32.909 -21.041 -19.251  0.00  0.00    +0.265 C 
ATOM     22  H   UNL     1      34.682 -21.577 -18.423  0.00  0.00    +0.178 HD
ENDBRANCH   1  18
TORSDOF 2
ENDMDL
MODEL 2
REMARK VINA RESULT:     -11.7      3.592      6.673
REMARK  Name = 6420118
REMARK  2 active torsions:
REMARK  status: ('A' for Active; 'I' for Inactive)
REMARK    1  A    between atoms: S_1  and  C_7
REMARK    2  A    between atoms: S_1  and  C_18
REMARK                            x       y       z     vdW  Elec       q    Type
REMARK                         _______ _______ _______ _____ _____    ______ ____
ROOT
ATOM      1  S   UNL     1      35.514 -18.377 -22.169  0.00  0.00    +0.077 S 
ATOM      2  O   UNL     1      34.813 -18.858 -23.339  0.00  0.00    -0.160 OA
ATOM      3  O   UNL     1      36.950 -18.208 -22.104  0.00  0.00    -0.160 OA
ENDROOT
BRANCH   1   7
ATOM      4 CL   UNL     1      32.782 -23.166 -16.391  0.00  0.00    -0.082 Cl
ATOM      5  O   UNL     1      35.994 -19.893 -19.973  0.00  0.00    -0.437 OA
ATOM      6  C   UNL     1      33.806 -19.949 -20.494  0.00  0.00    +0.034 A 
ATOM      7  C   UNL     1      35.043 -19.451 -20.835  0.00  0.00    +0.253 A 
ATOM      8  C   UNL     1      34.004 -20.755 -19.343  0.00  0.00    +0.036 A 
ATOM      9  C   UNL     1      35.364 -20.688 -19.063  0.00  0.00    +0.147 A 
ATOM     10  C   UNL     1      32.530 -19.695 -21.189  0.00  0.00    +0.036 C 
ATOM     11  C   UNL     1      33.183 -21.533 -18.507  0.00  0.00    +0.014 C 
ATOM     12  C   UNL     1      35.976 -21.346 -17.997  0.00  0.00    +0.038 C 
ATOM     13  C   UNL     1      33.770 -22.207 -17.427  0.00  0.00    +0.058 C 
ATOM     14  C   UNL     1      35.142 -22.114 -17.179  0.00  0.00    +0.015 C 
ENDBRANCH   1   7
BRANCH   1  18
ATOM     15  O   UNL     1      33.305 -13.317 -20.829  0.00  0.00    -0.268 OA
ATOM     16  N   UNL     1      34.656 -16.586 -20.529  0.00  0.00    -0.160 NA
ATOM     17  N   UNL     1      34.129 -15.374 -20.222  0.00  0.00    -0.201 N 
ATOM     18  C   UNL     1      34.837 -16.819 -21.784  0.00  0.00    +0.211 C 
ATOM     19  C   UNL     1      34.529 -15.916 -22.897  0.00  0.00    +0.045 C 
ATOM     20  C   UNL     1      34.012 -14.736 -22.562  0.00  0.00    +0.062 C 
ATOM     21  C   UNL     1      33.782 -14.406 -21.138  0.00  0.00    +0.265 C 
ATOM     22  H   UNL     1      33.982 -15.172 -19.269  0.00  0.00    +0.178 HD
ENDBRANCH   1  18
TORSDOF 2
ENDMDL
MODEL 3
REMARK VINA RESULT:     -11.0      5.354      8.817
REMARK  Name = 6420118
REMARK  2 active torsions:
REMARK  status: ('A' for Active; 'I' for Inactive)
REMARK    1  A    between atoms: S_1  and  C_7
REMARK    2  A    between atoms: S_1  and  C_18
REMARK                            x       y       z     vdW  Elec       q    Type
REMARK                         _______ _______ _______ _____ _____    ______ ____
ROOT
ATOM      1  S   UNL     1      33.221 -22.116 -18.760  0.00  0.00    +0.077 S 
ATOM      2  O   UNL     1      31.908 -21.548 -18.548  0.00  0.00    -0.160 OA
ATOM      3  O   UNL     1      33.465 -23.305 -19.549  0.00  0.00    -0.160 OA
ENDROOT
BRANCH   1   7
ATOM      4 CL   UNL     1      35.683 -23.524 -11.295  0.00  0.00    -0.082 Cl
ATOM      5  O   UNL     1      35.240 -22.253 -16.955  0.00  0.00    -0.437 OA
ATOM      6  C   UNL     1      33.281 -22.765 -15.974  0.00  0.00    +0.034 A 
ATOM      7  C   UNL     1      33.903 -22.399 -17.145  0.00  0.00    +0.253 A 
ATOM      8  C   UNL     1      34.301 -22.851 -14.990  0.00  0.00    +0.036 A 
ATOM      9  C   UNL     1      35.485 -22.527 -15.644  0.00  0.00    +0.147 A 
ATOM     10  C   UNL     1      31.841 -23.018 -15.780  0.00  0.00    +0.036 C 
ATOM     11  C   UNL     1      34.354 -23.167 -13.621  0.00  0.00    +0.014 C 
ATOM     12  C   UNL     1      36.735 -22.492 -15.026  0.00  0.00    +0.038 C 
ATOM     13  C   UNL     1      35.597 -23.141 -12.972  0.00  0.00    +0.058 C 
ATOM     14  C   UNL     1      36.764 -22.809 -13.665  0.00  0.00    +0.015 C 
ENDBRANCH   1   7
BRANCH   1  18
ATOM     15  O   UNL     1      36.480 -18.060 -21.041  0.00  0.00    -0.268 OA
ATOM     16  N   UNL     1      35.425 -20.824 -19.079  0.00  0.00    -0.160 NA
ATOM     17  N   UNL     1      36.194 -19.852 -19.631  0.00  0.00    -0.201 N 
ATOM     18  C   UNL     1      34.199 -20.865 -19.474  0.00  0.00    +0.211 C 
ATOM     19  C   UNL     1      33.562 -19.974 -20.449  0.00  0.00    +0.045 C 
ATOM     20  C   UNL     1      34.343 -19.029 -20.971  0.00  0.00    +0.062 C 
ATOM     21  C   UNL     1      35.761 -18.931 -20.559  0.00  0.00    +0.265 C 
ATOM     22  H   UNL     1      37.135 -19.800 -19.344  0.00  0.00    +0.178 HD
ENDBRANCH   1  18
TORSDOF 2
ENDMDL
MODEL 4
REMARK VINA RESULT:     -11.0      2.600      3.572
REMARK  Name = 6420118
REMARK  2 active torsions:
REMARK  status: ('A' for Active; 'I' for Inactive)
REMARK    1  A    between atoms: S_1  and  C_7
REMARK    2  A    between atoms: S_1  and  C_18
REMARK                            x       y       z     vdW  Elec       q    Type
REMARK                         _______ _______ _______ _____ _____    ______ ____
ROOT
ATOM      1  S   UNL     1      33.729 -15.908 -24.454  0.00  0.00    +0.077 S 
ATOM      2  O   UNL     1      34.921 -15.510 -25.169  0.00  0.00    -0.160 OA
ATOM      3  O   UNL     1      32.594 -16.552 -25.079  0.00  0.00    -0.160 OA
ENDROOT
BRANCH   1   7
ATOM      4 CL   UNL     1      30.995  -9.062 -21.381  0.00  0.00    -0.082 Cl
ATOM      5  O   UNL     1      33.000 -14.449 -22.288  0.00  0.00    -0.437 OA
ATOM      6  C   UNL     1      32.749 -13.235 -24.165  0.00  0.00    +0.034 A 
ATOM      7  C   UNL     1      33.130 -14.448 -23.640  0.00  0.00    +0.253 A 
ATOM      8  C   UNL     1      32.356 -12.428 -23.065  0.00  0.00    +0.036 A 
ATOM      9  C   UNL     1      32.528 -13.220 -21.935  0.00  0.00    +0.147 A 
ATOM     10  C   UNL     1      32.749 -12.850 -25.590  0.00  0.00    +0.036 C 
ATOM     11  C   UNL     1      31.873 -11.118 -22.900  0.00  0.00    +0.014 C 
ATOM     12  C   UNL     1      32.254 -12.798 -20.635  0.00  0.00    +0.038 C 
ATOM     13  C   UNL     1      31.588 -10.665 -21.604  0.00  0.00    +0.058 C 
ATOM     14  C   UNL     1      31.775 -11.492 -20.494  0.00  0.00    +0.015 C 
ENDBRANCH   1   7
BRANCH   1  18
ATOM     15  O   UNL     1      35.438 -19.345 -20.264  0.00  0.00    -0.268 OA
ATOM     16  N   UNL     1      34.873 -16.427 -22.206  0.00  0.00    -0.160 NA
ATOM     17  N   UNL     1      35.276 -17.257 -21.211  0.00  0.00    -0.201 N 
ATOM     18  C   UNL     1      34.241 -16.982 -23.182  0.00  0.00    +0.211 C 
ATOM     19  C   UNL     1      33.921 -18.406 -23.322  0.00  0.00    +0.045 C 
ATOM     20  C   UNL     1      34.331 -19.194 -22.330  0.00  0.00    +0.062 C 
ATOM     21  C   UNL     1      35.060 -18.616 -21.179  0.00  0.00    +0.265 C 
ATOM     22  H   UNL     1      35.761 -16.855 -20.453  0.00  0.00    +0.178 HD
ENDBRANCH   1  18
TORSDOF 2
ENDMDL
MODEL 5
REMARK VINA RESULT:     -10.8      6.324      8.878
REMARK  Name = 6420118
REMARK  2 active torsions:
REMARK  status: ('A' for Active; 'I' for Inactive)
REMARK    1  A    between atoms: S_1  and  C_7
REMARK    2  A    between atoms: S_1  and  C_18
REMARK                            x       y       z     vdW  Elec       q    Type
REMARK                         _______ _______ _______ _____ _____    ______ ____
ROOT
ATOM      1  S   UNL     1      35.004 -23.549 -14.166  0.00  0.00    +0.077 S 
ATOM      2  O   UNL     1      33.965 -24.555 -14.158  0.00  0.00    -0.160 OA
ATOM      3  O   UNL     1      35.137 -22.523 -13.154  0.00  0.00    -0.160 OA
ENDROOT
BRANCH   1   7
ATOM      4 CL   UNL     1      35.117 -19.722 -21.175  0.00  0.00    -0.082 Cl
ATOM      5  O   UNL     1      33.706 -22.745 -16.407  0.00  0.00    -0.437 OA
ATOM      6  C   UNL     1      35.845 -22.048 -16.453  0.00  0.00    +0.034 A 
ATOM      7  C   UNL     1      34.889 -22.734 -15.740  0.00  0.00    +0.253 A 
ATOM      8  C   UNL     1      35.213 -21.603 -17.643  0.00  0.00    +0.036 A 
ATOM      9  C   UNL     1      33.901 -22.057 -17.567  0.00  0.00    +0.147 A 
ATOM     10  C   UNL     1      37.249 -21.821 -16.058  0.00  0.00    +0.036 C 
ATOM     11  C   UNL     1      35.605 -20.867 -18.776  0.00  0.00    +0.014 C 
ATOM     12  C   UNL     1      32.936 -21.828 -18.547  0.00  0.00    +0.038 C 
ATOM     13  C   UNL     1      34.657 -20.621 -19.779  0.00  0.00    +0.058 C 
ATOM     14  C   UNL     1      33.347 -21.095 -19.664  0.00  0.00    +0.015 C 
ENDBRANCH   1   7
BRANCH   1  18
ATOM     15  O   UNL     1      39.935 -26.369 -14.285  0.00  0.00    -0.268 OA
ATOM     16  N   UNL     1      36.629 -25.334 -15.063  0.00  0.00    -0.160 NA
ATOM     17  N   UNL     1      37.811 -26.000 -15.082  0.00  0.00    -0.201 N 
ATOM     18  C   UNL     1      36.524 -24.398 -14.183  0.00  0.00    +0.211 C 
ATOM     19  C   UNL     1      37.544 -23.989 -13.212  0.00  0.00    +0.045 C 
ATOM     20  C   UNL     1      38.692 -24.663 -13.256  0.00  0.00    +0.062 C 
ATOM     21  C   UNL     1      38.875 -25.748 -14.245  0.00  0.00    +0.265 C 
ATOM     22  H   UNL     1      37.915 -26.720 -15.746  0.00  0.00    +0.178 HD
ENDBRANCH   1  18
TORSDOF 2
ENDMDL
MODEL 6
REMARK VINA RESULT:     -10.6      6.153      8.674
REMARK  Name = 6420118
REMARK  2 active torsions:
REMARK  status: ('A' for Active; 'I' for Inactive)
REMARK    1  A    between atoms: S_1  and  C_7
REMARK    2  A    between atoms: S_1  and  C_18
REMARK                            x       y       z     vdW  Elec       q    Type
REMARK                         _______ _______ _______ _____ _____    ______ ____
ROOT
ATOM      1  S   UNL     1      34.293 -23.756 -14.444  0.00  0.00    +0.077 S 
ATOM      2  O   UNL     1      33.313 -24.811 -14.575  0.00  0.00    -0.160 OA
ATOM      3  O   UNL     1      34.293 -22.788 -13.368  0.00  0.00    -0.160 OA
ENDROOT
BRANCH   1   7
ATOM      4 CL   UNL     1      33.472 -19.768 -21.315  0.00  0.00    -0.082 Cl
ATOM      5  O   UNL     1      35.420 -22.406 -16.508  0.00  0.00    -0.437 OA
ATOM      6  C   UNL     1      33.187 -22.500 -16.765  0.00  0.00    +0.034 A 
ATOM      7  C   UNL     1      34.255 -22.852 -15.972  0.00  0.00    +0.253 A 
ATOM      8  C   UNL     1      33.726 -21.786 -17.867  0.00  0.00    +0.036 A 
ATOM      9  C   UNL     1      35.102 -21.756 -17.662  0.00  0.00    +0.147 A 
ATOM     10  C   UNL     1      31.764 -22.802 -16.517  0.00  0.00    +0.036 C 
ATOM     11  C   UNL     1      33.204 -21.162 -19.014  0.00  0.00    +0.014 C 
ATOM     12  C   UNL     1      36.008 -21.144 -18.527  0.00  0.00    +0.038 C 
ATOM     13  C   UNL     1      34.092 -20.538 -19.903  0.00  0.00    +0.058 C 
ATOM     14  C   UNL     1      35.467 -20.531 -19.661  0.00  0.00    +0.015 C 
ENDBRANCH   1   7
BRANCH   1  18
ATOM     15  O   UNL     1      39.357 -26.329 -14.314  0.00  0.00    -0.268 OA
ATOM     16  N   UNL     1      35.968 -25.603 -15.085  0.00  0.00    -0.160 NA
ATOM     17  N   UNL     1      37.182 -26.209 -15.047  0.00  0.00    -0.201 N 
ATOM     18  C   UNL     1      35.854 -24.525 -14.388  0.00  0.00    +0.211 C 
ATOM     19  C   UNL     1      36.895 -23.898 -13.567  0.00  0.00    +0.045 C 
ATOM     20  C   UNL     1      38.074 -24.517 -13.549  0.00  0.00    +0.062 C 
ATOM     21  C   UNL     1      38.268 -25.759 -14.331  0.00  0.00    +0.265 C 
ATOM     22  H   UNL     1      37.294 -27.035 -15.572  0.00  0.00    +0.178 HD
ENDBRANCH   1  18
TORSDOF 2
ENDMDL
MODEL 7
REMARK VINA RESULT:     -10.5      3.522      5.397
REMARK  Name = 6420118
REMARK  2 active torsions:
REMARK  status: ('A' for Active; 'I' for Inactive)
REMARK    1  A    between atoms: S_1  and  C_7
REMARK    2  A    between atoms: S_1  and  C_18
REMARK                            x       y       z     vdW  Elec       q    Type
REMARK                         _______ _______ _______ _____ _____    ______ ____
ROOT
ATOM      1  S   UNL     1      33.413 -22.301 -18.501  0.00  0.00    +0.077 S 
ATOM      2  O   UNL     1      33.602 -23.497 -19.293  0.00  0.00    -0.160 OA
ATOM      3  O   UNL     1      32.157 -21.937 -17.882  0.00  0.00    -0.160 OA
ENDROOT
BRANCH   1   7
ATOM      4 CL   UNL     1      35.028 -16.095 -23.262  0.00  0.00    -0.082 Cl
ATOM      5  O   UNL     1      35.235 -20.655 -19.653  0.00  0.00    -0.437 OA
ATOM      6  C   UNL     1      33.153 -20.073 -20.278  0.00  0.00    +0.034 A 
ATOM      7  C   UNL     1      33.913 -20.943 -19.531  0.00  0.00    +0.253 A 
ATOM      8  C   UNL     1      34.065 -19.184 -20.905  0.00  0.00    +0.036 A 
ATOM      9  C   UNL     1      35.330 -19.584 -20.489  0.00  0.00    +0.147 A 
ATOM     10  C   UNL     1      31.683 -20.065 -20.400  0.00  0.00    +0.036 C 
ATOM     11  C   UNL     1      33.960 -18.086 -21.778  0.00  0.00    +0.014 C 
ATOM     12  C   UNL     1      36.515 -18.964 -20.884  0.00  0.00    +0.038 C 
ATOM     13  C   UNL     1      35.135 -17.442 -22.192  0.00  0.00    +0.058 C 
ATOM     14  C   UNL     1      36.388 -17.875 -21.751  0.00  0.00    +0.015 C 
ENDBRANCH   1   7
BRANCH   1  18
ATOM     15  O   UNL     1      37.158 -22.568 -14.236  0.00  0.00    -0.268 OA
ATOM     16  N   UNL     1      34.257 -23.115 -16.208  0.00  0.00    -0.160 NA
ATOM     17  N   UNL     1      35.158 -23.172 -15.196  0.00  0.00    -0.201 N 
ATOM     18  C   UNL     1      34.577 -22.367 -17.208  0.00  0.00    +0.211 C 
ATOM     19  C   UNL     1      35.805 -21.579 -17.355  0.00  0.00    +0.045 C 
ATOM     20  C   UNL     1      36.669 -21.655 -16.344  0.00  0.00    +0.062 C 
ATOM     21  C   UNL     1      36.360 -22.499 -15.168  0.00  0.00    +0.265 C 
ATOM     22  H   UNL     1      34.936 -23.738 -14.421  0.00  0.00    +0.178 HD
ENDBRANCH   1  18
TORSDOF 2
ENDMDL
MODEL 8
REMARK VINA RESULT:     -10.3      1.632      2.369
REMARK  Name = 6420118
REMARK  2 active torsions:
REMARK  status: ('A' for Active; 'I' for Inactive)
REMARK    1  A    between atoms: S_1  and  C_7
REMARK    2  A    between atoms: S_1  and  C_18
REMARK                            x       y       z     vdW  Elec       q    Type
REMARK                         _______ _______ _______ _____ _____    ______ ____
ROOT
ATOM      1  S   UNL     1      35.034 -18.719 -22.881  0.00  0.00    +0.077 S 
ATOM      2  O   UNL     1      36.394 -18.612 -22.400  0.00  0.00    -0.160 OA
ATOM      3  O   UNL     1      34.659 -19.438 -24.080  0.00  0.00    -0.160 OA
ENDROOT
BRANCH   1   7
ATOM      4 CL   UNL     1      32.442 -11.166 -22.996  0.00  0.00    -0.082 Cl
ATOM      5  O   UNL     1      34.067 -16.604 -24.276  0.00  0.00    -0.437 OA
ATOM      6  C   UNL     1      34.272 -16.073 -22.100  0.00  0.00    +0.034 A 
ATOM      7  C   UNL     1      34.438 -17.055 -23.050  0.00  0.00    +0.253 A 
ATOM      8  C   UNL     1      33.765 -14.937 -22.783  0.00  0.00    +0.036 A 
ATOM      9  C   UNL     1      33.657 -15.315 -24.117  0.00  0.00    +0.147 A 
ATOM     10  C   UNL     1      34.565 -16.181 -20.657  0.00  0.00    +0.036 C 
ATOM     11  C   UNL     1      33.385 -13.632 -22.421  0.00  0.00    +0.014 C 
ATOM     12  C   UNL     1      33.191 -14.479 -25.131  0.00  0.00    +0.038 C 
ATOM     13  C   UNL     1      32.913 -12.768 -23.419  0.00  0.00    +0.058 C 
ATOM     14  C   UNL     1      32.819 -13.187 -24.749  0.00  0.00    +0.015 C 
ENDBRANCH   1   7
BRANCH   1  18
ATOM     15  O   UNL     1      31.916 -21.006 -18.718  0.00  0.00    -0.268 OA
ATOM     16  N   UNL     1      32.821 -19.355 -21.728  0.00  0.00    -0.160 NA
ATOM     17  N   UNL     1      32.087 -19.905 -20.728  0.00  0.00    -0.201 N 
ATOM     18  C   UNL     1      34.101 -19.428 -21.593  0.00  0.00    +0.211 C 
ATOM     19  C   UNL     1      34.832 -20.037 -20.477  0.00  0.00    +0.045 C 
ATOM     20  C   UNL     1      34.082 -20.567 -19.512  0.00  0.00    +0.062 C 
ATOM     21  C   UNL     1      32.606 -20.517 -19.610  0.00  0.00    +0.265 C 
ATOM     22  H   UNL     1      31.106 -19.862 -20.809  0.00  0.00    +0.178 HD
ENDBRANCH   1  18
TORSDOF 2
ENDMDL
MODEL 9
REMARK VINA RESULT:     -10.2      1.228      1.487
REMARK  Name = 6420118
REMARK  2 active torsions:
REMARK  status: ('A' for Active; 'I' for Inactive)
REMARK    1  A    between atoms: S_1  and  C_7
REMARK    2  A    between atoms: S_1  and  C_18
REMARK                            x       y       z     vdW  Elec       q    Type
REMARK                         _______ _______ _______ _____ _____    ______ ____
ROOT
ATOM      1  S   UNL     1      35.915 -19.082 -20.731  0.00  0.00    +0.077 S 
ATOM      2  O   UNL     1      36.823 -18.695 -19.673  0.00  0.00    -0.160 OA
ATOM      3  O   UNL     1      36.318 -19.832 -21.901  0.00  0.00    -0.160 OA
ENDROOT
BRANCH   1   7
ATOM      4 CL   UNL     1      32.449 -12.608 -23.870  0.00  0.00    -0.082 Cl
ATOM      5  O   UNL     1      34.925 -16.578 -20.411  0.00  0.00    -0.437 OA
ATOM      6  C   UNL     1      34.714 -17.232 -22.553  0.00  0.00    +0.034 A 
ATOM      7  C   UNL     1      35.149 -17.583 -21.297  0.00  0.00    +0.253 A 
ATOM      8  C   UNL     1      34.182 -15.920 -22.440  0.00  0.00    +0.036 A 
ATOM      9  C   UNL     1      34.335 -15.564 -21.104  0.00  0.00    +0.147 A 
ATOM     10  C   UNL     1      34.784 -18.056 -23.776  0.00  0.00    +0.036 C 
ATOM     11  C   UNL     1      33.589 -14.996 -23.318  0.00  0.00    +0.014 C 
ATOM     12  C   UNL     1      33.938 -14.339 -20.571  0.00  0.00    +0.038 C 
ATOM     13  C   UNL     1      33.178 -13.755 -22.811  0.00  0.00    +0.058 C 
ATOM     14  C   UNL     1      33.351 -13.435 -21.462  0.00  0.00    +0.015 C 
ENDBRANCH   1   7
BRANCH   1  18
ATOM     15  O   UNL     1      31.709 -22.072 -18.353  0.00  0.00    -0.268 OA
ATOM     16  N   UNL     1      33.455 -19.777 -20.425  0.00  0.00    -0.160 NA
ATOM     17  N   UNL     1      32.459 -20.497 -19.850  0.00  0.00    -0.201 N 
ATOM     18  C   UNL     1      34.644 -20.011 -19.987  0.00  0.00    +0.211 C 
ATOM     19  C   UNL     1      35.021 -20.967 -18.941  0.00  0.00    +0.045 C 
ATOM     20  C   UNL     1      34.020 -21.657 -18.396  0.00  0.00    +0.062 C 
ATOM     21  C   UNL     1      32.632 -21.434 -18.857  0.00  0.00    +0.265 C 
ATOM     22  H   UNL     1      31.540 -20.335 -20.168  0.00  0.00    +0.178 HD
ENDBRANCH   1  18
TORSDOF 2
ENDMDL
