MODEL 1
REMARK VINA RESULT:     -12.8      0.000      0.000
REMARK  Name = 135564558
REMARK  4 active torsions:
REMARK  status: ('A' for Active; 'I' for Inactive)
REMARK    1  A    between atoms: N_2  and  C_27
REMARK    2  A    between atoms: C_6  and  C_13
REMARK    3  A    between atoms: N_12  and  C_19
REMARK    4  A    between atoms: C_19  and  C_22
REMARK                            x       y       z     vdW  Elec       q    Type
REMARK                         _______ _______ _______ _____ _____    ______ ____
ROOT
ATOM      1  O   UNL     1      37.884 -21.414 -15.998  0.00  0.00    -0.274 OA
ATOM      2  N   UNL     1      33.810 -23.103 -14.941  0.00  0.00    -0.189 N 
ATOM      3  N   UNL     1      36.217 -21.455 -17.627  0.00  0.00    -0.262 N 
ATOM      4  N   UNL     1      34.013 -22.318 -17.213  0.00  0.00    -0.378 NA
ATOM      5  N   UNL     1      34.535 -23.218 -13.809  0.00  0.00    -0.178 NA
ATOM      6  C   UNL     1      34.902 -21.775 -18.000  0.00  0.00    +0.161 C 
ATOM      7  C   UNL     1      34.504 -22.546 -15.971  0.00  0.00    +0.194 C 
ATOM      8  C   UNL     1      35.761 -22.283 -15.480  0.00  0.00    +0.187 C 
ATOM      9  C   UNL     1      36.742 -21.683 -16.348  0.00  0.00    +0.241 C 
ATOM     10  C   UNL     1      35.729 -22.714 -14.148  0.00  0.00    +0.109 C 
ATOM     11  H   UNL     1      36.804 -21.046 -18.303  0.00  0.00    +0.157 HD
ENDROOT
BRANCH   6  13
ATOM     12  N   UNL     1      35.195 -19.306 -20.252  0.00  0.00    +0.397 N 
ATOM     13  C   UNL     1      34.570 -21.436 -19.421  0.00  0.00    +0.044 C 
ATOM     14  C   UNL     1      33.363 -20.491 -19.482  0.00  0.00    -0.015 C 
ATOM     15  C   UNL     1      35.714 -20.668 -20.091  0.00  0.00    -0.067 C 
ATOM     16  C   UNL     1      33.767 -19.460 -20.531  0.00  0.00    -0.075 C 
ATOM     17  C   UNL     1      32.062 -21.201 -19.827  0.00  0.00    -0.002 C 
ATOM     18  H   UNL     1      35.347 -18.751 -19.410  0.00  0.00    -0.078 HD
BRANCH  12  19
ATOM     19  C   UNL     1      35.890 -18.563 -21.293  0.00  0.00    +0.025 C 
BRANCH  19  22
ATOM     20  N   UNL     1      34.999 -17.020 -22.940  0.00  0.00    -0.199 NA
ATOM     21  N   UNL     1      34.804 -16.508 -20.593  0.00  0.00    -0.221 NA
ATOM     22  C   UNL     1      35.184 -17.277 -21.631  0.00  0.00    -0.014 C 
ATOM     23  C   UNL     1      34.364 -15.860 -23.208  0.00  0.00    +0.107 C 
ATOM     24  C   UNL     1      34.175 -15.364 -20.933  0.00  0.00    +0.164 C 
ATOM     25  C   UNL     1      33.925 -14.983 -22.236  0.00  0.00    +0.022 C 
ENDBRANCH  19  22
ENDBRANCH  12  19
ENDBRANCH   6  13
BRANCH   2  27
ATOM     26  O   UNL     1      29.686 -23.592 -13.902  0.00  0.00    -0.354 OA
ATOM     27  C   UNL     1      32.370 -23.578 -14.956  0.00  0.00    +0.104 C 
ATOM     28  C   UNL     1      31.989 -24.333 -13.674  0.00  0.00    +0.054 C 
ATOM     29  C   UNL     1      31.379 -22.430 -15.202  0.00  0.00    +0.054 C 
ATOM     30  C   UNL     1      30.518 -24.735 -13.708  0.00  0.00    +0.144 C 
ATOM     31  C   UNL     1      29.944 -22.942 -15.147  0.00  0.00    +0.144 C 
ENDBRANCH   2  27
TORSDOF 4
ENDMDL
MODEL 2
REMARK VINA RESULT:     -10.2      1.636      4.075
REMARK  Name = 135564558
REMARK  4 active torsions:
REMARK  status: ('A' for Active; 'I' for Inactive)
REMARK    1  A    between atoms: N_2  and  C_27
REMARK    2  A    between atoms: C_6  and  C_13
REMARK    3  A    between atoms: N_12  and  C_19
REMARK    4  A    between atoms: C_19  and  C_22
REMARK                            x       y       z     vdW  Elec       q    Type
REMARK                         _______ _______ _______ _____ _____    ______ ____
ROOT
ATOM      1  O   UNL     1      30.597 -22.362 -15.451  0.00  0.00    -0.274 OA
ATOM      2  N   UNL     1      34.855 -23.791 -14.828  0.00  0.00    -0.189 N 
ATOM      3  N   UNL     1      32.118 -22.191 -17.209  0.00  0.00    -0.262 N 
ATOM      4  N   UNL     1      34.404 -22.907 -17.026  0.00  0.00    -0.378 NA
ATOM      5  N   UNL     1      34.239 -24.021 -13.650  0.00  0.00    -0.178 NA
ATOM      6  C   UNL     1      33.415 -22.390 -17.706  0.00  0.00    +0.161 C 
ATOM      7  C   UNL     1      34.038 -23.236 -15.765  0.00  0.00    +0.194 C 
ATOM      8  C   UNL     1      32.812 -23.095 -15.159  0.00  0.00    +0.187 C 
ATOM      9  C   UNL     1      31.721 -22.527 -15.908  0.00  0.00    +0.241 C 
ATOM     10  C   UNL     1      32.988 -23.591 -13.861  0.00  0.00    +0.109 C 
ATOM     11  H   UNL     1      31.448 -21.793 -17.810  0.00  0.00    +0.157 HD
ENDROOT
BRANCH   6  13
ATOM     12  N   UNL     1      34.797 -19.954 -19.552  0.00  0.00    +0.397 N 
ATOM     13  C   UNL     1      33.600 -21.955 -19.127  0.00  0.00    +0.044 C 
ATOM     14  C   UNL     1      32.646 -20.802 -19.466  0.00  0.00    -0.015 C 
ATOM     15  C   UNL     1      35.005 -21.393 -19.358  0.00  0.00    -0.067 C 
ATOM     16  C   UNL     1      33.520 -19.834 -20.257  0.00  0.00    -0.075 C 
ATOM     17  C   UNL     1      31.416 -21.250 -20.243  0.00  0.00    -0.002 C 
ATOM     18  H   UNL     1      34.772 -19.461 -18.658  0.00  0.00    -0.078 HD
BRANCH  12  19
ATOM     19  C   UNL     1      35.893 -19.322 -20.271  0.00  0.00    +0.025 C 
BRANCH  19  22
ATOM     20  N   UNL     1      35.089 -17.056 -20.595  0.00  0.00    -0.199 NA
ATOM     21  N   UNL     1      35.343 -18.518 -22.494  0.00  0.00    -0.221 NA
ATOM     22  C   UNL     1      35.409 -18.225 -21.181  0.00  0.00    -0.014 C 
ATOM     23  C   UNL     1      34.659 -16.096 -21.439  0.00  0.00    +0.107 C 
ATOM     24  C   UNL     1      34.905 -17.513 -23.280  0.00  0.00    +0.164 C 
ATOM     25  C   UNL     1      34.545 -16.268 -22.804  0.00  0.00    +0.022 C 
ENDBRANCH  19  22
ENDBRANCH  12  19
ENDBRANCH   6  13
BRANCH   2  27
ATOM     26  O   UNL     1      39.049 -24.171 -14.059  0.00  0.00    -0.354 OA
ATOM     27  C   UNL     1      36.319 -24.153 -14.988  0.00  0.00    +0.104 C 
ATOM     28  C   UNL     1      37.224 -22.913 -15.054  0.00  0.00    +0.054 C 
ATOM     29  C   UNL     1      36.811 -25.101 -13.882  0.00  0.00    +0.054 C 
ATOM     30  C   UNL     1      38.689 -23.327 -15.151  0.00  0.00    +0.144 C 
ATOM     31  C   UNL     1      38.300 -25.386 -14.047  0.00  0.00    +0.144 C 
ENDBRANCH   2  27
TORSDOF 4
ENDMDL
MODEL 3
REMARK VINA RESULT:     -10.0      7.527     13.662
REMARK  Name = 135564558
REMARK  4 active torsions:
REMARK  status: ('A' for Active; 'I' for Inactive)
REMARK    1  A    between atoms: N_2  and  C_27
REMARK    2  A    between atoms: C_6  and  C_13
REMARK    3  A    between atoms: N_12  and  C_19
REMARK    4  A    between atoms: C_19  and  C_22
REMARK                            x       y       z     vdW  Elec       q    Type
REMARK                         _______ _______ _______ _____ _____    ______ ____
ROOT
ATOM      1  O   UNL     1      30.782  -9.164 -18.649  0.00  0.00    -0.274 OA
ATOM      2  N   UNL     1      32.036  -7.310 -22.593  0.00  0.00    -0.189 N 
ATOM      3  N   UNL     1      31.358 -10.560 -20.425  0.00  0.00    -0.262 N 
ATOM      4  N   UNL     1      32.042  -9.722 -22.570  0.00  0.00    -0.378 NA
ATOM      5  N   UNL     1      31.773  -6.260 -21.788  0.00  0.00    -0.178 NA
ATOM      6  C   UNL     1      31.784 -10.709 -21.754  0.00  0.00    +0.161 C 
ATOM      7  C   UNL     1      31.848  -8.515 -21.988  0.00  0.00    +0.194 C 
ATOM      8  C   UNL     1      31.437  -8.232 -20.707  0.00  0.00    +0.187 C 
ATOM      9  C   UNL     1      31.154  -9.320 -19.806  0.00  0.00    +0.241 C 
ATOM     10  C   UNL     1      31.406  -6.834 -20.634  0.00  0.00    +0.109 C 
ATOM     11  H   UNL     1      31.193 -11.374 -19.898  0.00  0.00    +0.157 HD
ENDROOT
BRANCH   6  13
ATOM     12  N   UNL     1      33.483 -13.514 -21.050  0.00  0.00    +0.397 N 
ATOM     13  C   UNL     1      31.933 -12.133 -22.193  0.00  0.00    +0.044 C 
ATOM     14  C   UNL     1      33.218 -12.314 -23.011  0.00  0.00    -0.015 C 
ATOM     15  C   UNL     1      32.086 -13.071 -20.993  0.00  0.00    -0.067 C 
ATOM     16  C   UNL     1      33.805 -13.616 -22.474  0.00  0.00    -0.075 C 
ATOM     17  C   UNL     1      32.974 -12.355 -24.512  0.00  0.00    -0.002 C 
ATOM     18  H   UNL     1      34.100 -12.850 -20.580  0.00  0.00    -0.078 HD
BRANCH  12  19
ATOM     19  C   UNL     1      33.703 -14.763 -20.337  0.00  0.00    +0.025 C 
BRANCH  19  22
ATOM     20  N   UNL     1      35.006 -16.784 -20.666  0.00  0.00    -0.199 NA
ATOM     21  N   UNL     1      33.899 -15.755 -22.543  0.00  0.00    -0.221 NA
ATOM     22  C   UNL     1      34.239 -15.840 -21.243  0.00  0.00    -0.014 C 
ATOM     23  C   UNL     1      35.470 -17.732 -21.506  0.00  0.00    +0.107 C 
ATOM     24  C   UNL     1      34.396 -16.735 -23.326  0.00  0.00    +0.164 C 
ATOM     25  C   UNL     1      35.195 -17.759 -22.859  0.00  0.00    +0.022 C 
ENDBRANCH  19  22
ENDBRANCH  12  19
ENDBRANCH   6  13
BRANCH   2  27
ATOM     26  O   UNL     1      33.150  -5.303 -26.207  0.00  0.00    -0.354 OA
ATOM     27  C   UNL     1      32.491  -7.062 -24.019  0.00  0.00    +0.104 C 
ATOM     28  C   UNL     1      31.420  -6.349 -24.859  0.00  0.00    +0.054 C 
ATOM     29  C   UNL     1      33.813  -6.280 -24.083  0.00  0.00    +0.054 C 
ATOM     30  C   UNL     1      31.944  -6.065 -26.262  0.00  0.00    +0.144 C 
ATOM     31  C   UNL     1      34.197  -6.000 -25.531  0.00  0.00    +0.144 C 
ENDBRANCH   2  27
TORSDOF 4
ENDMDL
MODEL 4
REMARK VINA RESULT:      -9.9      4.116      7.515
REMARK  Name = 135564558
REMARK  4 active torsions:
REMARK  status: ('A' for Active; 'I' for Inactive)
REMARK    1  A    between atoms: N_2  and  C_27
REMARK    2  A    between atoms: C_6  and  C_13
REMARK    3  A    between atoms: N_12  and  C_19
REMARK    4  A    between atoms: C_19  and  C_22
REMARK                            x       y       z     vdW  Elec       q    Type
REMARK                         _______ _______ _______ _____ _____    ______ ____
ROOT
ATOM      1  O   UNL     1      32.975 -21.632 -18.827  0.00  0.00    -0.274 OA
ATOM      2  N   UNL     1      36.263 -22.362 -15.791  0.00  0.00    -0.189 N 
ATOM      3  N   UNL     1      32.443 -22.670 -16.809  0.00  0.00    -0.262 N 
ATOM      4  N   UNL     1      34.078 -23.121 -15.107  0.00  0.00    -0.378 NA
ATOM      5  N   UNL     1      36.880 -21.759 -16.828  0.00  0.00    -0.178 NA
ATOM      6  C   UNL     1      32.854 -23.162 -15.560  0.00  0.00    +0.161 C 
ATOM      7  C   UNL     1      34.928 -22.543 -15.988  0.00  0.00    +0.194 C 
ATOM      8  C   UNL     1      34.658 -22.024 -17.232  0.00  0.00    +0.187 C 
ATOM      9  C   UNL     1      33.308 -22.068 -17.732  0.00  0.00    +0.241 C 
ATOM     10  C   UNL     1      35.890 -21.556 -17.707  0.00  0.00    +0.109 C 
ATOM     11  H   UNL     1      31.492 -22.752 -17.049  0.00  0.00    +0.157 HD
ENDROOT
BRANCH   6  13
ATOM     12  N   UNL     1      29.508 -23.354 -15.404  0.00  0.00    +0.397 N 
ATOM     13  C   UNL     1      31.749 -23.760 -14.745  0.00  0.00    +0.044 C 
ATOM     14  C   UNL     1      31.096 -22.694 -13.856  0.00  0.00    -0.015 C 
ATOM     15  C   UNL     1      30.620 -24.283 -15.638  0.00  0.00    -0.067 C 
ATOM     16  C   UNL     1      29.603 -22.976 -13.993  0.00  0.00    -0.075 C 
ATOM     17  C   UNL     1      31.572 -22.745 -12.411  0.00  0.00    -0.002 C 
ATOM     18  H   UNL     1      29.577 -22.536 -16.010  0.00  0.00    -0.078 HD
BRANCH  12  19
ATOM     19  C   UNL     1      28.216 -23.933 -15.741  0.00  0.00    +0.025 C 
BRANCH  19  22
ATOM     20  N   UNL     1      26.567 -22.189 -15.385  0.00  0.00    -0.199 NA
ATOM     21  N   UNL     1      27.205 -22.792 -17.630  0.00  0.00    -0.221 NA
ATOM     22  C   UNL     1      27.266 -22.902 -16.289  0.00  0.00    -0.014 C 
ATOM     23  C   UNL     1      25.725 -21.275 -15.910  0.00  0.00    +0.107 C 
ATOM     24  C   UNL     1      26.343 -21.860 -18.086  0.00  0.00    +0.164 C 
ATOM     25  C   UNL     1      25.569 -21.064 -17.265  0.00  0.00    +0.022 C 
ENDBRANCH  19  22
ENDBRANCH  12  19
ENDBRANCH   6  13
BRANCH   2  27
ATOM     26  O   UNL     1      37.444 -24.297 -12.159  0.00  0.00    -0.354 OA
ATOM     27  C   UNL     1      37.071 -22.760 -14.571  0.00  0.00    +0.104 C 
ATOM     28  C   UNL     1      36.350 -22.425 -13.256  0.00  0.00    +0.054 C 
ATOM     29  C   UNL     1      37.462 -24.247 -14.589  0.00  0.00    +0.054 C 
ATOM     30  C   UNL     1      37.170 -22.900 -12.062  0.00  0.00    +0.144 C 
ATOM     31  C   UNL     1      38.217 -24.616 -13.316  0.00  0.00    +0.144 C 
ENDBRANCH   2  27
TORSDOF 4
ENDMDL
