MODEL 1
REMARK VINA RESULT:     -12.5      0.000      0.000
REMARK  Name = 446277
REMARK  7 active torsions:
REMARK  status: ('A' for Active; 'I' for Inactive)
REMARK    1  A    between atoms: N_2  and  C_17
REMARK    2  A    between atoms: C_3  and  C_5
REMARK    3  A    between atoms: C_8  and  S_11
REMARK    4  A    between atoms: S_11  and  N_14
REMARK    5  A    between atoms: C_17  and  C_18
REMARK    6  A    between atoms: C_18  and  C_20
REMARK    7  A    between atoms: C_20  and  N_21
REMARK                            x       y       z     vdW  Elec       q    Type
REMARK                         _______ _______ _______ _____ _____    ______ ____
ROOT
ATOM      1  O   UNL     1      36.728 -18.297 -21.716  0.00  0.00    -0.270 OA
ATOM      2  N   UNL     1      34.600 -17.412 -21.990  0.00  0.00    -0.301 N 
ATOM      3  C   UNL     1      35.522 -18.321 -21.483  0.00  0.00    +0.246 C 
ATOM      4  H   UNL     1      33.653 -17.514 -21.745  0.00  0.00    +0.150 HD
ENDROOT
BRANCH   3   5
ATOM      5  C   UNL     1      34.972 -19.399 -20.621  0.00  0.00    +0.053 C 
ATOM      6  C   UNL     1      35.839 -20.143 -19.848  0.00  0.00    +0.006 C 
ATOM      7  C   UNL     1      33.610 -19.622 -20.621  0.00  0.00    +0.006 C 
ATOM      8  C   UNL     1      33.949 -21.400 -19.022  0.00  0.00    +0.122 C 
ATOM      9  C   UNL     1      35.322 -21.155 -19.040  0.00  0.00    +0.020 C 
ATOM     10  C   UNL     1      33.094 -20.633 -19.812  0.00  0.00    +0.020 C 
BRANCH   8  11
ATOM     11  S   UNL     1      33.302 -22.667 -18.008  0.00  0.00    +0.057 S 
ATOM     12  O   UNL     1      33.189 -23.880 -18.806  0.00  0.00    -0.153 OA
ATOM     13  O   UNL     1      34.053 -22.689 -16.760  0.00  0.00    -0.153 OA
BRANCH  11  14
ATOM     14  N   UNL     1      31.735 -22.064 -17.694  0.00  0.00    -0.203 NA
ATOM     15  H   UNL     1      31.064 -22.521 -18.313  0.00  0.00    +0.144 HD
ATOM     16  H   UNL     1      31.719 -21.058 -17.859  0.00  0.00    +0.144 HD
ENDBRANCH  11  14
ENDBRANCH   8  11
ENDBRANCH   3   5
BRANCH   2  17
ATOM     17  C   UNL     1      34.976 -16.329 -22.857  0.00  0.00    +0.091 C 
BRANCH  17  18
ATOM     18  C   UNL     1      33.795 -15.438 -23.274  0.00  0.00    +0.040 C 
ATOM     19  C   UNL     1      33.439 -15.652 -24.749  0.00  0.00    +0.004 C 
BRANCH  18  20
ATOM     20  C   UNL     1      34.083 -13.956 -22.959  0.00  0.00    +0.097 C 
BRANCH  20  21
ATOM     21  N   UNL     1      33.141 -13.361 -22.016  0.00  0.00    -0.286 N 
ATOM     22  C   UNL     1      32.549 -12.136 -22.162  0.00  0.00    +0.052 C 
ATOM     23  C   UNL     1      31.727 -11.954 -21.047  0.00  0.00    +0.015 C 
ATOM     24  C   UNL     1      32.738 -13.966 -20.864  0.00  0.00    +0.065 C 
ATOM     25  C   UNL     1      31.856 -13.116 -20.237  0.00  0.00    +0.017 C 
ATOM     26  C   UNL     1      32.668 -11.180 -23.177  0.00  0.00    +0.015 C 
ATOM     27  C   UNL     1      30.987 -10.759 -20.939  0.00  0.00    +0.001 C 
ATOM     28  C   UNL     1      31.925 -10.003 -23.048  0.00  0.00    +0.001 C 
ATOM     29  C   UNL     1      31.097  -9.794 -21.946  0.00  0.00    +0.000 C 
ENDBRANCH  20  21
ENDBRANCH  18  20
ENDBRANCH  17  18
ENDBRANCH   2  17
TORSDOF 7
ENDMDL
MODEL 2
REMARK VINA RESULT:     -12.5      2.731      4.375
REMARK  Name = 446277
REMARK  7 active torsions:
REMARK  status: ('A' for Active; 'I' for Inactive)
REMARK    1  A    between atoms: N_2  and  C_17
REMARK    2  A    between atoms: C_3  and  C_5
REMARK    3  A    between atoms: C_8  and  S_11
REMARK    4  A    between atoms: S_11  and  N_14
REMARK    5  A    between atoms: C_17  and  C_18
REMARK    6  A    between atoms: C_18  and  C_20
REMARK    7  A    between atoms: C_20  and  N_21
REMARK                            x       y       z     vdW  Elec       q    Type
REMARK                         _______ _______ _______ _____ _____    ______ ____
ROOT
ATOM      1  O   UNL     1      33.041 -21.405 -19.476  0.00  0.00    -0.270 OA
ATOM      2  N   UNL     1      34.868 -20.035 -19.892  0.00  0.00    -0.301 N 
ATOM      3  C   UNL     1      34.168 -21.007 -19.187  0.00  0.00    +0.246 C 
ATOM      4  H   UNL     1      35.767 -19.784 -19.583  0.00  0.00    +0.150 HD
ENDROOT
BRANCH   3   5
ATOM      5  C   UNL     1      34.849 -21.566 -17.991  0.00  0.00    +0.053 C 
ATOM      6  C   UNL     1      34.127 -22.356 -17.121  0.00  0.00    +0.006 C 
ATOM      7  C   UNL     1      36.183 -21.277 -17.789  0.00  0.00    +0.006 C 
ATOM      8  C   UNL     1      36.115 -22.603 -15.771  0.00  0.00    +0.122 C 
ATOM      9  C   UNL     1      34.767 -22.880 -15.997  0.00  0.00    +0.020 C 
ATOM     10  C   UNL     1      36.823 -21.802 -16.666  0.00  0.00    +0.020 C 
BRANCH   8  11
ATOM     11  S   UNL     1      36.917 -23.261 -14.365  0.00  0.00    +0.057 S 
ATOM     12  O   UNL     1      37.053 -22.200 -13.376  0.00  0.00    -0.153 OA
ATOM     13  O   UNL     1      36.261 -24.509 -14.001  0.00  0.00    -0.153 OA
BRANCH  11  14
ATOM     14  N   UNL     1      38.459 -23.618 -15.007  0.00  0.00    -0.203 NA
ATOM     15  H   UNL     1      38.503 -23.311 -15.978  0.00  0.00    +0.144 HD
ATOM     16  H   UNL     1      38.621 -24.624 -14.960  0.00  0.00    +0.144 HD
ENDBRANCH  11  14
ENDBRANCH   8  11
ENDBRANCH   3   5
BRANCH   2  17
ATOM     17  C   UNL     1      34.331 -19.384 -21.057  0.00  0.00    +0.091 C 
BRANCH  17  18
ATOM     18  C   UNL     1      35.270 -18.325 -21.655  0.00  0.00    +0.040 C 
ATOM     19  C   UNL     1      36.726 -18.596 -21.262  0.00  0.00    +0.004 C 
BRANCH  18  20
ATOM     20  C   UNL     1      34.821 -16.903 -21.261  0.00  0.00    +0.097 C 
BRANCH  20  21
ATOM     21  N   UNL     1      34.345 -16.104 -22.387  0.00  0.00    -0.286 N 
ATOM     22  C   UNL     1      33.858 -14.828 -22.295  0.00  0.00    +0.052 C 
ATOM     23  C   UNL     1      33.517 -14.436 -23.592  0.00  0.00    +0.015 C 
ATOM     24  C   UNL     1      34.331 -16.543 -23.676  0.00  0.00    +0.065 C 
ATOM     25  C   UNL     1      33.821 -15.528 -24.453  0.00  0.00    +0.017 C 
ATOM     26  C   UNL     1      33.690 -13.993 -21.186  0.00  0.00    +0.015 C 
ATOM     27  C   UNL     1      32.983 -13.147 -23.793  0.00  0.00    +0.001 C 
ATOM     28  C   UNL     1      33.158 -12.719 -21.409  0.00  0.00    +0.001 C 
ATOM     29  C   UNL     1      32.809 -12.301 -22.692  0.00  0.00    +0.000 C 
ENDBRANCH  20  21
ENDBRANCH  18  20
ENDBRANCH  17  18
ENDBRANCH   2  17
TORSDOF 7
ENDMDL
MODEL 3
REMARK VINA RESULT:     -12.2      5.461     10.816
REMARK  Name = 446277
REMARK  7 active torsions:
REMARK  status: ('A' for Active; 'I' for Inactive)
REMARK    1  A    between atoms: N_2  and  C_17
REMARK    2  A    between atoms: C_3  and  C_5
REMARK    3  A    between atoms: C_8  and  S_11
REMARK    4  A    between atoms: S_11  and  N_14
REMARK    5  A    between atoms: C_17  and  C_18
REMARK    6  A    between atoms: C_18  and  C_20
REMARK    7  A    between atoms: C_20  and  N_21
REMARK                            x       y       z     vdW  Elec       q    Type
REMARK                         _______ _______ _______ _____ _____    ______ ____
ROOT
ATOM      1  O   UNL     1      33.254 -23.754 -18.696  0.00  0.00    -0.270 OA
ATOM      2  N   UNL     1      32.692 -22.284 -16.991  0.00  0.00    -0.301 N 
ATOM      3  C   UNL     1      33.207 -22.615 -18.239  0.00  0.00    +0.246 C 
ATOM      4  H   UNL     1      32.697 -21.340 -16.713  0.00  0.00    +0.150 HD
ENDROOT
BRANCH   3   5
ATOM      5  C   UNL     1      33.753 -21.489 -19.041  0.00  0.00    +0.053 C 
ATOM      6  C   UNL     1      35.118 -21.296 -19.074  0.00  0.00    +0.006 C 
ATOM      7  C   UNL     1      32.876 -20.674 -19.727  0.00  0.00    +0.006 C 
ATOM      8  C   UNL     1      34.765 -19.400 -20.530  0.00  0.00    +0.122 C 
ATOM      9  C   UNL     1      35.630 -20.239 -19.827  0.00  0.00    +0.020 C 
ATOM     10  C   UNL     1      33.388 -19.618 -20.480  0.00  0.00    +0.020 C 
BRANCH   8  11
ATOM     11  S   UNL     1      35.407 -18.078 -21.474  0.00  0.00    +0.057 S 
ATOM     12  O   UNL     1      35.070 -18.307 -22.873  0.00  0.00    -0.153 OA
ATOM     13  O   UNL     1      35.026 -16.826 -20.835  0.00  0.00    -0.153 OA
BRANCH  11  14
ATOM     14  N   UNL     1      37.085 -18.313 -21.265  0.00  0.00    -0.203 NA
ATOM     15  H   UNL     1      37.354 -18.030 -20.322  0.00  0.00    +0.144 HD
ATOM     16  H   UNL     1      37.595 -17.750 -21.947  0.00  0.00    +0.144 HD
ENDBRANCH  11  14
ENDBRANCH   8  11
ENDBRANCH   3   5
BRANCH   2  17
ATOM     17  C   UNL     1      32.150 -23.266 -16.091  0.00  0.00    +0.091 C 
BRANCH  17  18
ATOM     18  C   UNL     1      33.112 -23.655 -14.957  0.00  0.00    +0.040 C 
ATOM     19  C   UNL     1      32.344 -24.208 -13.751  0.00  0.00    +0.004 C 
BRANCH  18  20
ATOM     20  C   UNL     1      34.017 -22.469 -14.569  0.00  0.00    +0.097 C 
BRANCH  20  21
ATOM     21  N   UNL     1      35.434 -22.697 -14.840  0.00  0.00    -0.286 N 
ATOM     22  C   UNL     1      36.222 -23.608 -14.192  0.00  0.00    +0.052 C 
ATOM     23  C   UNL     1      37.498 -23.505 -14.752  0.00  0.00    +0.015 C 
ATOM     24  C   UNL     1      36.144 -22.019 -15.784  0.00  0.00    +0.065 C 
ATOM     25  C   UNL     1      37.434 -22.498 -15.755  0.00  0.00    +0.017 C 
ATOM     26  C   UNL     1      35.920 -24.510 -13.166  0.00  0.00    +0.015 C 
ATOM     27  C   UNL     1      38.523 -24.341 -14.265  0.00  0.00    +0.001 C 
ATOM     28  C   UNL     1      36.953 -25.329 -12.698  0.00  0.00    +0.001 C 
ATOM     29  C   UNL     1      38.235 -25.247 -13.238  0.00  0.00    +0.000 C 
ENDBRANCH  20  21
ENDBRANCH  18  20
ENDBRANCH  17  18
ENDBRANCH   2  17
TORSDOF 7
ENDMDL
MODEL 4
REMARK VINA RESULT:     -12.0      5.402     10.074
REMARK  Name = 446277
REMARK  7 active torsions:
REMARK  status: ('A' for Active; 'I' for Inactive)
REMARK    1  A    between atoms: N_2  and  C_17
REMARK    2  A    between atoms: C_3  and  C_5
REMARK    3  A    between atoms: C_8  and  S_11
REMARK    4  A    between atoms: S_11  and  N_14
REMARK    5  A    between atoms: C_17  and  C_18
REMARK    6  A    between atoms: C_18  and  C_20
REMARK    7  A    between atoms: C_20  and  N_21
REMARK                            x       y       z     vdW  Elec       q    Type
REMARK                         _______ _______ _______ _____ _____    ______ ____
ROOT
ATOM      1  O   UNL     1      33.276 -23.739 -18.583  0.00  0.00    -0.270 OA
ATOM      2  N   UNL     1      31.929 -22.237 -17.437  0.00  0.00    -0.301 N 
ATOM      3  C   UNL     1      32.897 -22.590 -18.370  0.00  0.00    +0.246 C 
ATOM      4  H   UNL     1      31.692 -21.287 -17.339  0.00  0.00    +0.150 HD
ENDROOT
BRANCH   3   5
ATOM      5  C   UNL     1      33.513 -21.471 -19.130  0.00  0.00    +0.053 C 
ATOM      6  C   UNL     1      34.887 -21.363 -19.160  0.00  0.00    +0.006 C 
ATOM      7  C   UNL     1      32.689 -20.577 -19.782  0.00  0.00    +0.006 C 
ATOM      8  C   UNL     1      34.654 -19.395 -20.541  0.00  0.00    +0.122 C 
ATOM      9  C   UNL     1      35.465 -20.312 -19.873  0.00  0.00    +0.020 C 
ATOM     10  C   UNL     1      33.267 -19.527 -20.495  0.00  0.00    +0.020 C 
BRANCH   8  11
ATOM     11  S   UNL     1      35.377 -18.081 -21.435  0.00  0.00    +0.057 S 
ATOM     12  O   UNL     1      35.115 -18.291 -22.853  0.00  0.00    -0.153 OA
ATOM     13  O   UNL     1      34.991 -16.825 -20.807  0.00  0.00    -0.153 OA
BRANCH  11  14
ATOM     14  N   UNL     1      37.036 -18.356 -21.135  0.00  0.00    -0.203 NA
ATOM     15  H   UNL     1      37.232 -19.355 -21.194  0.00  0.00    +0.144 HD
ATOM     16  H   UNL     1      37.273 -18.017 -20.202  0.00  0.00    +0.144 HD
ENDBRANCH  11  14
ENDBRANCH   8  11
ENDBRANCH   3   5
BRANCH   2  17
ATOM     17  C   UNL     1      31.261 -23.204 -16.608  0.00  0.00    +0.091 C 
BRANCH  17  18
ATOM     18  C   UNL     1      31.585 -23.060 -15.113  0.00  0.00    +0.040 C 
ATOM     19  C   UNL     1      30.386 -22.496 -14.343  0.00  0.00    +0.004 C 
BRANCH  18  20
ATOM     20  C   UNL     1      32.856 -22.213 -14.902  0.00  0.00    +0.097 C 
BRANCH  20  21
ATOM     21  N   UNL     1      34.039 -23.000 -14.565  0.00  0.00    -0.286 N 
ATOM     22  C   UNL     1      35.302 -22.764 -15.035  0.00  0.00    +0.052 C 
ATOM     23  C   UNL     1      36.128 -23.739 -14.471  0.00  0.00    +0.015 C 
ATOM     24  C   UNL     1      34.019 -24.077 -13.731  0.00  0.00    +0.065 C 
ATOM     25  C   UNL     1      35.305 -24.561 -13.651  0.00  0.00    +0.017 C 
ATOM     26  C   UNL     1      35.783 -21.778 -15.903  0.00  0.00    +0.015 C 
ATOM     27  C   UNL     1      37.501 -23.732 -14.789  0.00  0.00    +0.001 C 
ATOM     28  C   UNL     1      37.148 -21.791 -16.205  0.00  0.00    +0.001 C 
ATOM     29  C   UNL     1      37.996 -22.752 -15.657  0.00  0.00    +0.000 C 
ENDBRANCH  20  21
ENDBRANCH  18  20
ENDBRANCH  17  18
ENDBRANCH   2  17
TORSDOF 7
ENDMDL
MODEL 5
REMARK VINA RESULT:     -11.9      5.440     11.038
REMARK  Name = 446277
REMARK  7 active torsions:
REMARK  status: ('A' for Active; 'I' for Inactive)
REMARK    1  A    between atoms: N_2  and  C_17
REMARK    2  A    between atoms: C_3  and  C_5
REMARK    3  A    between atoms: C_8  and  S_11
REMARK    4  A    between atoms: S_11  and  N_14
REMARK    5  A    between atoms: C_17  and  C_18
REMARK    6  A    between atoms: C_18  and  C_20
REMARK    7  A    between atoms: C_20  and  N_21
REMARK                            x       y       z     vdW  Elec       q    Type
REMARK                         _______ _______ _______ _____ _____    ______ ____
ROOT
ATOM      1  O   UNL     1      33.257 -23.761 -18.705  0.00  0.00    -0.270 OA
ATOM      2  N   UNL     1      32.414 -22.272 -17.137  0.00  0.00    -0.301 N 
ATOM      3  C   UNL     1      33.092 -22.612 -18.302  0.00  0.00    +0.246 C 
ATOM      4  H   UNL     1      32.334 -21.321 -16.898  0.00  0.00    +0.150 HD
ENDROOT
BRANCH   3   5
ATOM      5  C   UNL     1      33.667 -21.482 -19.078  0.00  0.00    +0.053 C 
ATOM      6  C   UNL     1      35.035 -21.308 -19.088  0.00  0.00    +0.006 C 
ATOM      7  C   UNL     1      32.812 -20.644 -19.764  0.00  0.00    +0.006 C 
ATOM      8  C   UNL     1      34.732 -19.386 -20.520  0.00  0.00    +0.122 C 
ATOM      9  C   UNL     1      35.574 -20.247 -19.817  0.00  0.00    +0.020 C 
ATOM     10  C   UNL     1      33.352 -19.584 -20.493  0.00  0.00    +0.020 C 
BRANCH   8  11
ATOM     11  S   UNL     1      35.407 -18.059 -21.433  0.00  0.00    +0.057 S 
ATOM     12  O   UNL     1      35.067 -18.248 -22.837  0.00  0.00    -0.153 OA
ATOM     13  O   UNL     1      35.056 -16.813 -20.766  0.00  0.00    -0.153 OA
BRANCH  11  14
ATOM     14  N   UNL     1      37.079 -18.339 -21.227  0.00  0.00    -0.203 NA
ATOM     15  H   UNL     1      37.595 -17.482 -21.427  0.00  0.00    +0.144 HD
ATOM     16  H   UNL     1      37.381 -19.075 -21.866  0.00  0.00    +0.144 HD
ENDBRANCH  11  14
ENDBRANCH   8  11
ENDBRANCH   3   5
BRANCH   2  17
ATOM     17  C   UNL     1      31.825 -23.254 -16.269  0.00  0.00    +0.091 C 
BRANCH  17  18
ATOM     18  C   UNL     1      32.456 -23.293 -14.868  0.00  0.00    +0.040 C 
ATOM     19  C   UNL     1      31.607 -22.510 -13.861  0.00  0.00    +0.004 C 
BRANCH  18  20
ATOM     20  C   UNL     1      33.914 -22.792 -14.905  0.00  0.00    +0.097 C 
BRANCH  20  21
ATOM     21  N   UNL     1      34.895 -23.811 -14.540  0.00  0.00    -0.286 N 
ATOM     22  C   UNL     1      35.734 -23.744 -13.461  0.00  0.00    +0.052 C 
ATOM     23  C   UNL     1      36.501 -24.911 -13.478  0.00  0.00    +0.015 C 
ATOM     24  C   UNL     1      35.090 -24.961 -15.243  0.00  0.00    +0.065 C 
ATOM     25  C   UNL     1      36.085 -25.669 -14.608  0.00  0.00    +0.017 C 
ATOM     26  C   UNL     1      35.879 -22.759 -12.478  0.00  0.00    +0.015 C 
ATOM     27  C   UNL     1      37.462 -25.107 -12.465  0.00  0.00    +0.001 C 
ATOM     28  C   UNL     1      36.839 -22.974 -11.483  0.00  0.00    +0.001 C 
ATOM     29  C   UNL     1      37.619 -24.130 -11.475  0.00  0.00    +0.000 C 
ENDBRANCH  20  21
ENDBRANCH  18  20
ENDBRANCH  17  18
ENDBRANCH   2  17
TORSDOF 7
ENDMDL
MODEL 6
REMARK VINA RESULT:     -11.4      5.039      9.939
REMARK  Name = 446277
REMARK  7 active torsions:
REMARK  status: ('A' for Active; 'I' for Inactive)
REMARK    1  A    between atoms: N_2  and  C_17
REMARK    2  A    between atoms: C_3  and  C_5
REMARK    3  A    between atoms: C_8  and  S_11
REMARK    4  A    between atoms: S_11  and  N_14
REMARK    5  A    between atoms: C_17  and  C_18
REMARK    6  A    between atoms: C_18  and  C_20
REMARK    7  A    between atoms: C_20  and  N_21
REMARK                            x       y       z     vdW  Elec       q    Type
REMARK                         _______ _______ _______ _____ _____    ______ ____
ROOT
ATOM      1  O   UNL     1      31.986 -13.884 -20.237  0.00  0.00    -0.270 OA
ATOM      2  N   UNL     1      33.678 -13.936 -21.825  0.00  0.00    -0.301 N 
ATOM      3  C   UNL     1      32.622 -13.346 -21.140  0.00  0.00    +0.246 C 
ATOM      4  H   UNL     1      34.126 -13.423 -22.535  0.00  0.00    +0.150 HD
ENDROOT
BRANCH   3   5
ATOM      5  C   UNL     1      32.246 -11.975 -21.573  0.00  0.00    +0.053 C 
ATOM      6  C   UNL     1      31.445 -11.212 -20.750  0.00  0.00    +0.006 C 
ATOM      7  C   UNL     1      32.711 -11.509 -22.786  0.00  0.00    +0.006 C 
ATOM      8  C   UNL     1      31.550  -9.430 -22.378  0.00  0.00    +0.122 C 
ATOM      9  C   UNL     1      31.092  -9.925 -21.157  0.00  0.00    +0.020 C 
ATOM     10  C   UNL     1      32.359 -10.222 -23.192  0.00  0.00    +0.020 C 
BRANCH   8  11
ATOM     11  S   UNL     1      31.109  -7.819 -22.887  0.00  0.00    +0.057 S 
ATOM     12  O   UNL     1      32.166  -7.304 -23.748  0.00  0.00    -0.153 OA
ATOM     13  O   UNL     1      29.734  -7.845 -23.366  0.00  0.00    -0.153 OA
BRANCH  11  14
ATOM     14  N   UNL     1      31.155  -6.983 -21.398  0.00  0.00    -0.203 NA
ATOM     15  H   UNL     1      30.299  -7.171 -20.876  0.00  0.00    +0.144 HD
ATOM     16  H   UNL     1      31.234  -5.981 -21.573  0.00  0.00    +0.144 HD
ENDBRANCH  11  14
ENDBRANCH   8  11
ENDBRANCH   3   5
BRANCH   2  17
ATOM     17  C   UNL     1      34.141 -15.266 -21.538  0.00  0.00    +0.091 C 
BRANCH  17  18
ATOM     18  C   UNL     1      34.591 -16.043 -22.785  0.00  0.00    +0.040 C 
ATOM     19  C   UNL     1      34.114 -15.349 -24.066  0.00  0.00    +0.004 C 
BRANCH  18  20
ATOM     20  C   UNL     1      34.127 -17.512 -22.718  0.00  0.00    +0.097 C 
BRANCH  20  21
ATOM     21  N   UNL     1      34.885 -18.326 -21.772  0.00  0.00    -0.286 N 
ATOM     22  C   UNL     1      34.349 -19.276 -20.946  0.00  0.00    +0.052 C 
ATOM     23  C   UNL     1      35.409 -19.813 -20.212  0.00  0.00    +0.015 C 
ATOM     24  C   UNL     1      36.232 -18.230 -21.599  0.00  0.00    +0.065 C 
ATOM     25  C   UNL     1      36.591 -19.143 -20.634  0.00  0.00    +0.017 C 
ATOM     26  C   UNL     1      33.027 -19.706 -20.787  0.00  0.00    +0.015 C 
ATOM     27  C   UNL     1      35.139 -20.828 -19.272  0.00  0.00    +0.001 C 
ATOM     28  C   UNL     1      32.782 -20.713 -19.848  0.00  0.00    +0.001 C 
ATOM     29  C   UNL     1      33.821 -21.267 -19.101  0.00  0.00    +0.000 C 
ENDBRANCH  20  21
ENDBRANCH  18  20
ENDBRANCH  17  18
ENDBRANCH   2  17
TORSDOF 7
ENDMDL
MODEL 7
REMARK VINA RESULT:     -11.3      3.594      6.302
REMARK  Name = 446277
REMARK  7 active torsions:
REMARK  status: ('A' for Active; 'I' for Inactive)
REMARK    1  A    between atoms: N_2  and  C_17
REMARK    2  A    between atoms: C_3  and  C_5
REMARK    3  A    between atoms: C_8  and  S_11
REMARK    4  A    between atoms: S_11  and  N_14
REMARK    5  A    between atoms: C_17  and  C_18
REMARK    6  A    between atoms: C_18  and  C_20
REMARK    7  A    between atoms: C_20  and  N_21
REMARK                            x       y       z     vdW  Elec       q    Type
REMARK                         _______ _______ _______ _____ _____    ______ ____
ROOT
ATOM      1  O   UNL     1      32.733 -12.901 -25.018  0.00  0.00    -0.270 OA
ATOM      2  N   UNL     1      32.957 -12.036 -22.876  0.00  0.00    -0.301 N 
ATOM      3  C   UNL     1      33.061 -13.031 -23.841  0.00  0.00    +0.246 C 
ATOM      4  H   UNL     1      33.247 -12.236 -21.958  0.00  0.00    +0.150 HD
ENDROOT
BRANCH   3   5
ATOM      5  C   UNL     1      33.588 -14.341 -23.376  0.00  0.00    +0.053 C 
ATOM      6  C   UNL     1      33.718 -15.368 -24.287  0.00  0.00    +0.006 C 
ATOM      7  C   UNL     1      33.930 -14.486 -22.047  0.00  0.00    +0.006 C 
ATOM      8  C   UNL     1      34.566 -16.770 -22.512  0.00  0.00    +0.122 C 
ATOM      9  C   UNL     1      34.213 -16.597 -23.850  0.00  0.00    +0.020 C 
ATOM     10  C   UNL     1      34.425 -15.715 -21.611  0.00  0.00    +0.020 C 
BRANCH   8  11
ATOM     11  S   UNL     1      35.187 -18.308 -21.965  0.00  0.00    +0.057 S 
ATOM     12  O   UNL     1      34.781 -18.500 -20.579  0.00  0.00    -0.153 OA
ATOM     13  O   UNL     1      34.860 -19.319 -22.961  0.00  0.00    -0.153 OA
BRANCH  11  14
ATOM     14  N   UNL     1      36.869 -18.017 -22.012  0.00  0.00    -0.203 NA
ATOM     15  H   UNL     1      37.041 -17.012 -21.991  0.00  0.00    +0.144 HD
ATOM     16  H   UNL     1      37.258 -18.412 -22.868  0.00  0.00    +0.144 HD
ENDBRANCH  11  14
ENDBRANCH   8  11
ENDBRANCH   3   5
BRANCH   2  17
ATOM     17  C   UNL     1      32.443 -10.725 -23.167  0.00  0.00    +0.091 C 
BRANCH  17  18
ATOM     18  C   UNL     1      31.716 -10.074 -21.981  0.00  0.00    +0.040 C 
ATOM     19  C   UNL     1      30.902 -11.110 -21.198  0.00  0.00    +0.004 C 
BRANCH  18  20
ATOM     20  C   UNL     1      30.844  -8.891 -22.449  0.00  0.00    +0.097 C 
BRANCH  20  21
ATOM     21  N   UNL     1      31.205  -7.615 -21.836  0.00  0.00    -0.286 N 
ATOM     22  C   UNL     1      31.078  -6.391 -22.434  0.00  0.00    +0.052 C 
ATOM     23  C   UNL     1      31.532  -5.446 -21.511  0.00  0.00    +0.015 C 
ATOM     24  C   UNL     1      31.719  -7.496 -20.580  0.00  0.00    +0.065 C 
ATOM     25  C   UNL     1      31.934  -6.157 -20.347  0.00  0.00    +0.017 C 
ATOM     26  C   UNL     1      30.602  -6.040 -23.702  0.00  0.00    +0.015 C 
ATOM     27  C   UNL     1      31.512  -4.083 -21.871  0.00  0.00    +0.001 C 
ATOM     28  C   UNL     1      30.592  -4.682 -24.037  0.00  0.00    +0.001 C 
ATOM     29  C   UNL     1      31.040  -3.717 -23.136  0.00  0.00    +0.000 C 
ENDBRANCH  20  21
ENDBRANCH  18  20
ENDBRANCH  17  18
ENDBRANCH   2  17
TORSDOF 7
ENDMDL
MODEL 8
REMARK VINA RESULT:     -11.2      5.519     10.190
REMARK  Name = 446277
REMARK  7 active torsions:
REMARK  status: ('A' for Active; 'I' for Inactive)
REMARK    1  A    between atoms: N_2  and  C_17
REMARK    2  A    between atoms: C_3  and  C_5
REMARK    3  A    between atoms: C_8  and  S_11
REMARK    4  A    between atoms: S_11  and  N_14
REMARK    5  A    between atoms: C_17  and  C_18
REMARK    6  A    between atoms: C_18  and  C_20
REMARK    7  A    between atoms: C_20  and  N_21
REMARK                            x       y       z     vdW  Elec       q    Type
REMARK                         _______ _______ _______ _____ _____    ______ ____
ROOT
ATOM      1  O   UNL     1      33.142 -23.667 -18.647  0.00  0.00    -0.270 OA
ATOM      2  N   UNL     1      33.540 -22.418 -16.732  0.00  0.00    -0.301 N 
ATOM      3  C   UNL     1      33.509 -22.626 -18.105  0.00  0.00    +0.246 C 
ATOM      4  H   UNL     1      33.850 -21.548 -16.393  0.00  0.00    +0.150 HD
ENDROOT
BRANCH   3   5
ATOM      5  C   UNL     1      33.985 -21.499 -18.949  0.00  0.00    +0.053 C 
ATOM      6  C   UNL     1      35.336 -21.228 -18.999  0.00  0.00    +0.006 C 
ATOM      7  C   UNL     1      33.058 -20.761 -19.656  0.00  0.00    +0.006 C 
ATOM      8  C   UNL     1      34.865 -19.408 -20.516  0.00  0.00    +0.122 C 
ATOM      9  C   UNL     1      35.781 -20.169 -19.791  0.00  0.00    +0.020 C 
ATOM     10  C   UNL     1      33.504 -19.703 -20.449  0.00  0.00    +0.020 C 
BRANCH   8  11
ATOM     11  S   UNL     1      35.423 -18.084 -21.509  0.00  0.00    +0.057 S 
ATOM     12  O   UNL     1      35.059 -18.362 -22.892  0.00  0.00    -0.153 OA
ATOM     13  O   UNL     1      35.008 -16.833 -20.889  0.00  0.00    -0.153 OA
BRANCH  11  14
ATOM     14  N   UNL     1      37.115 -18.242 -21.343  0.00  0.00    -0.203 NA
ATOM     15  H   UNL     1      37.513 -18.587 -22.216  0.00  0.00    +0.144 HD
ATOM     16  H   UNL     1      37.323 -18.900 -20.591  0.00  0.00    +0.144 HD
ENDBRANCH  11  14
ENDBRANCH   8  11
ENDBRANCH   3   5
BRANCH   2  17
ATOM     17  C   UNL     1      33.135 -23.422 -15.786  0.00  0.00    +0.091 C 
BRANCH  17  18
ATOM     18  C   UNL     1      33.244 -22.967 -14.322  0.00  0.00    +0.040 C 
ATOM     19  C   UNL     1      33.966 -24.017 -13.472  0.00  0.00    +0.004 C 
BRANCH  18  20
ATOM     20  C   UNL     1      31.857 -22.615 -13.748  0.00  0.00    +0.097 C 
BRANCH  20  21
ATOM     21  N   UNL     1      30.801 -23.538 -14.154  0.00  0.00    -0.286 N 
ATOM     22  C   UNL     1      29.788 -23.240 -15.025  0.00  0.00    +0.052 C 
ATOM     23  C   UNL     1      29.005 -24.392 -15.136  0.00  0.00    +0.015 C 
ATOM     24  C   UNL     1      30.700 -24.820 -13.705  0.00  0.00    +0.065 C 
ATOM     25  C   UNL     1      29.592 -25.380 -14.298  0.00  0.00    +0.017 C 
ATOM     26  C   UNL     1      29.499 -22.061 -15.720  0.00  0.00    +0.015 C 
ATOM     27  C   UNL     1      27.877 -24.366 -15.982  0.00  0.00    +0.001 C 
ATOM     28  C   UNL     1      28.375 -22.058 -16.553  0.00  0.00    +0.001 C 
ATOM     29  C   UNL     1      27.576 -23.193 -16.683  0.00  0.00    +0.000 C 
ENDBRANCH  20  21
ENDBRANCH  18  20
ENDBRANCH  17  18
ENDBRANCH   2  17
TORSDOF 7
ENDMDL
MODEL 9
REMARK VINA RESULT:     -10.9      5.253     11.387
REMARK  Name = 446277
REMARK  7 active torsions:
REMARK  status: ('A' for Active; 'I' for Inactive)
REMARK    1  A    between atoms: N_2  and  C_17
REMARK    2  A    between atoms: C_3  and  C_5
REMARK    3  A    between atoms: C_8  and  S_11
REMARK    4  A    between atoms: S_11  and  N_14
REMARK    5  A    between atoms: C_17  and  C_18
REMARK    6  A    between atoms: C_18  and  C_20
REMARK    7  A    between atoms: C_20  and  N_21
REMARK                            x       y       z     vdW  Elec       q    Type
REMARK                         _______ _______ _______ _____ _____    ______ ____
ROOT
ATOM      1  O   UNL     1      33.350 -23.574 -19.021  0.00  0.00    -0.270 OA
ATOM      2  N   UNL     1      33.373 -22.249 -17.116  0.00  0.00    -0.301 N 
ATOM      3  C   UNL     1      33.528 -22.486 -18.476  0.00  0.00    +0.246 C 
ATOM      4  H   UNL     1      33.538 -21.342 -16.773  0.00  0.00    +0.150 HD
ENDROOT
BRANCH   3   5
ATOM      5  C   UNL     1      33.964 -21.327 -19.298  0.00  0.00    +0.053 C 
ATOM      6  C   UNL     1      35.313 -21.066 -19.419  0.00  0.00    +0.006 C 
ATOM      7  C   UNL     1      33.004 -20.549 -19.913  0.00  0.00    +0.006 C 
ATOM      8  C   UNL     1      34.771 -19.176 -20.823  0.00  0.00    +0.122 C 
ATOM      9  C   UNL     1      35.721 -19.977 -20.190  0.00  0.00    +0.020 C 
ATOM     10  C   UNL     1      33.413 -19.462 -20.684  0.00  0.00    +0.020 C 
BRANCH   8  11
ATOM     11  S   UNL     1      35.283 -17.814 -21.789  0.00  0.00    +0.057 S 
ATOM     12  O   UNL     1      34.907 -16.590 -21.093  0.00  0.00    -0.153 OA
ATOM     13  O   UNL     1      36.668 -18.023 -22.187  0.00  0.00    -0.153 OA
BRANCH  11  14
ATOM     14  N   UNL     1      34.285 -17.995 -23.163  0.00  0.00    -0.203 NA
ATOM     15  H   UNL     1      34.690 -17.485 -23.948  0.00  0.00    +0.144 HD
ATOM     16  H   UNL     1      33.356 -17.625 -22.959  0.00  0.00    +0.144 HD
ENDBRANCH  11  14
ENDBRANCH   8  11
ENDBRANCH   3   5
BRANCH   2  17
ATOM     17  C   UNL     1      32.980 -23.276 -16.189  0.00  0.00    +0.091 C 
BRANCH  17  18
ATOM     18  C   UNL     1      33.420 -23.000 -14.744  0.00  0.00    +0.040 C 
ATOM     19  C   UNL     1      34.675 -22.121 -14.709  0.00  0.00    +0.004 C 
BRANCH  18  20
ATOM     20  C   UNL     1      33.616 -24.316 -13.965  0.00  0.00    +0.097 C 
BRANCH  20  21
ATOM     21  N   UNL     1      34.757 -24.296 -13.053  0.00  0.00    -0.286 N 
ATOM     22  C   UNL     1      36.022 -24.713 -13.367  0.00  0.00    +0.052 C 
ATOM     23  C   UNL     1      36.801 -24.525 -12.222  0.00  0.00    +0.015 C 
ATOM     24  C   UNL     1      34.692 -23.854 -11.767  0.00  0.00    +0.065 C 
ATOM     25  C   UNL     1      35.948 -23.983 -11.221  0.00  0.00    +0.017 C 
ATOM     26  C   UNL     1      36.542 -25.235 -14.556  0.00  0.00    +0.015 C 
ATOM     27  C   UNL     1      38.165 -24.876 -12.265  0.00  0.00    +0.001 C 
ATOM     28  C   UNL     1      37.898 -25.576 -14.575  0.00  0.00    +0.001 C 
ATOM     29  C   UNL     1      38.699 -25.400 -13.448  0.00  0.00    +0.000 C 
ENDBRANCH  20  21
ENDBRANCH  18  20
ENDBRANCH  17  18
ENDBRANCH   2  17
TORSDOF 7
ENDMDL
