MODEL 1
REMARK VINA RESULT:     -12.2      0.000      0.000
REMARK  Name = 21389
REMARK  4 active torsions:
REMARK  status: ('A' for Active; 'I' for Inactive)
REMARK    1  A    between atoms: N_2  and  C_9
REMARK    2  A    between atoms: N_3  and  C_21
REMARK    3  A    between atoms: C_7  and  C_16
REMARK    4  A    between atoms: C_19  and  C_28
REMARK                            x       y       z     vdW  Elec       q    Type
REMARK                         _______ _______ _______ _____ _____    ______ ____
ROOT
ATOM      1  O   UNL     1      33.114 -20.144 -19.866  0.00  0.00    -0.252 OA
ATOM      2  N   UNL     1      35.128 -20.843 -18.893  0.00  0.00    -0.268 N 
ATOM      3  N   UNL     1      35.170 -19.387 -20.685  0.00  0.00    -0.268 N 
ATOM      4  C   UNL     1      34.341 -20.123 -19.823  0.00  0.00    +0.308 C 
ATOM      5  H   UNL     1      36.102 -20.730 -18.979  0.00  0.00    +0.156 HD
ATOM      6  H   UNL     1      36.137 -19.471 -20.528  0.00  0.00    +0.156 HD
ENDROOT
BRANCH   2   9
ATOM      7  C   UNL     1      35.164 -22.880 -15.816  0.00  0.00    +0.033 C 
ATOM      8  C   UNL     1      35.583 -22.028 -16.837  0.00  0.00    +0.017 C 
ATOM      9  C   UNL     1      34.707 -21.693 -17.869  0.00  0.00    +0.052 C 
ATOM     10  C   UNL     1      33.869 -23.399 -15.826  0.00  0.00    +0.003 C 
ATOM     11  C   UNL     1      33.412 -22.211 -17.881  0.00  0.00    +0.015 C 
ATOM     12  C   UNL     1      32.993 -23.064 -16.859  0.00  0.00    +0.001 C 
BRANCH   7  16
ATOM     13  N   UNL     1      37.150 -24.052 -14.926  0.00  0.00    -0.296 N 
ATOM     14  N   UNL     1      35.921 -22.772 -13.517  0.00  0.00    -0.228 NA
ATOM     15  C   UNL     1      37.879 -24.219 -13.705  0.00  0.00    +0.084 C 
ATOM     16  C   UNL     1      36.076 -23.229 -14.737  0.00  0.00    +0.132 C 
ATOM     17  C   UNL     1      37.049 -23.366 -12.742  0.00  0.00    +0.116 C 
ATOM     18  H   UNL     1      37.390 -24.472 -15.783  0.00  0.00    +0.154 HD
ENDBRANCH   7  16
ENDBRANCH   2   9
BRANCH   3  21
ATOM     19  C   UNL     1      34.219 -16.351 -22.558  0.00  0.00    +0.033 C 
ATOM     20  C   UNL     1      34.600 -17.187 -21.508  0.00  0.00    +0.017 C 
ATOM     21  C   UNL     1      34.784 -18.539 -21.750  0.00  0.00    +0.052 C 
ATOM     22  C   UNL     1      34.028 -16.879 -23.835  0.00  0.00    +0.003 C 
ATOM     23  C   UNL     1      34.599 -19.077 -23.013  0.00  0.00    +0.015 C 
ATOM     24  C   UNL     1      34.218 -18.242 -24.063  0.00  0.00    +0.001 C 
BRANCH  19  28
ATOM     25  N   UNL     1      33.797 -14.045 -23.338  0.00  0.00    -0.296 N 
ATOM     26  N   UNL     1      34.048 -14.413 -21.117  0.00  0.00    -0.228 NA
ATOM     27  C   UNL     1      33.631 -12.719 -22.824  0.00  0.00    +0.084 C 
ATOM     28  C   UNL     1      34.022 -14.930 -22.321  0.00  0.00    +0.132 C 
ATOM     29  C   UNL     1      33.810 -12.955 -21.322  0.00  0.00    +0.116 C 
ATOM     30  H   UNL     1      33.754 -14.286 -24.291  0.00  0.00    +0.154 HD
ENDBRANCH  19  28
ENDBRANCH   3  21
TORSDOF 4
ENDMDL
MODEL 2
REMARK VINA RESULT:     -12.2      0.013      9.832
REMARK  Name = 21389
REMARK  4 active torsions:
REMARK  status: ('A' for Active; 'I' for Inactive)
REMARK    1  A    between atoms: N_2  and  C_9
REMARK    2  A    between atoms: N_3  and  C_21
REMARK    3  A    between atoms: C_7  and  C_16
REMARK    4  A    between atoms: C_19  and  C_28
REMARK                            x       y       z     vdW  Elec       q    Type
REMARK                         _______ _______ _______ _____ _____    ______ ____
ROOT
ATOM      1  O   UNL     1      33.117 -20.159 -19.859  0.00  0.00    -0.252 OA
ATOM      2  N   UNL     1      35.165 -19.384 -20.690  0.00  0.00    -0.268 N 
ATOM      3  N   UNL     1      35.137 -20.839 -18.897  0.00  0.00    -0.268 N 
ATOM      4  C   UNL     1      34.343 -20.134 -19.815  0.00  0.00    +0.308 C 
ATOM      5  H   UNL     1      36.135 -19.459 -20.536  0.00  0.00    +0.156 HD
ATOM      6  H   UNL     1      36.110 -20.718 -18.986  0.00  0.00    +0.156 HD
ENDROOT
BRANCH   2   9
ATOM      7  C   UNL     1      34.216 -16.351 -22.568  0.00  0.00    +0.033 C 
ATOM      8  C   UNL     1      34.598 -17.185 -21.517  0.00  0.00    +0.017 C 
ATOM      9  C   UNL     1      34.785 -18.549 -21.742  0.00  0.00    +0.052 C 
ATOM     10  C   UNL     1      34.020 -16.881 -23.843  0.00  0.00    +0.003 C 
ATOM     11  C   UNL     1      34.589 -19.079 -23.017  0.00  0.00    +0.015 C 
ATOM     12  C   UNL     1      34.207 -18.244 -24.068  0.00  0.00    +0.001 C 
BRANCH   7  16
ATOM     13  N   UNL     1      33.809 -14.043 -23.353  0.00  0.00    -0.296 N 
ATOM     14  N   UNL     1      34.040 -14.410 -21.129  0.00  0.00    -0.228 NA
ATOM     15  C   UNL     1      33.644 -12.716 -22.841  0.00  0.00    +0.084 C 
ATOM     16  C   UNL     1      34.022 -14.928 -22.334  0.00  0.00    +0.132 C 
ATOM     17  C   UNL     1      33.810 -12.951 -21.338  0.00  0.00    +0.116 C 
ATOM     18  H   UNL     1      33.774 -14.285 -24.306  0.00  0.00    +0.154 HD
ENDBRANCH   7  16
ENDBRANCH   2   9
BRANCH   3  21
ATOM     19  C   UNL     1      35.173 -22.877 -15.820  0.00  0.00    +0.033 C 
ATOM     20  C   UNL     1      35.593 -22.026 -16.842  0.00  0.00    +0.017 C 
ATOM     21  C   UNL     1      34.711 -21.701 -17.860  0.00  0.00    +0.052 C 
ATOM     22  C   UNL     1      33.876 -23.393 -15.831  0.00  0.00    +0.003 C 
ATOM     23  C   UNL     1      33.420 -22.205 -17.884  0.00  0.00    +0.015 C 
ATOM     24  C   UNL     1      33.000 -23.056 -16.862  0.00  0.00    +0.001 C 
BRANCH  19  28
ATOM     25  N   UNL     1      37.155 -24.057 -14.933  0.00  0.00    -0.296 N 
ATOM     26  N   UNL     1      35.936 -22.768 -13.524  0.00  0.00    -0.228 NA
ATOM     27  C   UNL     1      37.885 -24.225 -13.713  0.00  0.00    +0.084 C 
ATOM     28  C   UNL     1      36.086 -23.228 -14.743  0.00  0.00    +0.132 C 
ATOM     29  C   UNL     1      37.062 -23.365 -12.750  0.00  0.00    +0.116 C 
ATOM     30  H   UNL     1      37.391 -24.480 -15.790  0.00  0.00    +0.154 HD
ENDBRANCH  19  28
ENDBRANCH   3  21
TORSDOF 4
ENDMDL
MODEL 3
REMARK VINA RESULT:     -11.9      1.568      2.610
REMARK  Name = 21389
REMARK  4 active torsions:
REMARK  status: ('A' for Active; 'I' for Inactive)
REMARK    1  A    between atoms: N_2  and  C_9
REMARK    2  A    between atoms: N_3  and  C_21
REMARK    3  A    between atoms: C_7  and  C_16
REMARK    4  A    between atoms: C_19  and  C_28
REMARK                            x       y       z     vdW  Elec       q    Type
REMARK                         _______ _______ _______ _____ _____    ______ ____
ROOT
ATOM      1  O   UNL     1      34.321 -20.852 -19.084  0.00  0.00    -0.252 OA
ATOM      2  N   UNL     1      36.389 -20.726 -17.989  0.00  0.00    -0.268 N 
ATOM      3  N   UNL     1      36.008 -19.432 -19.864  0.00  0.00    -0.268 N 
ATOM      4  C   UNL     1      35.452 -20.383 -18.993  0.00  0.00    +0.308 C 
ATOM      5  H   UNL     1      37.259 -20.269 -18.043  0.00  0.00    +0.156 HD
ATOM      6  H   UNL     1      36.929 -19.150 -19.662  0.00  0.00    +0.156 HD
ENDROOT
BRANCH   2   9
ATOM      7  C   UNL     1      34.826 -22.920 -15.465  0.00  0.00    +0.033 C 
ATOM      8  C   UNL     1      34.971 -22.021 -16.522  0.00  0.00    +0.017 C 
ATOM      9  C   UNL     1      36.244 -21.628 -16.934  0.00  0.00    +0.052 C 
ATOM     10  C   UNL     1      35.955 -23.426 -14.820  0.00  0.00    +0.003 C 
ATOM     11  C   UNL     1      37.373 -22.134 -16.289  0.00  0.00    +0.015 C 
ATOM     12  C   UNL     1      37.228 -23.034 -15.232  0.00  0.00    +0.001 C 
BRANCH   7  16
ATOM     13  N   UNL     1      33.302 -24.193 -13.994  0.00  0.00    -0.296 N 
ATOM     14  N   UNL     1      32.409 -22.896 -15.624  0.00  0.00    -0.228 NA
ATOM     15  C   UNL     1      31.903 -24.418 -13.783  0.00  0.00    +0.084 C 
ATOM     16  C   UNL     1      33.498 -23.331 -15.035  0.00  0.00    +0.132 C 
ATOM     17  C   UNL     1      31.290 -23.554 -14.888  0.00  0.00    +0.116 C 
ATOM     18  H   UNL     1      34.022 -24.603 -13.463  0.00  0.00    +0.154 HD
ENDBRANCH   7  16
ENDBRANCH   2   9
BRANCH   3  21
ATOM     19  C   UNL     1      34.536 -16.876 -22.083  0.00  0.00    +0.033 C 
ATOM     20  C   UNL     1      35.130 -17.471 -20.970  0.00  0.00    +0.017 C 
ATOM     21  C   UNL     1      35.407 -18.829 -20.993  0.00  0.00    +0.052 C 
ATOM     22  C   UNL     1      34.227 -17.648 -23.205  0.00  0.00    +0.003 C 
ATOM     23  C   UNL     1      35.107 -19.607 -22.099  0.00  0.00    +0.015 C 
ATOM     24  C   UNL     1      34.513 -19.013 -23.212  0.00  0.00    +0.001 C 
BRANCH  19  28
ATOM     25  N   UNL     1      34.091 -14.731 -23.227  0.00  0.00    -0.296 N 
ATOM     26  N   UNL     1      34.095 -14.776 -20.962  0.00  0.00    -0.228 NA
ATOM     27  C   UNL     1      33.797 -13.362 -22.929  0.00  0.00    +0.084 C 
ATOM     28  C   UNL     1      34.239 -15.453 -22.076  0.00  0.00    +0.132 C 
ATOM     29  C   UNL     1      33.808 -13.379 -21.399  0.00  0.00    +0.116 C 
ATOM     30  H   UNL     1      34.175 -15.102 -24.135  0.00  0.00    +0.154 HD
ENDBRANCH  19  28
ENDBRANCH   3  21
TORSDOF 4
ENDMDL
MODEL 4
REMARK VINA RESULT:     -11.9      1.571      9.635
REMARK  Name = 21389
REMARK  4 active torsions:
REMARK  status: ('A' for Active; 'I' for Inactive)
REMARK    1  A    between atoms: N_2  and  C_9
REMARK    2  A    between atoms: N_3  and  C_21
REMARK    3  A    between atoms: C_7  and  C_16
REMARK    4  A    between atoms: C_19  and  C_28
REMARK                            x       y       z     vdW  Elec       q    Type
REMARK                         _______ _______ _______ _____ _____    ______ ____
ROOT
ATOM      1  O   UNL     1      34.361 -20.875 -19.078  0.00  0.00    -0.252 OA
ATOM      2  N   UNL     1      36.031 -19.428 -19.855  0.00  0.00    -0.268 N 
ATOM      3  N   UNL     1      36.419 -20.717 -17.978  0.00  0.00    -0.268 N 
ATOM      4  C   UNL     1      35.486 -20.395 -18.977  0.00  0.00    +0.308 C 
ATOM      5  H   UNL     1      36.948 -19.131 -19.648  0.00  0.00    +0.156 HD
ATOM      6  H   UNL     1      37.282 -20.247 -18.027  0.00  0.00    +0.156 HD
ENDROOT
BRANCH   2   9
ATOM      7  C   UNL     1      34.559 -16.882 -22.085  0.00  0.00    +0.033 C 
ATOM      8  C   UNL     1      35.149 -17.473 -20.968  0.00  0.00    +0.017 C 
ATOM      9  C   UNL     1      35.443 -18.836 -20.974  0.00  0.00    +0.052 C 
ATOM     10  C   UNL     1      34.263 -17.654 -23.209  0.00  0.00    +0.003 C 
ATOM     11  C   UNL     1      35.148 -19.609 -22.097  0.00  0.00    +0.015 C 
ATOM     12  C   UNL     1      34.557 -19.018 -23.215  0.00  0.00    +0.001 C 
BRANCH   7  16
ATOM     13  N   UNL     1      34.102 -14.741 -23.232  0.00  0.00    -0.296 N 
ATOM     14  N   UNL     1      34.101 -14.782 -20.966  0.00  0.00    -0.228 NA
ATOM     15  C   UNL     1      33.799 -13.373 -22.937  0.00  0.00    +0.084 C 
ATOM     16  C   UNL     1      34.252 -15.460 -22.080  0.00  0.00    +0.132 C 
ATOM     17  C   UNL     1      33.807 -13.388 -21.406  0.00  0.00    +0.116 C 
ATOM     18  H   UNL     1      34.191 -15.112 -24.139  0.00  0.00    +0.154 HD
ENDBRANCH   7  16
ENDBRANCH   2   9
BRANCH   3  21
ATOM     19  C   UNL     1      34.852 -22.919 -15.464  0.00  0.00    +0.033 C 
ATOM     20  C   UNL     1      34.998 -22.015 -16.516  0.00  0.00    +0.017 C 
ATOM     21  C   UNL     1      36.270 -21.634 -16.912  0.00  0.00    +0.052 C 
ATOM     22  C   UNL     1      35.981 -23.430 -14.822  0.00  0.00    +0.003 C 
ATOM     23  C   UNL     1      37.400 -22.134 -16.285  0.00  0.00    +0.015 C 
ATOM     24  C   UNL     1      37.255 -23.038 -15.233  0.00  0.00    +0.001 C 
BRANCH  19  28
ATOM     25  N   UNL     1      33.327 -24.203 -14.004  0.00  0.00    -0.296 N 
ATOM     26  N   UNL     1      32.435 -22.884 -15.617  0.00  0.00    -0.228 NA
ATOM     27  C   UNL     1      31.928 -24.425 -13.793  0.00  0.00    +0.084 C 
ATOM     28  C   UNL     1      33.524 -23.329 -15.036  0.00  0.00    +0.132 C 
ATOM     29  C   UNL     1      31.316 -23.545 -14.886  0.00  0.00    +0.116 C 
ATOM     30  H   UNL     1      34.046 -24.621 -13.479  0.00  0.00    +0.154 HD
ENDBRANCH  19  28
ENDBRANCH   3  21
TORSDOF 4
ENDMDL
MODEL 5
REMARK VINA RESULT:     -11.7      2.317      3.702
REMARK  Name = 21389
REMARK  4 active torsions:
REMARK  status: ('A' for Active; 'I' for Inactive)
REMARK    1  A    between atoms: N_2  and  C_9
REMARK    2  A    between atoms: N_3  and  C_21
REMARK    3  A    between atoms: C_7  and  C_16
REMARK    4  A    between atoms: C_19  and  C_28
REMARK                            x       y       z     vdW  Elec       q    Type
REMARK                         _______ _______ _______ _____ _____    ______ ____
ROOT
ATOM      1  O   UNL     1      32.663 -20.091 -19.516  0.00  0.00    -0.252 OA
ATOM      2  N   UNL     1      34.451 -21.358 -18.685  0.00  0.00    -0.268 N 
ATOM      3  N   UNL     1      34.771 -19.996 -20.524  0.00  0.00    -0.268 N 
ATOM      4  C   UNL     1      33.838 -20.441 -19.574  0.00  0.00    +0.308 C 
ATOM      5  H   UNL     1      35.403 -21.545 -18.855  0.00  0.00    +0.156 HD
ATOM      6  H   UNL     1      35.679 -20.367 -20.443  0.00  0.00    +0.156 HD
ENDROOT
BRANCH   2   9
ATOM      7  C   UNL     1      31.934 -22.802 -16.405  0.00  0.00    +0.033 C 
ATOM      8  C   UNL     1      32.499 -22.129 -17.488  0.00  0.00    +0.017 C 
ATOM      9  C   UNL     1      33.886 -22.033 -17.603  0.00  0.00    +0.052 C 
ATOM     10  C   UNL     1      32.756 -23.380 -15.436  0.00  0.00    +0.003 C 
ATOM     11  C   UNL     1      34.708 -22.610 -16.635  0.00  0.00    +0.015 C 
ATOM     12  C   UNL     1      34.142 -23.284 -15.551  0.00  0.00    +0.001 C 
BRANCH   7  16
ATOM     13  N   UNL     1      29.882 -23.906 -15.582  0.00  0.00    -0.296 N 
ATOM     14  N   UNL     1      29.678 -22.036 -16.846  0.00  0.00    -0.228 NA
ATOM     15  C   UNL     1      28.458 -23.760 -15.621  0.00  0.00    +0.084 C 
ATOM     16  C   UNL     1      30.488 -22.904 -16.285  0.00  0.00    +0.132 C 
ATOM     17  C   UNL     1      28.309 -22.504 -16.484  0.00  0.00    +0.116 C 
ATOM     18  H   UNL     1      30.358 -24.628 -15.113  0.00  0.00    +0.154 HD
ENDBRANCH   7  16
ENDBRANCH   2   9
BRANCH   3  21
ATOM     19  C   UNL     1      34.243 -16.826 -22.340  0.00  0.00    +0.033 C 
ATOM     20  C   UNL     1      34.446 -17.730 -21.297  0.00  0.00    +0.017 C 
ATOM     21  C   UNL     1      34.566 -19.080 -21.582  0.00  0.00    +0.052 C 
ATOM     22  C   UNL     1      34.164 -17.287 -23.655  0.00  0.00    +0.003 C 
ATOM     23  C   UNL     1      34.490 -19.552 -22.883  0.00  0.00    +0.015 C 
ATOM     24  C   UNL     1      34.288 -18.649 -23.926  0.00  0.00    +0.001 C 
BRANCH  19  28
ATOM     25  N   UNL     1      33.972 -14.474 -23.048  0.00  0.00    -0.296 N 
ATOM     26  N   UNL     1      34.130 -14.933 -20.835  0.00  0.00    -0.228 NA
ATOM     27  C   UNL     1      33.861 -13.160 -22.491  0.00  0.00    +0.084 C 
ATOM     28  C   UNL     1      34.115 -15.406 -22.058  0.00  0.00    +0.132 C 
ATOM     29  C   UNL     1      33.978 -13.458 -20.994  0.00  0.00    +0.116 C 
ATOM     30  H   UNL     1      33.948 -14.679 -24.010  0.00  0.00    +0.154 HD
ENDBRANCH  19  28
ENDBRANCH   3  21
TORSDOF 4
ENDMDL
MODEL 6
REMARK VINA RESULT:     -11.6      2.313      9.411
REMARK  Name = 21389
REMARK  4 active torsions:
REMARK  status: ('A' for Active; 'I' for Inactive)
REMARK    1  A    between atoms: N_2  and  C_9
REMARK    2  A    between atoms: N_3  and  C_21
REMARK    3  A    between atoms: C_7  and  C_16
REMARK    4  A    between atoms: C_19  and  C_28
REMARK                            x       y       z     vdW  Elec       q    Type
REMARK                         _______ _______ _______ _____ _____    ______ ____
ROOT
ATOM      1  O   UNL     1      32.673 -20.064 -19.494  0.00  0.00    -0.252 OA
ATOM      2  N   UNL     1      34.765 -19.996 -20.547  0.00  0.00    -0.268 N 
ATOM      3  N   UNL     1      34.456 -21.356 -18.705  0.00  0.00    -0.268 N 
ATOM      4  C   UNL     1      33.840 -20.437 -19.569  0.00  0.00    +0.308 C 
ATOM      5  H   UNL     1      35.670 -20.380 -20.483  0.00  0.00    +0.156 HD
ATOM      6  H   UNL     1      35.401 -21.556 -18.892  0.00  0.00    +0.156 HD
ENDROOT
BRANCH   2   9
ATOM      7  C   UNL     1      34.242 -16.819 -22.351  0.00  0.00    +0.033 C 
ATOM      8  C   UNL     1      34.443 -17.726 -21.311  0.00  0.00    +0.017 C 
ATOM      9  C   UNL     1      34.567 -19.088 -21.588  0.00  0.00    +0.052 C 
ATOM     10  C   UNL     1      34.166 -17.273 -23.668  0.00  0.00    +0.003 C 
ATOM     11  C   UNL     1      34.491 -19.542 -22.904  0.00  0.00    +0.015 C 
ATOM     12  C   UNL     1      34.290 -18.634 -23.945  0.00  0.00    +0.001 C 
BRANCH   7  16
ATOM     13  N   UNL     1      33.974 -14.464 -23.050  0.00  0.00    -0.296 N 
ATOM     14  N   UNL     1      34.123 -14.931 -20.837  0.00  0.00    -0.228 NA
ATOM     15  C   UNL     1      33.861 -13.151 -22.488  0.00  0.00    +0.084 C 
ATOM     16  C   UNL     1      34.113 -15.399 -22.064  0.00  0.00    +0.132 C 
ATOM     17  C   UNL     1      33.973 -13.455 -20.991  0.00  0.00    +0.116 C 
ATOM     18  H   UNL     1      33.955 -14.664 -24.013  0.00  0.00    +0.154 HD
ENDBRANCH   7  16
ENDBRANCH   2   9
BRANCH   3  21
ATOM     19  C   UNL     1      31.941 -22.787 -16.413  0.00  0.00    +0.033 C 
ATOM     20  C   UNL     1      32.505 -22.124 -17.503  0.00  0.00    +0.017 C 
ATOM     21  C   UNL     1      33.884 -22.030 -17.601  0.00  0.00    +0.052 C 
ATOM     22  C   UNL     1      32.765 -23.349 -15.436  0.00  0.00    +0.003 C 
ATOM     23  C   UNL     1      34.715 -22.583 -16.639  0.00  0.00    +0.015 C 
ATOM     24  C   UNL     1      34.151 -23.247 -15.550  0.00  0.00    +0.001 C 
BRANCH  19  28
ATOM     25  N   UNL     1      29.893 -23.907 -15.603  0.00  0.00    -0.296 N 
ATOM     26  N   UNL     1      29.684 -22.025 -16.847  0.00  0.00    -0.228 NA
ATOM     27  C   UNL     1      28.469 -23.766 -15.643  0.00  0.00    +0.084 C 
ATOM     28  C   UNL     1      30.496 -22.895 -16.295  0.00  0.00    +0.132 C 
ATOM     29  C   UNL     1      28.316 -22.501 -16.492  0.00  0.00    +0.116 C 
ATOM     30  H   UNL     1      30.372 -24.632 -15.141  0.00  0.00    +0.154 HD
ENDBRANCH  19  28
ENDBRANCH   3  21
TORSDOF 4
ENDMDL
MODEL 7
REMARK VINA RESULT:     -11.5      2.237      4.537
REMARK  Name = 21389
REMARK  4 active torsions:
REMARK  status: ('A' for Active; 'I' for Inactive)
REMARK    1  A    between atoms: N_2  and  C_9
REMARK    2  A    between atoms: N_3  and  C_21
REMARK    3  A    between atoms: C_7  and  C_16
REMARK    4  A    between atoms: C_19  and  C_28
REMARK                            x       y       z     vdW  Elec       q    Type
REMARK                         _______ _______ _______ _____ _____    ______ ____
ROOT
ATOM      1  O   UNL     1      35.038 -22.755 -16.248  0.00  0.00    -0.252 OA
ATOM      2  N   UNL     1      37.368 -22.517 -16.270  0.00  0.00    -0.268 N 
ATOM      3  N   UNL     1      36.103 -21.532 -17.933  0.00  0.00    -0.268 N 
ATOM      4  C   UNL     1      36.058 -22.312 -16.766  0.00  0.00    +0.308 C 
ATOM      5  H   UNL     1      38.093 -22.102 -16.792  0.00  0.00    +0.156 HD
ATOM      6  H   UNL     1      36.998 -21.250 -18.228  0.00  0.00    +0.156 HD
ENDROOT
BRANCH   2   9
ATOM      7  C   UNL     1      37.407 -23.900 -12.849  0.00  0.00    +0.033 C 
ATOM      8  C   UNL     1      37.003 -23.188 -13.978  0.00  0.00    +0.017 C 
ATOM      9  C   UNL     1      37.771 -23.231 -15.141  0.00  0.00    +0.052 C 
ATOM     10  C   UNL     1      38.579 -24.655 -12.882  0.00  0.00    +0.003 C 
ATOM     11  C   UNL     1      38.944 -23.986 -15.175  0.00  0.00    +0.015 C 
ATOM     12  C   UNL     1      39.348 -24.698 -14.045  0.00  0.00    +0.001 C 
BRANCH   7  16
ATOM     13  N   UNL     1      36.527 -22.740 -10.851  0.00  0.00    -0.296 N 
ATOM     14  N   UNL     1      35.908 -24.889 -11.222  0.00  0.00    -0.228 NA
ATOM     15  C   UNL     1      35.667 -22.972  -9.729  0.00  0.00    +0.084 C 
ATOM     16  C   UNL     1      36.605 -23.856 -11.635  0.00  0.00    +0.132 C 
ATOM     17  C   UNL     1      35.252 -24.426  -9.965  0.00  0.00    +0.116 C 
ATOM     18  H   UNL     1      36.997 -21.895 -11.031  0.00  0.00    +0.154 HD
ENDBRANCH   7  16
ENDBRANCH   2   9
BRANCH   3  21
ATOM     19  C   UNL     1      34.153 -19.664 -20.449  0.00  0.00    +0.033 C 
ATOM     20  C   UNL     1      35.221 -20.089 -19.659  0.00  0.00    +0.017 C 
ATOM     21  C   UNL     1      35.020 -21.101 -18.734  0.00  0.00    +0.052 C 
ATOM     22  C   UNL     1      32.898 -20.256 -20.302  0.00  0.00    +0.003 C 
ATOM     23  C   UNL     1      33.780 -21.698 -18.577  0.00  0.00    +0.015 C 
ATOM     24  C   UNL     1      32.712 -21.273 -19.366  0.00  0.00    +0.001 C 
BRANCH  19  28
ATOM     25  N   UNL     1      34.821 -17.370 -21.079  0.00  0.00    -0.296 N 
ATOM     26  N   UNL     1      34.076 -18.769 -22.698  0.00  0.00    -0.228 NA
ATOM     27  C   UNL     1      34.920 -16.526 -22.232  0.00  0.00    +0.084 C 
ATOM     28  C   UNL     1      34.346 -18.604 -21.425  0.00  0.00    +0.132 C 
ATOM     29  C   UNL     1      34.407 -17.460 -23.331  0.00  0.00    +0.116 C 
ATOM     30  H   UNL     1      35.063 -17.099 -20.164  0.00  0.00    +0.154 HD
ENDBRANCH  19  28
ENDBRANCH   3  21
TORSDOF 4
ENDMDL
MODEL 8
REMARK VINA RESULT:     -11.5      2.235     10.233
REMARK  Name = 21389
REMARK  4 active torsions:
REMARK  status: ('A' for Active; 'I' for Inactive)
REMARK    1  A    between atoms: N_2  and  C_9
REMARK    2  A    between atoms: N_3  and  C_21
REMARK    3  A    between atoms: C_7  and  C_16
REMARK    4  A    between atoms: C_19  and  C_28
REMARK                            x       y       z     vdW  Elec       q    Type
REMARK                         _______ _______ _______ _____ _____    ______ ____
ROOT
ATOM      1  O   UNL     1      35.045 -22.768 -16.237  0.00  0.00    -0.252 OA
ATOM      2  N   UNL     1      36.099 -21.535 -17.928  0.00  0.00    -0.268 N 
ATOM      3  N   UNL     1      37.371 -22.520 -16.271  0.00  0.00    -0.268 N 
ATOM      4  C   UNL     1      36.067 -22.324 -16.753  0.00  0.00    +0.308 C 
ATOM      5  H   UNL     1      36.993 -21.248 -18.226  0.00  0.00    +0.156 HD
ATOM      6  H   UNL     1      38.092 -22.101 -16.793  0.00  0.00    +0.156 HD
ENDROOT
BRANCH   2   9
ATOM      7  C   UNL     1      34.157 -19.659 -20.444  0.00  0.00    +0.033 C 
ATOM      8  C   UNL     1      35.223 -20.088 -19.654  0.00  0.00    +0.017 C 
ATOM      9  C   UNL     1      35.033 -21.107 -18.720  0.00  0.00    +0.052 C 
ATOM     10  C   UNL     1      32.900 -20.247 -20.300  0.00  0.00    +0.003 C 
ATOM     11  C   UNL     1      33.777 -21.696 -18.576  0.00  0.00    +0.015 C 
ATOM     12  C   UNL     1      32.710 -21.266 -19.366  0.00  0.00    +0.001 C 
BRANCH   7  16
ATOM     13  N   UNL     1      34.802 -17.355 -21.066  0.00  0.00    -0.296 N 
ATOM     14  N   UNL     1      34.113 -18.770 -22.697  0.00  0.00    -0.228 NA
ATOM     15  C   UNL     1      34.911 -16.513 -22.219  0.00  0.00    +0.084 C 
ATOM     16  C   UNL     1      34.354 -18.597 -21.419  0.00  0.00    +0.132 C 
ATOM     17  C   UNL     1      34.436 -17.457 -23.327  0.00  0.00    +0.116 C 
ATOM     18  H   UNL     1      35.018 -17.078 -20.147  0.00  0.00    +0.154 HD
ENDBRANCH   7  16
ENDBRANCH   2   9
BRANCH   3  21
ATOM     19  C   UNL     1      37.402 -23.908 -12.850  0.00  0.00    +0.033 C 
ATOM     20  C   UNL     1      37.003 -23.191 -13.979  0.00  0.00    +0.017 C 
ATOM     21  C   UNL     1      37.776 -23.248 -15.127  0.00  0.00    +0.052 C 
ATOM     22  C   UNL     1      38.570 -24.671 -12.886  0.00  0.00    +0.003 C 
ATOM     23  C   UNL     1      38.937 -24.002 -15.178  0.00  0.00    +0.015 C 
ATOM     24  C   UNL     1      39.336 -24.718 -14.051  0.00  0.00    +0.001 C 
BRANCH  19  28
ATOM     25  N   UNL     1      36.523 -22.739 -10.858  0.00  0.00    -0.296 N 
ATOM     26  N   UNL     1      35.909 -24.890 -11.216  0.00  0.00    -0.228 NA
ATOM     27  C   UNL     1      35.665 -22.966  -9.734  0.00  0.00    +0.084 C 
ATOM     28  C   UNL     1      36.602 -23.859 -11.637  0.00  0.00    +0.132 C 
ATOM     29  C   UNL     1      35.253 -24.423  -9.962  0.00  0.00    +0.116 C 
ATOM     30  H   UNL     1      36.990 -21.893 -11.045  0.00  0.00    +0.154 HD
ENDBRANCH  19  28
ENDBRANCH   3  21
TORSDOF 4
ENDMDL
MODEL 9
REMARK VINA RESULT:     -10.8      2.072      2.974
REMARK  Name = 21389
REMARK  4 active torsions:
REMARK  status: ('A' for Active; 'I' for Inactive)
REMARK    1  A    between atoms: N_2  and  C_9
REMARK    2  A    between atoms: N_3  and  C_21
REMARK    3  A    between atoms: C_7  and  C_16
REMARK    4  A    between atoms: C_19  and  C_28
REMARK                            x       y       z     vdW  Elec       q    Type
REMARK                         _______ _______ _______ _____ _____    ______ ____
ROOT
ATOM      1  O   UNL     1      35.255 -21.153 -17.698  0.00  0.00    -0.252 OA
ATOM      2  N   UNL     1      33.121 -22.115 -17.808  0.00  0.00    -0.268 N 
ATOM      3  N   UNL     1      33.860 -20.774 -19.537  0.00  0.00    -0.268 N 
ATOM      4  C   UNL     1      34.193 -21.326 -18.290  0.00  0.00    +0.308 C 
ATOM      5  H   UNL     1      32.329 -22.162 -18.391  0.00  0.00    +0.156 HD
ATOM      6  H   UNL     1      32.969 -21.003 -19.886  0.00  0.00    +0.156 HD
ENDROOT
BRANCH   2   9
ATOM      7  C   UNL     1      34.046 -24.291 -14.974  0.00  0.00    +0.033 C 
ATOM      8  C   UNL     1      34.132 -23.570 -16.164  0.00  0.00    +0.017 C 
ATOM      9  C   UNL     1      33.036 -22.835 -16.615  0.00  0.00    +0.052 C 
ATOM     10  C   UNL     1      32.863 -24.278 -14.233  0.00  0.00    +0.003 C 
ATOM     11  C   UNL     1      31.853 -22.821 -15.875  0.00  0.00    +0.015 C 
ATOM     12  C   UNL     1      31.767 -23.543 -14.684  0.00  0.00    +0.001 C 
BRANCH   7  16
ATOM     13  N   UNL     1      35.704 -24.903 -13.246  0.00  0.00    -0.296 N 
ATOM     14  N   UNL     1      35.794 -25.944 -15.257  0.00  0.00    -0.228 NA
ATOM     15  C   UNL     1      36.817 -25.782 -13.046  0.00  0.00    +0.084 C 
ATOM     16  C   UNL     1      35.189 -25.057 -14.502  0.00  0.00    +0.132 C 
ATOM     17  C   UNL     1      36.893 -26.483 -14.405  0.00  0.00    +0.116 C 
ATOM     18  H   UNL     1      35.359 -24.274 -12.573  0.00  0.00    +0.154 HD
ENDBRANCH   7  16
ENDBRANCH   2   9
BRANCH   3  21
ATOM     19  C   UNL     1      34.822 -18.387 -22.183  0.00  0.00    +0.033 C 
ATOM     20  C   UNL     1      34.044 -19.218 -21.376  0.00  0.00    +0.017 C 
ATOM     21  C   UNL     1      34.649 -19.931 -20.354  0.00  0.00    +0.052 C 
ATOM     22  C   UNL     1      36.195 -18.281 -21.956  0.00  0.00    +0.003 C 
ATOM     23  C   UNL     1      36.011 -19.836 -20.117  0.00  0.00    +0.015 C 
ATOM     24  C   UNL     1      36.789 -19.006 -20.923  0.00  0.00    +0.001 C 
BRANCH  19  28
ATOM     25  N   UNL     1      34.509 -16.322 -23.504  0.00  0.00    -0.296 N 
ATOM     26  N   UNL     1      33.310 -18.161 -24.062  0.00  0.00    -0.228 NA
ATOM     27  C   UNL     1      33.762 -15.829 -24.621  0.00  0.00    +0.084 C 
ATOM     28  C   UNL     1      34.202 -17.631 -23.260  0.00  0.00    +0.132 C 
ATOM     29  C   UNL     1      32.939 -17.063 -24.999  0.00  0.00    +0.116 C 
ATOM     30  H   UNL     1      35.156 -15.792 -22.984  0.00  0.00    +0.154 HD
ENDBRANCH  19  28
ENDBRANCH   3  21
TORSDOF 4
ENDMDL
