MODEL 1
REMARK VINA RESULT:     -12.7      0.000      0.000
REMARK  Name = 5287994
REMARK  8 active torsions:
REMARK  status: ('A' for Active; 'I' for Inactive)
REMARK    1  A    between atoms: C_5  and  O_19
REMARK    2  A    between atoms: C_5  and  C_21
REMARK    3  A    between atoms: C_8  and  C_30
REMARK    4  A    between atoms: C_10  and  C_11
REMARK    5  A    between atoms: C_16  and  O_17
REMARK    6  A    between atoms: C_21  and  C_22
REMARK    7  A    between atoms: C_27  and  O_28
REMARK    8  A    between atoms: C_30  and  C_31
REMARK                            x       y       z     vdW  Elec       q    Type
REMARK                         _______ _______ _______ _____ _____    ______ ____
ROOT
ATOM      1  O   UNL     1      34.209 -23.688 -10.617  0.00  0.00    -0.270 OA
ATOM      2  N   UNL     1      34.208 -23.250 -12.910  0.00  0.00    -0.232 N 
ATOM      3  N   UNL     1      36.388 -22.787 -13.303  0.00  0.00    -0.222 NA
ATOM      4  N   UNL     1      33.534 -22.810 -15.551  0.00  0.00    -0.406 NA
ATOM      5  C   UNL     1      36.247 -23.119 -11.853  0.00  0.00    +0.249 C 
ATOM      6  C   UNL     1      35.186 -22.900 -13.765  0.00  0.00    +0.162 C 
ATOM      7  C   UNL     1      34.755 -23.405 -11.672  0.00  0.00    +0.278 C 
ATOM      8  C   UNL     1      34.772 -22.672 -15.179  0.00  0.00    +0.144 C 
ATOM      9  C   UNL     1      32.913 -23.391 -13.304  0.00  0.00    +0.159 C 
ATOM     10  C   UNL     1      32.600 -23.179 -14.598  0.00  0.00    +0.129 C 
ENDROOT
BRANCH  10  11
ATOM     11  C   UNL     1      31.194 -23.316 -15.043  0.00  0.00    +0.027 C 
ATOM     12  C   UNL     1      30.675 -22.437 -15.994  0.00  0.00    +0.005 C 
ATOM     13  C   UNL     1      30.388 -24.322 -14.512  0.00  0.00    +0.005 C 
ATOM     14  C   UNL     1      29.350 -22.565 -16.413  0.00  0.00    +0.037 C 
ATOM     15  C   UNL     1      29.064 -24.452 -14.931  0.00  0.00    +0.037 C 
ATOM     16  C   UNL     1      28.545 -23.573 -15.881  0.00  0.00    +0.134 C 
BRANCH  16  17
ATOM     17  O   UNL     1      27.254 -23.698 -16.291  0.00  0.00    -0.506 OA
ATOM     18  H   UNL     1      26.639 -23.011 -16.125  0.00  0.00    +0.292 HD
ENDBRANCH  16  17
ENDBRANCH  10  11
BRANCH   5  19
ATOM     19  O   UNL     1      36.596 -22.090 -10.938  0.00  0.00    -0.361 OA
ATOM     20  H   UNL     1      35.789 -21.671 -10.600  0.00  0.00    +0.213 HD
ENDBRANCH   5  19
BRANCH   5  21
ATOM     21  C   UNL     1      37.072 -24.366 -11.562  0.00  0.00    +0.086 C 
BRANCH  21  22
ATOM     22  C   UNL     1      37.921 -24.761 -12.740  0.00  0.00    -0.017 C 
ATOM     23  C   UNL     1      37.505 -25.796 -13.566  0.00  0.00    -0.001 C 
ATOM     24  C   UNL     1      39.107 -24.082 -12.987  0.00  0.00    -0.001 C 
ATOM     25  C   UNL     1      38.291 -26.161 -14.660  0.00  0.00    +0.036 C 
ATOM     26  C   UNL     1      39.892 -24.446 -14.081  0.00  0.00    +0.036 C 
ATOM     27  C   UNL     1      39.484 -25.486 -14.916  0.00  0.00    +0.134 C 
BRANCH  27  28
ATOM     28  O   UNL     1      40.251 -25.843 -15.983  0.00  0.00    -0.506 OA
ATOM     29  H   UNL     1      40.651 -26.690 -16.010  0.00  0.00    +0.292 HD
ENDBRANCH  27  28
ENDBRANCH  21  22
ENDBRANCH   5  21
BRANCH   8  30
ATOM     30  C   UNL     1      35.834 -22.276 -16.159  0.00  0.00    +0.088 C 
BRANCH  30  31
ATOM     31  C   UNL     1      35.227 -21.808 -17.449  0.00  0.00    -0.015 C 
ATOM     32  C   UNL     1      35.998 -21.079 -18.348  0.00  0.00    -0.004 C 
ATOM     33  C   UNL     1      33.900 -22.108 -17.734  0.00  0.00    -0.004 C 
ATOM     34  C   UNL     1      35.433 -20.644 -19.547  0.00  0.00    -0.000 C 
ATOM     35  C   UNL     1      33.335 -21.673 -18.933  0.00  0.00    -0.000 C 
ATOM     36  C   UNL     1      34.102 -20.941 -19.840  0.00  0.00    -0.000 C 
ENDBRANCH  30  31
ENDBRANCH   8  30
TORSDOF 8
ENDMDL
MODEL 2
REMARK VINA RESULT:     -11.4      3.890      7.816
REMARK  Name = 5287994
REMARK  8 active torsions:
REMARK  status: ('A' for Active; 'I' for Inactive)
REMARK    1  A    between atoms: C_5  and  O_19
REMARK    2  A    between atoms: C_5  and  C_21
REMARK    3  A    between atoms: C_8  and  C_30
REMARK    4  A    between atoms: C_10  and  C_11
REMARK    5  A    between atoms: C_16  and  O_17
REMARK    6  A    between atoms: C_21  and  C_22
REMARK    7  A    between atoms: C_27  and  O_28
REMARK    8  A    between atoms: C_30  and  C_31
REMARK                            x       y       z     vdW  Elec       q    Type
REMARK                         _______ _______ _______ _____ _____    ______ ____
ROOT
ATOM      1  O   UNL     1      32.615 -20.577 -20.273  0.00  0.00    -0.270 OA
ATOM      2  N   UNL     1      33.817 -21.380 -18.440  0.00  0.00    -0.232 N 
ATOM      3  N   UNL     1      35.934 -20.775 -18.962  0.00  0.00    -0.222 NA
ATOM      4  N   UNL     1      34.633 -22.580 -16.090  0.00  0.00    -0.406 NA
ATOM      5  C   UNL     1      35.038 -20.290 -20.056  0.00  0.00    +0.249 C 
ATOM      6  C   UNL     1      35.128 -21.356 -18.137  0.00  0.00    +0.162 C 
ATOM      7  C   UNL     1      33.641 -20.747 -19.634  0.00  0.00    +0.278 C 
ATOM      8  C   UNL     1      35.518 -22.018 -16.859  0.00  0.00    +0.144 C 
ATOM      9  C   UNL     1      32.894 -21.971 -17.633  0.00  0.00    +0.159 C 
ATOM     10  C   UNL     1      33.306 -22.547 -16.486  0.00  0.00    +0.129 C 
ENDROOT
BRANCH  10  11
ATOM     11  C   UNL     1      32.318 -23.206 -15.602  0.00  0.00    +0.027 C 
ATOM     12  C   UNL     1      32.737 -23.817 -14.420  0.00  0.00    +0.005 C 
ATOM     13  C   UNL     1      30.967 -23.217 -15.950  0.00  0.00    +0.005 C 
ATOM     14  C   UNL     1      31.806 -24.438 -13.587  0.00  0.00    +0.037 C 
ATOM     15  C   UNL     1      30.036 -23.837 -15.117  0.00  0.00    +0.037 C 
ATOM     16  C   UNL     1      30.455 -24.448 -13.936  0.00  0.00    +0.134 C 
BRANCH  16  17
ATOM     17  O   UNL     1      29.548 -25.053 -13.122  0.00  0.00    -0.506 OA
ATOM     18  H   UNL     1      29.247 -25.919 -13.316  0.00  0.00    +0.292 HD
ENDBRANCH  16  17
ENDBRANCH  10  11
BRANCH   5  19
ATOM     19  O   UNL     1      35.286 -20.822 -21.349  0.00  0.00    -0.361 OA
ATOM     20  H   UNL     1      36.225 -21.053 -21.429  0.00  0.00    +0.213 HD
ENDBRANCH   5  19
BRANCH   5  21
ATOM     21  C   UNL     1      35.115 -18.769 -20.103  0.00  0.00    +0.086 C 
BRANCH  21  22
ATOM     22  C   UNL     1      34.698 -18.232 -21.445  0.00  0.00    -0.017 C 
ATOM     23  C   UNL     1      34.166 -19.095 -22.393  0.00  0.00    -0.001 C 
ATOM     24  C   UNL     1      34.849 -16.878 -21.718  0.00  0.00    -0.001 C 
ATOM     25  C   UNL     1      33.779 -18.597 -23.637  0.00  0.00    +0.036 C 
ATOM     26  C   UNL     1      34.461 -16.380 -22.961  0.00  0.00    +0.036 C 
ATOM     27  C   UNL     1      33.926 -17.240 -23.920  0.00  0.00    +0.134 C 
BRANCH  27  28
ATOM     28  O   UNL     1      33.549 -16.754 -25.135  0.00  0.00    -0.506 OA
ATOM     29  H   UNL     1      32.701 -16.367 -25.242  0.00  0.00    +0.292 HD
ENDBRANCH  27  28
ENDBRANCH  21  22
ENDBRANCH   5  21
BRANCH   8  30
ATOM     30  C   UNL     1      36.970 -22.016 -16.490  0.00  0.00    +0.088 C 
BRANCH  30  31
ATOM     31  C   UNL     1      37.197 -22.738 -15.195  0.00  0.00    -0.015 C 
ATOM     32  C   UNL     1      38.116 -23.780 -15.140  0.00  0.00    -0.004 C 
ATOM     33  C   UNL     1      36.487 -22.359 -14.061  0.00  0.00    -0.004 C 
ATOM     34  C   UNL     1      38.327 -24.452 -13.935  0.00  0.00    -0.000 C 
ATOM     35  C   UNL     1      36.698 -23.031 -12.857  0.00  0.00    -0.000 C 
ATOM     36  C   UNL     1      37.618 -24.077 -12.794  0.00  0.00    -0.000 C 
ENDBRANCH  30  31
ENDBRANCH   8  30
TORSDOF 8
ENDMDL
MODEL 3
REMARK VINA RESULT:     -10.9      2.001      3.167
REMARK  Name = 5287994
REMARK  8 active torsions:
REMARK  status: ('A' for Active; 'I' for Inactive)
REMARK    1  A    between atoms: C_5  and  O_19
REMARK    2  A    between atoms: C_5  and  C_21
REMARK    3  A    between atoms: C_8  and  C_30
REMARK    4  A    between atoms: C_10  and  C_11
REMARK    5  A    between atoms: C_16  and  O_17
REMARK    6  A    between atoms: C_21  and  C_22
REMARK    7  A    between atoms: C_27  and  O_28
REMARK    8  A    between atoms: C_30  and  C_31
REMARK                            x       y       z     vdW  Elec       q    Type
REMARK                         _______ _______ _______ _____ _____    ______ ____
ROOT
ATOM      1  O   UNL     1      35.739 -22.029 -13.748  0.00  0.00    -0.270 OA
ATOM      2  N   UNL     1      34.620 -22.267 -15.783  0.00  0.00    -0.232 N 
ATOM      3  N   UNL     1      36.297 -21.998 -17.278  0.00  0.00    -0.222 NA
ATOM      4  N   UNL     1      32.749 -22.584 -17.789  0.00  0.00    -0.406 NA
ATOM      5  C   UNL     1      36.887 -21.896 -15.908  0.00  0.00    +0.249 C 
ATOM      6  C   UNL     1      35.041 -22.204 -17.059  0.00  0.00    +0.162 C 
ATOM      7  C   UNL     1      35.694 -22.075 -14.967  0.00  0.00    +0.278 C 
ATOM      8  C   UNL     1      33.993 -22.380 -18.106  0.00  0.00    +0.144 C 
ATOM      9  C   UNL     1      33.316 -22.477 -15.456  0.00  0.00    +0.159 C 
ATOM     10  C   UNL     1      32.415 -22.636 -16.446  0.00  0.00    +0.129 C 
ENDROOT
BRANCH  10  11
ATOM     11  C   UNL     1      30.989 -22.855 -16.110  0.00  0.00    +0.027 C 
ATOM     12  C   UNL     1      30.629 -23.866 -15.218  0.00  0.00    +0.005 C 
ATOM     13  C   UNL     1      30.005 -22.050 -16.684  0.00  0.00    +0.005 C 
ATOM     14  C   UNL     1      29.286 -24.072 -14.903  0.00  0.00    +0.037 C 
ATOM     15  C   UNL     1      28.662 -22.255 -16.368  0.00  0.00    +0.037 C 
ATOM     16  C   UNL     1      28.303 -23.266 -15.477  0.00  0.00    +0.134 C 
BRANCH  16  17
ATOM     17  O   UNL     1      26.993 -23.467 -15.167  0.00  0.00    -0.506 OA
ATOM     18  H   UNL     1      26.517 -24.167 -15.569  0.00  0.00    +0.292 HD
ENDBRANCH  16  17
ENDBRANCH  10  11
BRANCH   5  19
ATOM     19  O   UNL     1      37.502 -20.658 -15.582  0.00  0.00    -0.361 OA
ATOM     20  H   UNL     1      36.830 -20.038 -15.261  0.00  0.00    +0.213 HD
ENDBRANCH   5  19
BRANCH   5  21
ATOM     21  C   UNL     1      37.888 -23.031 -15.729  0.00  0.00    +0.086 C 
BRANCH  21  22
ATOM     22  C   UNL     1      37.553 -23.888 -14.539  0.00  0.00    -0.017 C 
ATOM     23  C   UNL     1      38.128 -23.604 -13.307  0.00  0.00    -0.001 C 
ATOM     24  C   UNL     1      36.671 -24.950 -14.687  0.00  0.00    -0.001 C 
ATOM     25  C   UNL     1      37.815 -24.397 -12.203  0.00  0.00    +0.036 C 
ATOM     26  C   UNL     1      36.358 -25.744 -13.583  0.00  0.00    +0.036 C 
ATOM     27  C   UNL     1      36.931 -25.467 -12.342  0.00  0.00    +0.134 C 
BRANCH  27  28
ATOM     28  O   UNL     1      36.627 -26.242 -11.264  0.00  0.00    -0.506 OA
ATOM     29  H   UNL     1      36.860 -27.150 -11.260  0.00  0.00    +0.292 HD
ENDBRANCH  27  28
ENDBRANCH  21  22
ENDBRANCH   5  21
BRANCH   8  30
ATOM     30  C   UNL     1      34.424 -22.313 -19.539  0.00  0.00    +0.088 C 
BRANCH  30  31
ATOM     31  C   UNL     1      34.561 -20.889 -19.992  0.00  0.00    -0.015 C 
ATOM     32  C   UNL     1      35.823 -20.307 -20.059  0.00  0.00    -0.004 C 
ATOM     33  C   UNL     1      33.427 -20.165 -20.343  0.00  0.00    -0.004 C 
ATOM     34  C   UNL     1      35.950 -18.983 -20.482  0.00  0.00    -0.000 C 
ATOM     35  C   UNL     1      33.555 -18.842 -20.766  0.00  0.00    -0.000 C 
ATOM     36  C   UNL     1      34.817 -18.251 -20.834  0.00  0.00    -0.000 C 
ENDBRANCH  30  31
ENDBRANCH   8  30
TORSDOF 8
ENDMDL
