MODEL 1
REMARK VINA RESULT:     -12.3      0.000      0.000
REMARK  Name = 73777259
REMARK  4 active torsions:
REMARK  status: ('A' for Active; 'I' for Inactive)
REMARK    1  A    between atoms: N_3  and  C_16
REMARK    2  A    between atoms: N_4  and  C_23
REMARK    3  A    between atoms: C_16  and  C_17
REMARK    4  A    between atoms: C_23  and  C_24
REMARK                            x       y       z     vdW  Elec       q    Type
REMARK                         _______ _______ _______ _____ _____    ______ ____
ROOT
ATOM      1  O   UNL     1      36.799 -21.828 -15.929  0.00  0.00    -0.270 OA
ATOM      2  N   UNL     1      32.875 -22.494 -16.584  0.00  0.00    -0.240 N 
ATOM      3  N   UNL     1      35.030 -20.389 -19.534  0.00  0.00    +0.393 N 
ATOM      4  N   UNL     1      34.748 -22.595 -15.114  0.00  0.00    -0.224 N 
ATOM      5  N   UNL     1      32.571 -23.341 -14.482  0.00  0.00    -0.214 NA
ATOM      6  C   UNL     1      33.638 -21.932 -17.585  0.00  0.00    +0.032 C 
ATOM      7  C   UNL     1      34.948 -21.677 -17.401  0.00  0.00    +0.021 C 
ATOM      8  C   UNL     1      32.983 -21.605 -18.907  0.00  0.00    +0.019 C 
ATOM      9  C   UNL     1      35.806 -21.031 -18.459  0.00  0.00    -0.044 C 
ATOM     10  C   UNL     1      33.988 -21.295 -20.026  0.00  0.00    -0.070 C 
ATOM     11  C   UNL     1      33.394 -22.823 -15.359  0.00  0.00    +0.202 C 
ATOM     12  C   UNL     1      31.471 -22.825 -16.606  0.00  0.00    +0.092 C 
ATOM     13  C   UNL     1      35.595 -22.034 -16.086  0.00  0.00    +0.250 C 
ATOM     14  C   UNL     1      31.259 -23.377 -15.189  0.00  0.00    +0.118 C 
ATOM     15  H   UNL     1      34.574 -19.560 -19.153  0.00  0.00    -0.079 HD
ENDROOT
BRANCH   3  16
ATOM     16  C   UNL     1      35.909 -19.961 -20.620  0.00  0.00    -0.049 C 
BRANCH  16  17
ATOM     17  C   UNL     1      35.294 -18.853 -21.434  0.00  0.00    -0.043 C 
ATOM     18  C   UNL     1      34.678 -19.140 -22.652  0.00  0.00    -0.006 C 
ATOM     19  C   UNL     1      35.342 -17.538 -20.969  0.00  0.00    -0.006 C 
ATOM     20  C   UNL     1      34.110 -18.114 -23.406  0.00  0.00    -0.000 C 
ATOM     21  C   UNL     1      34.774 -16.511 -21.723  0.00  0.00    -0.000 C 
ATOM     22  C   UNL     1      34.158 -16.799 -22.941  0.00  0.00    -0.000 C 
ENDBRANCH  16  17
ENDBRANCH   3  16
BRANCH   4  23
ATOM     23  C   UNL     1      35.297 -22.956 -13.811  0.00  0.00    +0.127 C 
BRANCH  23  24
ATOM     24  C   UNL     1      36.093 -24.233 -13.872  0.00  0.00    -0.006 C 
ATOM     25  C   UNL     1      37.184 -24.438 -13.027  0.00  0.00    -0.024 C 
ATOM     26  C   UNL     1      35.726 -25.216 -14.790  0.00  0.00    -0.003 C 
ATOM     27  C   UNL     1      37.907 -25.628 -13.101  0.00  0.00    -0.005 C 
ATOM     28  C   UNL     1      37.595 -23.399 -12.037  0.00  0.00    +0.031 C 
ATOM     29  C   UNL     1      36.450 -26.407 -14.863  0.00  0.00    -0.000 C 
ATOM     30  C   UNL     1      37.541 -26.612 -14.019  0.00  0.00    -0.000 C 
ENDBRANCH  23  24
ENDBRANCH   4  23
TORSDOF 4
ENDMDL
MODEL 2
REMARK VINA RESULT:     -10.6      7.255     13.523
REMARK  Name = 73777259
REMARK  4 active torsions:
REMARK  status: ('A' for Active; 'I' for Inactive)
REMARK    1  A    between atoms: N_3  and  C_16
REMARK    2  A    between atoms: N_4  and  C_23
REMARK    3  A    between atoms: C_16  and  C_17
REMARK    4  A    between atoms: C_23  and  C_24
REMARK                            x       y       z     vdW  Elec       q    Type
REMARK                         _______ _______ _______ _____ _____    ______ ____
ROOT
ATOM      1  O   UNL     1      32.953 -11.760 -24.898  0.00  0.00    -0.270 OA
ATOM      2  N   UNL     1      32.193 -11.789 -20.936  0.00  0.00    -0.240 N 
ATOM      3  N   UNL     1      33.761 -15.302 -22.663  0.00  0.00    +0.393 N 
ATOM      4  N   UNL     1      32.037 -10.679 -23.040  0.00  0.00    -0.224 N 
ATOM      5  N   UNL     1      31.180  -9.741 -21.020  0.00  0.00    -0.214 NA
ATOM      6  C   UNL     1      32.833 -12.870 -21.506  0.00  0.00    +0.032 C 
ATOM      7  C   UNL     1      33.089 -12.907 -22.829  0.00  0.00    +0.021 C 
ATOM      8  C   UNL     1      33.249 -14.021 -20.623  0.00  0.00    +0.019 C 
ATOM      9  C   UNL     1      33.753 -14.086 -23.494  0.00  0.00    -0.044 C 
ATOM     10  C   UNL     1      34.223 -14.994 -21.306  0.00  0.00    -0.070 C 
ATOM     11  C   UNL     1      31.787 -10.704 -21.668  0.00  0.00    +0.202 C 
ATOM     12  C   UNL     1      31.836 -11.587 -19.554  0.00  0.00    +0.092 C 
ATOM     13  C   UNL     1      32.692 -11.737 -23.694  0.00  0.00    +0.250 C 
ATOM     14  C   UNL     1      31.139 -10.221 -19.609  0.00  0.00    +0.118 C 
ATOM     15  H   UNL     1      32.806 -15.656 -22.599  0.00  0.00    -0.079 HD
ENDROOT
BRANCH   3  16
ATOM     16  C   UNL     1      34.586 -16.341 -23.275  0.00  0.00    -0.049 C 
BRANCH  16  17
ATOM     17  C   UNL     1      34.805 -17.503 -22.344  0.00  0.00    -0.043 C 
ATOM     18  C   UNL     1      33.789 -18.436 -22.141  0.00  0.00    -0.006 C 
ATOM     19  C   UNL     1      36.027 -17.647 -21.684  0.00  0.00    -0.006 C 
ATOM     20  C   UNL     1      33.992 -19.513 -21.277  0.00  0.00    -0.000 C 
ATOM     21  C   UNL     1      36.230 -18.724 -20.821  0.00  0.00    -0.000 C 
ATOM     22  C   UNL     1      35.213 -19.656 -20.618  0.00  0.00    -0.000 C 
ENDBRANCH  16  17
ENDBRANCH   3  16
BRANCH   4  23
ATOM     23  C   UNL     1      31.610  -9.517 -23.811  0.00  0.00    +0.127 C 
BRANCH  23  24
ATOM     24  C   UNL     1      32.410  -8.289 -23.464  0.00  0.00    -0.006 C 
ATOM     25  C   UNL     1      31.778  -7.084 -23.158  0.00  0.00    -0.024 C 
ATOM     26  C   UNL     1      33.802  -8.369 -23.452  0.00  0.00    -0.003 C 
ATOM     27  C   UNL     1      32.539  -5.959 -22.840  0.00  0.00    -0.005 C 
ATOM     28  C   UNL     1      30.289  -6.974 -23.165  0.00  0.00    +0.031 C 
ATOM     29  C   UNL     1      34.563  -7.244 -23.133  0.00  0.00    -0.000 C 
ATOM     30  C   UNL     1      33.931  -6.039 -22.828  0.00  0.00    -0.000 C 
ENDBRANCH  23  24
ENDBRANCH   4  23
TORSDOF 4
ENDMDL
MODEL 3
REMARK VINA RESULT:     -10.0      1.459      1.929
REMARK  Name = 73777259
REMARK  4 active torsions:
REMARK  status: ('A' for Active; 'I' for Inactive)
REMARK    1  A    between atoms: N_3  and  C_16
REMARK    2  A    between atoms: N_4  and  C_23
REMARK    3  A    between atoms: C_16  and  C_17
REMARK    4  A    between atoms: C_23  and  C_24
REMARK                            x       y       z     vdW  Elec       q    Type
REMARK                         _______ _______ _______ _____ _____    ______ ____
ROOT
ATOM      1  O   UNL     1      37.286 -21.704 -16.411  0.00  0.00    -0.270 OA
ATOM      2  N   UNL     1      33.665 -22.968 -15.160  0.00  0.00    -0.240 N 
ATOM      3  N   UNL     1      33.974 -21.473 -19.090  0.00  0.00    +0.393 N 
ATOM      4  N   UNL     1      35.940 -22.464 -14.659  0.00  0.00    -0.224 N 
ATOM      5  N   UNL     1      34.406 -23.266 -13.017  0.00  0.00    -0.214 NA
ATOM      6  C   UNL     1      33.831 -22.603 -16.479  0.00  0.00    +0.032 C 
ATOM      7  C   UNL     1      35.019 -22.159 -16.933  0.00  0.00    +0.021 C 
ATOM      8  C   UNL     1      32.655 -22.711 -17.421  0.00  0.00    +0.019 C 
ATOM      9  C   UNL     1      35.229 -21.717 -18.360  0.00  0.00    -0.044 C 
ATOM     10  C   UNL     1      33.044 -22.591 -18.901  0.00  0.00    -0.070 C 
ATOM     11  C   UNL     1      34.683 -22.903 -14.245  0.00  0.00    +0.202 C 
ATOM     12  C   UNL     1      32.474 -23.454 -14.508  0.00  0.00    +0.092 C 
ATOM     13  C   UNL     1      36.193 -22.082 -15.988  0.00  0.00    +0.250 C 
ATOM     14  C   UNL     1      32.962 -23.637 -13.064  0.00  0.00    +0.118 C 
ATOM     15  H   UNL     1      33.538 -20.631 -18.712  0.00  0.00    -0.079 HD
ENDROOT
BRANCH   3  16
ATOM     16  C   UNL     1      34.239 -21.244 -20.509  0.00  0.00    -0.049 C 
BRANCH  16  17
ATOM     17  C   UNL     1      34.691 -19.833 -20.775  0.00  0.00    -0.043 C 
ATOM     18  C   UNL     1      33.754 -18.843 -21.069  0.00  0.00    -0.006 C 
ATOM     19  C   UNL     1      36.049 -19.516 -20.726  0.00  0.00    -0.006 C 
ATOM     20  C   UNL     1      34.174 -17.536 -21.316  0.00  0.00    -0.000 C 
ATOM     21  C   UNL     1      36.469 -18.209 -20.973  0.00  0.00    -0.000 C 
ATOM     22  C   UNL     1      35.531 -17.219 -21.268  0.00  0.00    -0.000 C 
ENDBRANCH  16  17
ENDBRANCH   3  16
BRANCH   4  23
ATOM     23  C   UNL     1      37.022 -22.405 -13.681  0.00  0.00    +0.127 C 
BRANCH  23  24
ATOM     24  C   UNL     1      37.920 -23.611 -13.766  0.00  0.00    -0.006 C 
ATOM     25  C   UNL     1      37.957 -24.552 -12.737  0.00  0.00    -0.024 C 
ATOM     26  C   UNL     1      38.722 -23.779 -14.894  0.00  0.00    -0.003 C 
ATOM     27  C   UNL     1      38.796 -25.660 -12.837  0.00  0.00    -0.005 C 
ATOM     28  C   UNL     1      37.108 -24.392 -11.519  0.00  0.00    +0.031 C 
ATOM     29  C   UNL     1      39.561 -24.889 -14.994  0.00  0.00    -0.000 C 
ATOM     30  C   UNL     1      39.598 -25.830 -13.965  0.00  0.00    -0.000 C 
ENDBRANCH  23  24
ENDBRANCH   4  23
TORSDOF 4
ENDMDL
MODEL 4
REMARK VINA RESULT:      -9.9      8.221     14.256
REMARK  Name = 73777259
REMARK  4 active torsions:
REMARK  status: ('A' for Active; 'I' for Inactive)
REMARK    1  A    between atoms: N_3  and  C_16
REMARK    2  A    between atoms: N_4  and  C_23
REMARK    3  A    between atoms: C_16  and  C_17
REMARK    4  A    between atoms: C_23  and  C_24
REMARK                            x       y       z     vdW  Elec       q    Type
REMARK                         _______ _______ _______ _____ _____    ______ ____
ROOT
ATOM      1  O   UNL     1      32.231 -10.196 -24.473  0.00  0.00    -0.270 OA
ATOM      2  N   UNL     1      31.810 -10.946 -20.532  0.00  0.00    -0.240 N 
ATOM      3  N   UNL     1      33.243 -14.063 -22.984  0.00  0.00    +0.393 N 
ATOM      4  N   UNL     1      31.470  -9.483 -22.383  0.00  0.00    -0.224 N 
ATOM      5  N   UNL     1      30.782  -8.937 -20.164  0.00  0.00    -0.214 NA
ATOM      6  C   UNL     1      32.404 -11.895 -21.338  0.00  0.00    +0.032 C 
ATOM      7  C   UNL     1      32.548 -11.691 -22.662  0.00  0.00    +0.021 C 
ATOM      8  C   UNL     1      32.900 -13.177 -20.713  0.00  0.00    +0.019 C 
ATOM      9  C   UNL     1      33.159 -12.719 -23.580  0.00  0.00    -0.044 C 
ATOM     10  C   UNL     1      33.817 -13.992 -21.637  0.00  0.00    -0.070 C 
ATOM     11  C   UNL     1      31.337  -9.757 -21.021  0.00  0.00    +0.202 C 
ATOM     12  C   UNL     1      31.570 -11.001 -19.112  0.00  0.00    +0.092 C 
ATOM     13  C   UNL     1      32.073 -10.394 -23.268  0.00  0.00    +0.250 C 
ATOM     14  C   UNL     1      30.864  -9.662 -18.863  0.00  0.00    +0.118 C 
ATOM     15  H   UNL     1      32.299 -14.442 -22.907  0.00  0.00    -0.079 HD
ENDROOT
BRANCH   3  16
ATOM     16  C   UNL     1      34.019 -14.959 -23.839  0.00  0.00    -0.049 C 
BRANCH  16  17
ATOM     17  C   UNL     1      34.212 -16.311 -23.205  0.00  0.00    -0.043 C 
ATOM     18  C   UNL     1      34.806 -16.414 -21.948  0.00  0.00    -0.006 C 
ATOM     19  C   UNL     1      33.794 -17.461 -23.876  0.00  0.00    -0.006 C 
ATOM     20  C   UNL     1      34.985 -17.667 -21.361  0.00  0.00    -0.000 C 
ATOM     21  C   UNL     1      33.973 -18.714 -23.289  0.00  0.00    -0.000 C 
ATOM     22  C   UNL     1      34.568 -18.816 -22.032  0.00  0.00    -0.000 C 
ENDBRANCH  16  17
ENDBRANCH   3  16
BRANCH   4  23
ATOM     23  C   UNL     1      30.974  -8.210 -22.895  0.00  0.00    +0.127 C 
BRANCH  23  24
ATOM     24  C   UNL     1      32.095  -7.254 -23.206  0.00  0.00    -0.006 C 
ATOM     25  C   UNL     1      32.104  -6.521 -24.392  0.00  0.00    -0.024 C 
ATOM     26  C   UNL     1      33.134  -7.108 -22.287  0.00  0.00    -0.003 C 
ATOM     27  C   UNL     1      33.153  -5.642 -24.659  0.00  0.00    -0.005 C 
ATOM     28  C   UNL     1      31.003  -6.661 -25.390  0.00  0.00    +0.031 C 
ATOM     29  C   UNL     1      34.183  -6.228 -22.554  0.00  0.00    -0.000 C 
ATOM     30  C   UNL     1      34.192  -5.495 -23.741  0.00  0.00    -0.000 C 
ENDBRANCH  23  24
ENDBRANCH   4  23
TORSDOF 4
ENDMDL
MODEL 5
REMARK VINA RESULT:      -9.9      1.005      1.988
REMARK  Name = 73777259
REMARK  4 active torsions:
REMARK  status: ('A' for Active; 'I' for Inactive)
REMARK    1  A    between atoms: N_3  and  C_16
REMARK    2  A    between atoms: N_4  and  C_23
REMARK    3  A    between atoms: C_16  and  C_17
REMARK    4  A    between atoms: C_23  and  C_24
REMARK                            x       y       z     vdW  Elec       q    Type
REMARK                         _______ _______ _______ _____ _____    ______ ____
ROOT
ATOM      1  O   UNL     1      35.731 -23.396 -16.041  0.00  0.00    -0.270 OA
ATOM      2  N   UNL     1      31.837 -22.508 -16.606  0.00  0.00    -0.240 N 
ATOM      3  N   UNL     1      34.667 -20.606 -19.087  0.00  0.00    +0.393 N 
ATOM      4  N   UNL     1      33.520 -23.596 -15.315  0.00  0.00    -0.224 N 
ATOM      5  N   UNL     1      31.202 -23.689 -14.754  0.00  0.00    -0.214 NA
ATOM      6  C   UNL     1      32.775 -22.012 -17.487  0.00  0.00    +0.032 C 
ATOM      7  C   UNL     1      34.087 -22.270 -17.324  0.00  0.00    +0.021 C 
ATOM      8  C   UNL     1      32.310 -21.169 -18.651  0.00  0.00    +0.019 C 
ATOM      9  C   UNL     1      35.144 -21.716 -18.245  0.00  0.00    -0.044 C 
ATOM     10  C   UNL     1      33.391 -20.955 -19.721  0.00  0.00    -0.070 C 
ATOM     11  C   UNL     1      32.178 -23.283 -15.528  0.00  0.00    +0.202 C 
ATOM     12  C   UNL     1      30.407 -22.327 -16.625  0.00  0.00    +0.092 C 
ATOM     13  C   UNL     1      34.535 -23.136 -16.173  0.00  0.00    +0.250 C 
ATOM     14  C   UNL     1      29.978 -23.103 -15.372  0.00  0.00    +0.118 C 
ATOM     15  H   UNL     1      34.512 -19.791 -18.493  0.00  0.00    -0.079 HD
ENDROOT
BRANCH   3  16
ATOM     16  C   UNL     1      35.670 -20.249 -20.089  0.00  0.00    -0.049 C 
BRANCH  16  17
ATOM     17  C   UNL     1      35.169 -19.185 -21.028  0.00  0.00    -0.043 C 
ATOM     18  C   UNL     1      35.374 -17.838 -20.730  0.00  0.00    -0.006 C 
ATOM     19  C   UNL     1      34.499 -19.546 -22.197  0.00  0.00    -0.006 C 
ATOM     20  C   UNL     1      34.909 -16.852 -21.600  0.00  0.00    -0.000 C 
ATOM     21  C   UNL     1      34.033 -18.560 -23.068  0.00  0.00    -0.000 C 
ATOM     22  C   UNL     1      34.239 -17.213 -22.769  0.00  0.00    -0.000 C 
ENDBRANCH  16  17
ENDBRANCH   3  16
BRANCH   4  23
ATOM     23  C   UNL     1      33.874 -24.429 -14.171  0.00  0.00    +0.127 C 
BRANCH  23  24
ATOM     24  C   UNL     1      35.204 -24.038 -13.582  0.00  0.00    -0.006 C 
ATOM     25  C   UNL     1      36.324 -24.854 -13.735  0.00  0.00    -0.024 C 
ATOM     26  C   UNL     1      35.305 -22.839 -12.877  0.00  0.00    -0.003 C 
ATOM     27  C   UNL     1      37.545 -24.472 -13.181  0.00  0.00    -0.005 C 
ATOM     28  C   UNL     1      36.239 -26.142 -14.486  0.00  0.00    +0.031 C 
ATOM     29  C   UNL     1      36.528 -22.457 -12.324  0.00  0.00    -0.000 C 
ATOM     30  C   UNL     1      37.647 -23.274 -12.476  0.00  0.00    -0.000 C 
ENDBRANCH  23  24
ENDBRANCH   4  23
TORSDOF 4
ENDMDL
MODEL 6
REMARK VINA RESULT:      -9.8      4.743      8.310
REMARK  Name = 73777259
REMARK  4 active torsions:
REMARK  status: ('A' for Active; 'I' for Inactive)
REMARK    1  A    between atoms: N_3  and  C_16
REMARK    2  A    between atoms: N_4  and  C_23
REMARK    3  A    between atoms: C_16  and  C_17
REMARK    4  A    between atoms: C_23  and  C_24
REMARK                            x       y       z     vdW  Elec       q    Type
REMARK                         _______ _______ _______ _____ _____    ______ ____
ROOT
ATOM      1  O   UNL     1      35.357 -16.909 -20.141  0.00  0.00    -0.270 OA
ATOM      2  N   UNL     1      33.721 -17.400 -23.795  0.00  0.00    -0.240 N 
ATOM      3  N   UNL     1      33.422 -13.595 -22.003  0.00  0.00    +0.393 N 
ATOM      4  N   UNL     1      34.766 -18.356 -21.878  0.00  0.00    -0.224 N 
ATOM      5  N   UNL     1      34.099 -19.655 -23.765  0.00  0.00    -0.214 NA
ATOM      6  C   UNL     1      33.763 -16.138 -23.241  0.00  0.00    +0.032 C 
ATOM      7  C   UNL     1      34.285 -15.934 -22.016  0.00  0.00    +0.021 C 
ATOM      8  C   UNL     1      33.214 -14.975 -24.032  0.00  0.00    +0.019 C 
ATOM      9  C   UNL     1      34.315 -14.576 -21.362  0.00  0.00    -0.044 C 
ATOM     10  C   UNL     1      33.608 -13.606 -23.458  0.00  0.00    -0.070 C 
ATOM     11  C   UNL     1      34.202 -18.507 -23.144  0.00  0.00    +0.202 C 
ATOM     12  C   UNL     1      33.198 -17.798 -25.079  0.00  0.00    +0.092 C 
ATOM     13  C   UNL     1      34.854 -17.102 -21.249  0.00  0.00    +0.250 C 
ATOM     14  C   UNL     1      33.433 -19.315 -25.055  0.00  0.00    +0.118 C 
ATOM     15  H   UNL     1      32.456 -13.859 -21.806  0.00  0.00    -0.079 HD
ENDROOT
BRANCH   3  16
ATOM     16  C   UNL     1      33.645 -12.259 -21.455  0.00  0.00    -0.049 C 
BRANCH  16  17
ATOM     17  C   UNL     1      32.499 -11.331 -21.758  0.00  0.00    -0.043 C 
ATOM     18  C   UNL     1      32.618 -10.382 -22.773  0.00  0.00    -0.006 C 
ATOM     19  C   UNL     1      31.315 -11.422 -21.024  0.00  0.00    -0.006 C 
ATOM     20  C   UNL     1      31.556  -9.522 -23.053  0.00  0.00    -0.000 C 
ATOM     21  C   UNL     1      30.253 -10.562 -21.304  0.00  0.00    -0.000 C 
ATOM     22  C   UNL     1      30.374  -9.612 -22.318  0.00  0.00    -0.000 C 
ENDBRANCH  16  17
ENDBRANCH   3  16
BRANCH   4  23
ATOM     23  C   UNL     1      35.283 -19.537 -21.194  0.00  0.00    +0.127 C 
BRANCH  23  24
ATOM     24  C   UNL     1      34.250 -20.162 -20.295  0.00  0.00    -0.006 C 
ATOM     25  C   UNL     1      34.626 -21.007 -19.250  0.00  0.00    -0.024 C 
ATOM     26  C   UNL     1      32.902 -19.884 -20.518  0.00  0.00    -0.003 C 
ATOM     27  C   UNL     1      33.652 -21.575 -18.430  0.00  0.00    -0.005 C 
ATOM     28  C   UNL     1      36.063 -21.318 -18.993  0.00  0.00    +0.031 C 
ATOM     29  C   UNL     1      31.928 -20.452 -19.696  0.00  0.00    -0.000 C 
ATOM     30  C   UNL     1      32.303 -21.298 -18.652  0.00  0.00    -0.000 C 
ENDBRANCH  23  24
ENDBRANCH   4  23
TORSDOF 4
ENDMDL
MODEL 7
REMARK VINA RESULT:      -9.5      2.559      7.810
REMARK  Name = 73777259
REMARK  4 active torsions:
REMARK  status: ('A' for Active; 'I' for Inactive)
REMARK    1  A    between atoms: N_3  and  C_16
REMARK    2  A    between atoms: N_4  and  C_23
REMARK    3  A    between atoms: C_16  and  C_17
REMARK    4  A    between atoms: C_23  and  C_24
REMARK                            x       y       z     vdW  Elec       q    Type
REMARK                         _______ _______ _______ _____ _____    ______ ____
ROOT
ATOM      1  O   UNL     1      32.091 -22.639 -18.467  0.00  0.00    -0.270 OA
ATOM      2  N   UNL     1      35.216 -22.117 -15.972  0.00  0.00    -0.240 N 
ATOM      3  N   UNL     1      31.388 -22.559 -14.261  0.00  0.00    +0.393 N 
ATOM      4  N   UNL     1      34.361 -22.159 -18.196  0.00  0.00    -0.224 N 
ATOM      5  N   UNL     1      36.651 -21.704 -17.704  0.00  0.00    -0.214 NA
ATOM      6  C   UNL     1      33.975 -22.402 -15.444  0.00  0.00    +0.032 C 
ATOM      7  C   UNL     1      32.901 -22.566 -16.242  0.00  0.00    +0.021 C 
ATOM      8  C   UNL     1      33.830 -22.532 -13.946  0.00  0.00    +0.019 C 
ATOM      9  C   UNL     1      31.522 -22.842 -15.700  0.00  0.00    -0.044 C 
ATOM     10  C   UNL     1      32.497 -23.161 -13.514  0.00  0.00    -0.070 C 
ATOM     11  C   UNL     1      35.432 -21.987 -17.319  0.00  0.00    +0.202 C 
ATOM     12  C   UNL     1      36.459 -21.905 -15.272  0.00  0.00    +0.092 C 
ATOM     13  C   UNL     1      33.067 -22.460 -17.738  0.00  0.00    +0.250 C 
ATOM     14  C   UNL     1      37.422 -21.610 -16.430  0.00  0.00    +0.118 C 
ATOM     15  H   UNL     1      31.427 -21.548 -14.125  0.00  0.00    -0.079 HD
ENDROOT
BRANCH   3  16
ATOM     16  C   UNL     1      30.099 -23.032 -13.759  0.00  0.00    -0.049 C 
BRANCH  16  17
ATOM     17  C   UNL     1      29.042 -23.020 -14.831  0.00  0.00    -0.043 C 
ATOM     18  C   UNL     1      28.789 -24.172 -15.576  0.00  0.00    -0.006 C 
ATOM     19  C   UNL     1      28.315 -21.855 -15.079  0.00  0.00    -0.006 C 
ATOM     20  C   UNL     1      27.810 -24.159 -16.569  0.00  0.00    -0.000 C 
ATOM     21  C   UNL     1      27.336 -21.843 -16.073  0.00  0.00    -0.000 C 
ATOM     22  C   UNL     1      27.084 -22.995 -16.817  0.00  0.00    -0.000 C 
ENDBRANCH  16  17
ENDBRANCH   3  16
BRANCH   4  23
ATOM     23  C   UNL     1      34.599 -22.027 -19.629  0.00  0.00    +0.127 C 
BRANCH  23  24
ATOM     24  C   UNL     1      34.805 -20.592 -20.034  0.00  0.00    -0.006 C 
ATOM     25  C   UNL     1      33.721 -19.778 -20.365  0.00  0.00    -0.024 C 
ATOM     26  C   UNL     1      36.101 -20.079 -20.075  0.00  0.00    -0.003 C 
ATOM     27  C   UNL     1      33.935 -18.451 -20.737  0.00  0.00    -0.005 C 
ATOM     28  C   UNL     1      32.325 -20.305 -20.329  0.00  0.00    +0.031 C 
ATOM     29  C   UNL     1      36.314 -18.751 -20.447  0.00  0.00    -0.000 C 
ATOM     30  C   UNL     1      35.231 -17.938 -20.779  0.00  0.00    -0.000 C 
ENDBRANCH  23  24
ENDBRANCH   4  23
TORSDOF 4
ENDMDL
MODEL 8
REMARK VINA RESULT:      -9.4      2.538      4.509
REMARK  Name = 73777259
REMARK  4 active torsions:
REMARK  status: ('A' for Active; 'I' for Inactive)
REMARK    1  A    between atoms: N_3  and  C_16
REMARK    2  A    between atoms: N_4  and  C_23
REMARK    3  A    between atoms: C_16  and  C_17
REMARK    4  A    between atoms: C_23  and  C_24
REMARK                            x       y       z     vdW  Elec       q    Type
REMARK                         _______ _______ _______ _____ _____    ______ ____
ROOT
ATOM      1  O   UNL     1      32.450 -22.193 -19.543  0.00  0.00    -0.270 OA
ATOM      2  N   UNL     1      35.896 -21.093 -17.760  0.00  0.00    -0.240 N 
ATOM      3  N   UNL     1      35.057 -19.492 -21.569  0.00  0.00    +0.393 N 
ATOM      4  N   UNL     1      33.953 -22.472 -17.776  0.00  0.00    -0.224 N 
ATOM      5  N   UNL     1      35.602 -22.589 -16.056  0.00  0.00    -0.214 NA
ATOM      6  C   UNL     1      35.526 -20.484 -18.940  0.00  0.00    +0.032 C 
ATOM      7  C   UNL     1      34.392 -20.835 -19.577  0.00  0.00    +0.021 C 
ATOM      8  C   UNL     1      36.413 -19.406 -19.516  0.00  0.00    +0.019 C 
ATOM      9  C   UNL     1      33.972 -20.218 -20.887  0.00  0.00    -0.044 C 
ATOM     10  C   UNL     1      35.742 -18.594 -20.634  0.00  0.00    -0.070 C 
ATOM     11  C   UNL     1      35.145 -22.076 -17.171  0.00  0.00    +0.202 C 
ATOM     12  C   UNL     1      37.069 -20.849 -16.956  0.00  0.00    +0.092 C 
ATOM     13  C   UNL     1      33.501 -21.894 -18.976  0.00  0.00    +0.250 C 
ATOM     14  C   UNL     1      36.884 -21.864 -15.820  0.00  0.00    +0.118 C 
ATOM     15  H   UNL     1      35.737 -20.173 -21.910  0.00  0.00    -0.079 HD
ENDROOT
BRANCH   3  16
ATOM     16  C   UNL     1      34.541 -18.756 -22.722  0.00  0.00    -0.049 C 
BRANCH  16  17
ATOM     17  C   UNL     1      34.399 -17.286 -22.429  0.00  0.00    -0.043 C 
ATOM     18  C   UNL     1      34.282 -16.844 -21.111  0.00  0.00    -0.006 C 
ATOM     19  C   UNL     1      34.385 -16.365 -23.477  0.00  0.00    -0.006 C 
ATOM     20  C   UNL     1      34.150 -15.482 -20.841  0.00  0.00    -0.000 C 
ATOM     21  C   UNL     1      34.253 -15.003 -23.207  0.00  0.00    -0.000 C 
ATOM     22  C   UNL     1      34.136 -14.562 -21.889  0.00  0.00    -0.000 C 
ENDBRANCH  16  17
ENDBRANCH   3  16
BRANCH   4  23
ATOM     23  C   UNL     1      33.153 -23.512 -17.139  0.00  0.00    +0.127 C 
BRANCH  23  24
ATOM     24  C   UNL     1      32.077 -22.933 -16.259  0.00  0.00    -0.006 C 
ATOM     25  C   UNL     1      32.223 -22.905 -14.872  0.00  0.00    -0.024 C 
ATOM     26  C   UNL     1      30.923 -22.419 -16.850  0.00  0.00    -0.003 C 
ATOM     27  C   UNL     1      31.214 -22.364 -14.076  0.00  0.00    -0.005 C 
ATOM     28  C   UNL     1      33.449 -23.450 -14.217  0.00  0.00    +0.031 C 
ATOM     29  C   UNL     1      29.914 -21.876 -16.053  0.00  0.00    -0.000 C 
ATOM     30  C   UNL     1      30.060 -21.849 -14.666  0.00  0.00    -0.000 C 
ENDBRANCH  23  24
ENDBRANCH   4  23
TORSDOF 4
ENDMDL
MODEL 9
REMARK VINA RESULT:      -9.4      2.348      5.273
REMARK  Name = 73777259
REMARK  4 active torsions:
REMARK  status: ('A' for Active; 'I' for Inactive)
REMARK    1  A    between atoms: N_3  and  C_16
REMARK    2  A    between atoms: N_4  and  C_23
REMARK    3  A    between atoms: C_16  and  C_17
REMARK    4  A    between atoms: C_23  and  C_24
REMARK                            x       y       z     vdW  Elec       q    Type
REMARK                         _______ _______ _______ _____ _____    ______ ____
ROOT
ATOM      1  O   UNL     1      32.241 -23.340 -16.467  0.00  0.00    -0.270 OA
ATOM      2  N   UNL     1      35.110 -22.929 -13.660  0.00  0.00    -0.240 N 
ATOM      3  N   UNL     1      36.051 -21.802 -17.613  0.00  0.00    +0.393 N 
ATOM      4  N   UNL     1      32.946 -23.721 -14.272  0.00  0.00    -0.224 N 
ATOM      5  N   UNL     1      33.847 -23.995 -12.079  0.00  0.00    -0.214 NA
ATOM      6  C   UNL     1      35.337 -22.443 -14.930  0.00  0.00    +0.032 C 
ATOM      7  C   UNL     1      34.412 -22.576 -15.901  0.00  0.00    +0.021 C 
ATOM      8  C   UNL     1      36.647 -21.750 -15.224  0.00  0.00    +0.019 C 
ATOM      9  C   UNL     1      34.639 -22.090 -17.311  0.00  0.00    -0.044 C 
ATOM     10  C   UNL     1      36.646 -20.981 -16.553  0.00  0.00    -0.070 C 
ATOM     11  C   UNL     1      33.947 -23.566 -13.313  0.00  0.00    +0.202 C 
ATOM     12  C   UNL     1      35.983 -22.881 -12.514  0.00  0.00    +0.092 C 
ATOM     13  C   UNL     1      33.098 -23.245 -15.586  0.00  0.00    +0.250 C 
ATOM     14  C   UNL     1      35.146 -23.612 -11.454  0.00  0.00    +0.118 C 
ATOM     15  H   UNL     1      36.561 -22.685 -17.652  0.00  0.00    -0.079 HD
ENDROOT
BRANCH   3  16
ATOM     16  C   UNL     1      36.179 -21.151 -18.915  0.00  0.00    -0.049 C 
BRANCH  16  17
ATOM     17  C   UNL     1      34.839 -20.755 -19.477  0.00  0.00    -0.043 C 
ATOM     18  C   UNL     1      33.681 -21.398 -19.041  0.00  0.00    -0.006 C 
ATOM     19  C   UNL     1      34.757 -19.744 -20.435  0.00  0.00    -0.006 C 
ATOM     20  C   UNL     1      32.440 -21.031 -19.562  0.00  0.00    -0.000 C 
ATOM     21  C   UNL     1      33.516 -19.377 -20.957  0.00  0.00    -0.000 C 
ATOM     22  C   UNL     1      32.359 -20.021 -20.520  0.00  0.00    -0.000 C 
ENDBRANCH  16  17
ENDBRANCH   3  16
BRANCH   4  23
ATOM     23  C   UNL     1      31.707 -24.392 -13.893  0.00  0.00    +0.127 C 
BRANCH  23  24
ATOM     24  C   UNL     1      30.493 -23.607 -14.314  0.00  0.00    -0.006 C 
ATOM     25  C   UNL     1      29.421 -24.232 -14.950  0.00  0.00    -0.024 C 
ATOM     26  C   UNL     1      30.451 -22.237 -14.060  0.00  0.00    -0.003 C 
ATOM     27  C   UNL     1      28.306 -23.486 -15.332  0.00  0.00    -0.005 C 
ATOM     28  C   UNL     1      29.443 -25.698 -15.233  0.00  0.00    +0.031 C 
ATOM     29  C   UNL     1      29.335 -21.490 -14.441  0.00  0.00    -0.000 C 
ATOM     30  C   UNL     1      28.263 -22.116 -15.078  0.00  0.00    -0.000 C 
ENDBRANCH  23  24
ENDBRANCH   4  23
TORSDOF 4
ENDMDL
