MODEL 1
REMARK VINA RESULT:     -12.7      0.000      0.000
REMARK  Name = 11740318
REMARK  5 active torsions:
REMARK  status: ('A' for Active; 'I' for Inactive)
REMARK    1  A    between atoms: N_1  and  C_20
REMARK    2  A    between atoms: C_2  and  O_8
REMARK    3  A    between atoms: O_8  and  C_9
REMARK    4  A    between atoms: C_14  and  N_15
REMARK    5  A    between atoms: C_20  and  C_23
REMARK                            x       y       z     vdW  Elec       q    Type
REMARK                         _______ _______ _______ _____ _____    ______ ____
ROOT
ATOM      1  N   UNL     1      34.421 -18.604 -22.004  0.00  0.00    +0.392 N 
ATOM      2  C   UNL     1      34.127 -16.347 -22.980  0.00  0.00    +0.145 C 
ATOM      3  C   UNL     1      34.976 -17.246 -22.076  0.00  0.00    -0.032 C 
ATOM      4  C   UNL     1      33.977 -16.951 -24.373  0.00  0.00    +0.039 C 
ATOM      5  C   UNL     1      33.475 -18.386 -24.281  0.00  0.00    -0.019 C 
ATOM      6  C   UNL     1      34.345 -19.218 -23.337  0.00  0.00    -0.077 C 
ATOM      7  H   UNL     1      33.472 -18.535 -21.636  0.00  0.00    -0.079 HD
ENDROOT
BRANCH   2   8
ATOM      8  O   UNL     1      34.744 -15.071 -23.104  0.00  0.00    -0.481 OA
BRANCH   8   9
ATOM      9  C   UNL     1      33.997 -13.986 -22.730  0.00  0.00    +0.138 C 
ATOM     10  C   UNL     1      33.565 -13.869 -21.413  0.00  0.00    +0.038 C 
ATOM     11  C   UNL     1      33.677 -13.012 -23.669  0.00  0.00    +0.038 C 
ATOM     12  C   UNL     1      32.803 -12.763 -21.031  0.00  0.00    +0.018 C 
ATOM     13  C   UNL     1      32.916 -11.907 -23.287  0.00  0.00    +0.018 C 
ATOM     14  C   UNL     1      32.479 -11.783 -21.968  0.00  0.00    +0.057 C 
BRANCH  14  15
ATOM     15  N   UNL     1      31.725 -10.687 -21.590  0.00  0.00    -0.246 N 
ATOM     16  N   UNL     1      30.532  -9.316 -20.299  0.00  0.00    -0.224 NA
ATOM     17  C   UNL     1      31.363  -9.630 -22.384  0.00  0.00    +0.092 C 
ATOM     18  C   UNL     1      31.199 -10.447 -20.344  0.00  0.00    +0.172 C 
ATOM     19  C   UNL     1      30.630  -8.801 -21.568  0.00  0.00    +0.117 C 
ENDBRANCH  14  15
ENDBRANCH   8   9
ENDBRANCH   2   8
BRANCH   1  20
ATOM     20  C   UNL     1      35.216 -19.435 -21.101  0.00  0.00    -0.050 C 
BRANCH  20  23
ATOM     21  O   UNL     1      34.504 -22.629 -17.404  0.00  0.00    -0.435 OA
ATOM     22  O   UNL     1      32.107 -22.409 -17.521  0.00  0.00    -0.435 OA
ATOM     23  C   UNL     1      34.349 -20.220 -20.153  0.00  0.00    -0.040 C 
ATOM     24  C   UNL     1      34.948 -21.061 -19.222  0.00  0.00    +0.034 C 
ATOM     25  C   UNL     1      32.958 -20.085 -20.230  0.00  0.00    -0.003 C 
ATOM     26  C   UNL     1      34.112 -21.760 -18.375  0.00  0.00    +0.176 C 
ATOM     27  C   UNL     1      32.134 -20.803 -19.360  0.00  0.00    +0.040 C 
ATOM     28  C   UNL     1      32.743 -21.634 -18.442  0.00  0.00    +0.176 C 
ATOM     29  C   UNL     1      33.229 -23.035 -16.866  0.00  0.00    +0.429 C 
ENDBRANCH  20  23
ENDBRANCH   1  20
TORSDOF 5
ENDMDL
MODEL 2
REMARK VINA RESULT:     -12.6      4.647      8.613
REMARK  Name = 11740318
REMARK  5 active torsions:
REMARK  status: ('A' for Active; 'I' for Inactive)
REMARK    1  A    between atoms: N_1  and  C_20
REMARK    2  A    between atoms: C_2  and  O_8
REMARK    3  A    between atoms: O_8  and  C_9
REMARK    4  A    between atoms: C_14  and  N_15
REMARK    5  A    between atoms: C_20  and  C_23
REMARK                            x       y       z     vdW  Elec       q    Type
REMARK                         _______ _______ _______ _____ _____    ______ ____
ROOT
ATOM      1  N   UNL     1      33.506 -22.976 -14.060  0.00  0.00    +0.392 N 
ATOM      2  C   UNL     1      33.321 -22.501 -16.483  0.00  0.00    +0.145 C 
ATOM      3  C   UNL     1      34.101 -23.222 -15.379  0.00  0.00    -0.032 C 
ATOM      4  C   UNL     1      31.848 -22.897 -16.464  0.00  0.00    +0.039 C 
ATOM      5  C   UNL     1      31.263 -22.710 -15.071  0.00  0.00    -0.019 C 
ATOM      6  C   UNL     1      32.108 -23.425 -14.014  0.00  0.00    -0.077 C 
ATOM      7  H   UNL     1      33.518 -21.970 -13.893  0.00  0.00    -0.079 HD
ENDROOT
BRANCH   2   8
ATOM      8  O   UNL     1      33.864 -22.838 -17.754  0.00  0.00    -0.481 OA
BRANCH   8   9
ATOM      9  C   UNL     1      34.002 -21.816 -18.655  0.00  0.00    +0.138 C 
ATOM     10  C   UNL     1      32.870 -21.221 -19.201  0.00  0.00    +0.038 C 
ATOM     11  C   UNL     1      35.273 -21.382 -19.017  0.00  0.00    +0.038 C 
ATOM     12  C   UNL     1      33.010 -20.180 -20.120  0.00  0.00    +0.018 C 
ATOM     13  C   UNL     1      35.413 -20.341 -19.934  0.00  0.00    +0.018 C 
ATOM     14  C   UNL     1      34.282 -19.740 -20.486  0.00  0.00    +0.057 C 
BRANCH  14  15
ATOM     15  N   UNL     1      34.421 -18.708 -21.395  0.00  0.00    -0.246 N 
ATOM     16  N   UNL     1      34.955 -16.707 -22.220  0.00  0.00    -0.224 NA
ATOM     17  C   UNL     1      34.052 -18.726 -22.716  0.00  0.00    +0.092 C 
ATOM     18  C   UNL     1      34.959 -17.469 -21.150  0.00  0.00    +0.172 C 
ATOM     19  C   UNL     1      34.391 -17.485 -23.200  0.00  0.00    +0.117 C 
ENDBRANCH  14  15
ENDBRANCH   8   9
ENDBRANCH   2   8
BRANCH   1  20
ATOM     20  C   UNL     1      34.289 -23.633 -13.014  0.00  0.00    -0.050 C 
BRANCH  20  23
ATOM     21  O   UNL     1      39.174 -23.947 -13.660  0.00  0.00    -0.435 OA
ATOM     22  O   UNL     1      38.985 -25.936 -15.007  0.00  0.00    -0.435 OA
ATOM     23  C   UNL     1      35.532 -24.279 -13.566  0.00  0.00    -0.040 C 
ATOM     24  C   UNL     1      36.773 -23.716 -13.288  0.00  0.00    +0.034 C 
ATOM     25  C   UNL     1      35.411 -25.434 -14.348  0.00  0.00    -0.003 C 
ATOM     26  C   UNL     1      37.882 -24.344 -13.816  0.00  0.00    +0.176 C 
ATOM     27  C   UNL     1      36.550 -26.050 -14.870  0.00  0.00    +0.040 C 
ATOM     28  C   UNL     1      37.774 -25.479 -14.586  0.00  0.00    +0.176 C 
ATOM     29  C   UNL     1      39.867 -24.961 -14.416  0.00  0.00    +0.429 C 
ENDBRANCH  20  23
ENDBRANCH   1  20
TORSDOF 5
ENDMDL
MODEL 3
REMARK VINA RESULT:     -12.5      4.583      8.777
REMARK  Name = 11740318
REMARK  5 active torsions:
REMARK  status: ('A' for Active; 'I' for Inactive)
REMARK    1  A    between atoms: N_1  and  C_20
REMARK    2  A    between atoms: C_2  and  O_8
REMARK    3  A    between atoms: O_8  and  C_9
REMARK    4  A    between atoms: C_14  and  N_15
REMARK    5  A    between atoms: C_20  and  C_23
REMARK                            x       y       z     vdW  Elec       q    Type
REMARK                         _______ _______ _______ _____ _____    ______ ____
ROOT
ATOM      1  N   UNL     1      33.338 -23.360 -14.098  0.00  0.00    +0.392 N 
ATOM      2  C   UNL     1      33.222 -22.619 -16.458  0.00  0.00    +0.145 C 
ATOM      3  C   UNL     1      33.815 -23.621 -15.463  0.00  0.00    -0.032 C 
ATOM      4  C   UNL     1      31.697 -22.622 -16.400  0.00  0.00    +0.039 C 
ATOM      5  C   UNL     1      31.217 -22.428 -14.968  0.00  0.00    -0.019 C 
ATOM      6  C   UNL     1      31.873 -23.437 -14.023  0.00  0.00    -0.077 C 
ATOM      7  H   UNL     1      33.617 -22.412 -13.845  0.00  0.00    -0.079 HD
ENDROOT
BRANCH   2   8
ATOM      8  O   UNL     1      33.626 -22.958 -17.780  0.00  0.00    -0.481 OA
BRANCH   8   9
ATOM      9  C   UNL     1      33.818 -21.919 -18.651  0.00  0.00    +0.138 C 
ATOM     10  C   UNL     1      32.719 -21.279 -19.214  0.00  0.00    +0.038 C 
ATOM     11  C   UNL     1      35.111 -21.513 -18.965  0.00  0.00    +0.038 C 
ATOM     12  C   UNL     1      32.915 -20.220 -20.101  0.00  0.00    +0.018 C 
ATOM     13  C   UNL     1      35.307 -20.455 -19.852  0.00  0.00    +0.018 C 
ATOM     14  C   UNL     1      34.209 -19.808 -20.420  0.00  0.00    +0.057 C 
BRANCH  14  15
ATOM     15  N   UNL     1      34.404 -18.759 -21.299  0.00  0.00    -0.246 N 
ATOM     16  N   UNL     1      34.433 -17.610 -23.209  0.00  0.00    -0.224 NA
ATOM     17  C   UNL     1      34.888 -17.513 -20.991  0.00  0.00    +0.092 C 
ATOM     18  C   UNL     1      34.145 -18.762 -22.647  0.00  0.00    +0.172 C 
ATOM     19  C   UNL     1      34.896 -16.826 -22.181  0.00  0.00    +0.117 C 
ENDBRANCH  14  15
ENDBRANCH   8   9
ENDBRANCH   2   8
BRANCH   1  20
ATOM     20  C   UNL     1      33.950 -24.295 -13.155  0.00  0.00    -0.050 C 
BRANCH  20  23
ATOM     21  O   UNL     1      38.345 -26.184 -14.376  0.00  0.00    -0.435 OA
ATOM     22  O   UNL     1      39.537 -24.290 -13.482  0.00  0.00    -0.435 OA
ATOM     23  C   UNL     1      35.453 -24.261 -13.226  0.00  0.00    -0.040 C 
ATOM     24  C   UNL     1      36.131 -25.325 -13.810  0.00  0.00    +0.034 C 
ATOM     25  C   UNL     1      36.136 -23.156 -12.704  0.00  0.00    -0.003 C 
ATOM     26  C   UNL     1      37.508 -25.248 -13.852  0.00  0.00    +0.176 C 
ATOM     27  C   UNL     1      37.530 -23.102 -12.760  0.00  0.00    +0.040 C 
ATOM     28  C   UNL     1      38.189 -24.167 -13.341  0.00  0.00    +0.176 C 
ATOM     29  C   UNL     1      39.629 -25.570 -14.140  0.00  0.00    +0.429 C 
ENDBRANCH  20  23
ENDBRANCH   1  20
TORSDOF 5
ENDMDL
MODEL 4
REMARK VINA RESULT:     -12.1      2.190      3.412
REMARK  Name = 11740318
REMARK  5 active torsions:
REMARK  status: ('A' for Active; 'I' for Inactive)
REMARK    1  A    between atoms: N_1  and  C_20
REMARK    2  A    between atoms: C_2  and  O_8
REMARK    3  A    between atoms: O_8  and  C_9
REMARK    4  A    between atoms: C_14  and  N_15
REMARK    5  A    between atoms: C_20  and  C_23
REMARK                            x       y       z     vdW  Elec       q    Type
REMARK                         _______ _______ _______ _____ _____    ______ ____
ROOT
ATOM      1  N   UNL     1      35.176 -20.211 -19.417  0.00  0.00    +0.392 N 
ATOM      2  C   UNL     1      34.661 -18.306 -20.912  0.00  0.00    +0.145 C 
ATOM      3  C   UNL     1      35.739 -19.252 -20.376  0.00  0.00    -0.032 C 
ATOM      4  C   UNL     1      33.504 -19.085 -21.531  0.00  0.00    +0.039 C 
ATOM      5  C   UNL     1      32.980 -20.129 -20.555  0.00  0.00    -0.019 C 
ATOM      6  C   UNL     1      34.112 -21.016 -20.032  0.00  0.00    -0.077 C 
ATOM      7  H   UNL     1      34.765 -19.681 -18.648  0.00  0.00    -0.079 HD
ENDROOT
BRANCH   2   8
ATOM      8  O   UNL     1      35.219 -17.456 -21.908  0.00  0.00    -0.481 OA
BRANCH   8   9
ATOM      9  C   UNL     1      34.648 -16.220 -22.053  0.00  0.00    +0.138 C 
ATOM     10  C   UNL     1      34.489 -15.679 -23.324  0.00  0.00    +0.038 C 
ATOM     11  C   UNL     1      34.231 -15.517 -20.928  0.00  0.00    +0.038 C 
ATOM     12  C   UNL     1      33.907 -14.419 -23.473  0.00  0.00    +0.018 C 
ATOM     13  C   UNL     1      33.650 -14.258 -21.076  0.00  0.00    +0.018 C 
ATOM     14  C   UNL     1      33.487 -13.709 -22.348  0.00  0.00    +0.057 C 
BRANCH  14  15
ATOM     15  N   UNL     1      32.909 -12.461 -22.494  0.00  0.00    -0.246 N 
ATOM     16  N   UNL     1      31.557 -10.728 -22.126  0.00  0.00    -0.224 NA
ATOM     17  C   UNL     1      33.254 -11.503 -23.413  0.00  0.00    +0.092 C 
ATOM     18  C   UNL     1      31.883 -11.943 -21.745  0.00  0.00    +0.172 C 
ATOM     19  C   UNL     1      32.409 -10.448 -23.165  0.00  0.00    +0.117 C 
ENDBRANCH  14  15
ENDBRANCH   8   9
ENDBRANCH   2   8
BRANCH   1  20
ATOM     20  C   UNL     1      36.227 -21.075 -18.880  0.00  0.00    -0.050 C 
BRANCH  20  23
ATOM     21  O   UNL     1      37.252 -22.225 -14.189  0.00  0.00    -0.435 OA
ATOM     22  O   UNL     1      35.025 -23.052 -13.784  0.00  0.00    -0.435 OA
ATOM     23  C   UNL     1      35.869 -21.614 -17.520  0.00  0.00    -0.040 C 
ATOM     24  C   UNL     1      36.832 -21.624 -16.517  0.00  0.00    +0.034 C 
ATOM     25  C   UNL     1      34.573 -22.093 -17.295  0.00  0.00    -0.003 C 
ATOM     26  C   UNL     1      36.457 -22.128 -15.289  0.00  0.00    +0.176 C 
ATOM     27  C   UNL     1      34.219 -22.597 -16.042  0.00  0.00    +0.040 C 
ATOM     28  C   UNL     1      35.185 -22.601 -15.058  0.00  0.00    +0.176 C 
ATOM     29  C   UNL     1      36.338 -22.810 -13.239  0.00  0.00    +0.429 C 
ENDBRANCH  20  23
ENDBRANCH   1  20
TORSDOF 5
ENDMDL
MODEL 5
REMARK VINA RESULT:     -11.6      2.067      3.776
REMARK  Name = 11740318
REMARK  5 active torsions:
REMARK  status: ('A' for Active; 'I' for Inactive)
REMARK    1  A    between atoms: N_1  and  C_20
REMARK    2  A    between atoms: C_2  and  O_8
REMARK    3  A    between atoms: O_8  and  C_9
REMARK    4  A    between atoms: C_14  and  N_15
REMARK    5  A    between atoms: C_20  and  C_23
REMARK                            x       y       z     vdW  Elec       q    Type
REMARK                         _______ _______ _______ _____ _____    ______ ____
ROOT
ATOM      1  N   UNL     1      34.441 -15.429 -22.488  0.00  0.00    +0.392 N 
ATOM      2  C   UNL     1      33.312 -13.228 -22.580  0.00  0.00    +0.145 C 
ATOM      3  C   UNL     1      33.443 -14.621 -23.201  0.00  0.00    -0.032 C 
ATOM      4  C   UNL     1      32.983 -13.317 -21.092  0.00  0.00    +0.039 C 
ATOM      5  C   UNL     1      33.979 -14.220 -20.379  0.00  0.00    -0.019 C 
ATOM      6  C   UNL     1      34.088 -15.581 -21.070  0.00  0.00    -0.077 C 
ATOM      7  H   UNL     1      35.334 -14.940 -22.539  0.00  0.00    -0.079 HD
ENDROOT
BRANCH   2   8
ATOM      8  O   UNL     1      32.272 -12.507 -23.231  0.00  0.00    -0.481 OA
BRANCH   8   9
ATOM      9  C   UNL     1      32.054 -11.223 -22.808  0.00  0.00    +0.138 C 
ATOM     10  C   UNL     1      31.079 -10.969 -21.850  0.00  0.00    +0.038 C 
ATOM     11  C   UNL     1      32.811 -10.184 -23.340  0.00  0.00    +0.038 C 
ATOM     12  C   UNL     1      30.857  -9.660 -21.419  0.00  0.00    +0.018 C 
ATOM     13  C   UNL     1      32.590  -8.877 -22.909  0.00  0.00    +0.018 C 
ATOM     14  C   UNL     1      31.612  -8.614 -21.949  0.00  0.00    +0.057 C 
BRANCH  14  15
ATOM     15  N   UNL     1      31.393  -7.317 -21.521  0.00  0.00    -0.246 N 
ATOM     16  N   UNL     1      31.471  -5.500 -20.232  0.00  0.00    -0.224 NA
ATOM     17  C   UNL     1      30.691  -6.345 -22.185  0.00  0.00    +0.092 C 
ATOM     18  C   UNL     1      31.841  -6.756 -20.351  0.00  0.00    +0.172 C 
ATOM     19  C   UNL     1      30.754  -5.238 -21.373  0.00  0.00    +0.117 C 
ENDBRANCH  14  15
ENDBRANCH   8   9
ENDBRANCH   2   8
BRANCH   1  20
ATOM     20  C   UNL     1      34.587 -16.739 -23.123  0.00  0.00    -0.050 C 
BRANCH  20  23
ATOM     21  O   UNL     1      33.423 -20.530 -20.181  0.00  0.00    -0.435 OA
ATOM     22  O   UNL     1      35.690 -20.771 -19.402  0.00  0.00    -0.435 OA
ATOM     23  C   UNL     1      34.920 -17.813 -22.122  0.00  0.00    -0.040 C 
ATOM     24  C   UNL     1      33.910 -18.652 -21.663  0.00  0.00    +0.034 C 
ATOM     25  C   UNL     1      36.240 -17.945 -21.675  0.00  0.00    -0.003 C 
ATOM     26  C   UNL     1      34.263 -19.621 -20.747  0.00  0.00    +0.176 C 
ATOM     27  C   UNL     1      36.571 -18.935 -20.748  0.00  0.00    +0.040 C 
ATOM     28  C   UNL     1      35.558 -19.758 -20.301  0.00  0.00    +0.176 C 
ATOM     29  C   UNL     1      34.334 -21.256 -19.332  0.00  0.00    +0.429 C 
ENDBRANCH  20  23
ENDBRANCH   1  20
TORSDOF 5
ENDMDL
MODEL 6
REMARK VINA RESULT:     -11.6      2.419      4.245
REMARK  Name = 11740318
REMARK  5 active torsions:
REMARK  status: ('A' for Active; 'I' for Inactive)
REMARK    1  A    between atoms: N_1  and  C_20
REMARK    2  A    between atoms: C_2  and  O_8
REMARK    3  A    between atoms: O_8  and  C_9
REMARK    4  A    between atoms: C_14  and  N_15
REMARK    5  A    between atoms: C_20  and  C_23
REMARK                            x       y       z     vdW  Elec       q    Type
REMARK                         _______ _______ _______ _____ _____    ______ ____
ROOT
ATOM      1  N   UNL     1      35.195 -20.679 -18.854  0.00  0.00    +0.392 N 
ATOM      2  C   UNL     1      34.580 -19.164 -20.714  0.00  0.00    +0.145 C 
ATOM      3  C   UNL     1      35.653 -20.078 -20.114  0.00  0.00    -0.032 C 
ATOM      4  C   UNL     1      33.266 -19.914 -20.910  0.00  0.00    +0.039 C 
ATOM      5  C   UNL     1      32.842 -20.597 -19.617  0.00  0.00    -0.019 C 
ATOM      6  C   UNL     1      33.970 -21.464 -19.054  0.00  0.00    -0.077 C 
ATOM      7  H   UNL     1      34.980 -19.921 -18.206  0.00  0.00    -0.079 HD
ENDROOT
BRANCH   2   8
ATOM      8  O   UNL     1      35.016 -18.676 -21.978  0.00  0.00    -0.481 OA
BRANCH   8   9
ATOM      9  C   UNL     1      34.630 -17.406 -22.314  0.00  0.00    +0.138 C 
ATOM     10  C   UNL     1      34.572 -16.421 -21.334  0.00  0.00    +0.038 C 
ATOM     11  C   UNL     1      34.300 -17.112 -23.633  0.00  0.00    +0.038 C 
ATOM     12  C   UNL     1      34.178 -15.127 -21.677  0.00  0.00    +0.018 C 
ATOM     13  C   UNL     1      33.907 -15.819 -23.976  0.00  0.00    +0.018 C 
ATOM     14  C   UNL     1      33.846 -14.826 -22.997  0.00  0.00    +0.057 C 
BRANCH  14  15
ATOM     15  N   UNL     1      33.457 -13.543 -23.338  0.00  0.00    -0.246 N 
ATOM     16  N   UNL     1      32.663 -11.854 -24.556  0.00  0.00    -0.224 NA
ATOM     17  C   UNL     1      33.513 -12.432 -22.536  0.00  0.00    +0.092 C 
ATOM     18  C   UNL     1      32.938 -13.139 -24.543  0.00  0.00    +0.172 C 
ATOM     19  C   UNL     1      33.019 -11.407 -23.308  0.00  0.00    +0.117 C 
ENDBRANCH  14  15
ENDBRANCH   8   9
ENDBRANCH   2   8
BRANCH   1  20
ATOM     20  C   UNL     1      36.248 -21.510 -18.272  0.00  0.00    -0.050 C 
BRANCH  20  23
ATOM     21  O   UNL     1      33.156 -23.228 -14.826  0.00  0.00    -0.435 OA
ATOM     22  O   UNL     1      34.849 -23.167 -13.112  0.00  0.00    -0.435 OA
ATOM     23  C   UNL     1      35.906 -21.949 -16.872  0.00  0.00    -0.040 C 
ATOM     24  C   UNL     1      34.616 -22.384 -16.592  0.00  0.00    +0.034 C 
ATOM     25  C   UNL     1      36.897 -21.909 -15.884  0.00  0.00    -0.003 C 
ATOM     26  C   UNL     1      34.351 -22.776 -15.296  0.00  0.00    +0.176 C 
ATOM     27  C   UNL     1      36.602 -22.312 -14.580  0.00  0.00    +0.040 C 
ATOM     28  C   UNL     1      35.318 -22.741 -14.317  0.00  0.00    +0.176 C 
ATOM     29  C   UNL     1      33.479 -23.475 -13.443  0.00  0.00    +0.429 C 
ENDBRANCH  20  23
ENDBRANCH   1  20
TORSDOF 5
ENDMDL
MODEL 7
REMARK VINA RESULT:     -11.1      7.195     11.097
REMARK  Name = 11740318
REMARK  5 active torsions:
REMARK  status: ('A' for Active; 'I' for Inactive)
REMARK    1  A    between atoms: N_1  and  C_20
REMARK    2  A    between atoms: C_2  and  O_8
REMARK    3  A    between atoms: O_8  and  C_9
REMARK    4  A    between atoms: C_14  and  N_15
REMARK    5  A    between atoms: C_20  and  C_23
REMARK                            x       y       z     vdW  Elec       q    Type
REMARK                         _______ _______ _______ _____ _____    ______ ____
ROOT
ATOM      1  N   UNL     1      36.021 -22.602 -13.853  0.00  0.00    +0.392 N 
ATOM      2  C   UNL     1      34.062 -23.305 -12.512  0.00  0.00    +0.145 C 
ATOM      3  C   UNL     1      34.839 -23.472 -13.821  0.00  0.00    -0.032 C 
ATOM      4  C   UNL     1      34.960 -23.556 -11.304  0.00  0.00    +0.039 C 
ATOM      5  C   UNL     1      36.219 -22.705 -11.388  0.00  0.00    -0.019 C 
ATOM      6  C   UNL     1      36.926 -22.893 -12.732  0.00  0.00    -0.077 C 
ATOM      7  H   UNL     1      35.703 -21.637 -13.757  0.00  0.00    -0.079 HD
ENDROOT
BRANCH   2   8
ATOM      8  O   UNL     1      32.981 -24.229 -12.472  0.00  0.00    -0.481 OA
BRANCH   8   9
ATOM      9  C   UNL     1      31.892 -23.937 -13.250  0.00  0.00    +0.138 C 
ATOM     10  C   UNL     1      30.987 -24.941 -13.573  0.00  0.00    +0.038 C 
ATOM     11  C   UNL     1      31.702 -22.638 -13.709  0.00  0.00    +0.038 C 
ATOM     12  C   UNL     1      29.877 -24.644 -14.366  0.00  0.00    +0.018 C 
ATOM     13  C   UNL     1      30.593 -22.340 -14.501  0.00  0.00    +0.018 C 
ATOM     14  C   UNL     1      29.680 -23.343 -14.829  0.00  0.00    +0.057 C 
BRANCH  14  15
ATOM     15  N   UNL     1      28.581 -23.048 -15.614  0.00  0.00    -0.246 N 
ATOM     16  N   UNL     1      26.987 -23.287 -17.154  0.00  0.00    -0.224 NA
ATOM     17  C   UNL     1      27.829 -21.902 -15.570  0.00  0.00    +0.092 C 
ATOM     18  C   UNL     1      28.030 -23.848 -16.585  0.00  0.00    +0.172 C 
ATOM     19  C   UNL     1      26.856 -22.074 -16.526  0.00  0.00    +0.117 C 
ENDBRANCH  14  15
ENDBRANCH   8   9
ENDBRANCH   2   8
BRANCH   1  20
ATOM     20  C   UNL     1      36.724 -22.739 -15.128  0.00  0.00    -0.050 C 
BRANCH  20  23
ATOM     21  O   UNL     1      35.961 -20.343 -19.378  0.00  0.00    -0.435 OA
ATOM     22  O   UNL     1      33.659 -21.045 -19.494  0.00  0.00    -0.435 OA
ATOM     23  C   UNL     1      35.870 -22.302 -16.289  0.00  0.00    -0.040 C 
ATOM     24  C   UNL     1      36.427 -21.499 -17.278  0.00  0.00    +0.034 C 
ATOM     25  C   UNL     1      34.534 -22.715 -16.347  0.00  0.00    -0.003 C 
ATOM     26  C   UNL     1      35.605 -21.124 -18.321  0.00  0.00    +0.176 C 
ATOM     27  C   UNL     1      33.724 -22.322 -17.415  0.00  0.00    +0.040 C 
ATOM     28  C   UNL     1      34.290 -21.525 -18.388  0.00  0.00    +0.176 C 
ATOM     29  C   UNL     1      34.724 -20.299 -20.117  0.00  0.00    +0.429 C 
ENDBRANCH  20  23
ENDBRANCH   1  20
TORSDOF 5
ENDMDL
MODEL 8
REMARK VINA RESULT:     -10.8      7.826     11.063
REMARK  Name = 11740318
REMARK  5 active torsions:
REMARK  status: ('A' for Active; 'I' for Inactive)
REMARK    1  A    between atoms: N_1  and  C_20
REMARK    2  A    between atoms: C_2  and  O_8
REMARK    3  A    between atoms: O_8  and  C_9
REMARK    4  A    between atoms: C_14  and  N_15
REMARK    5  A    between atoms: C_20  and  C_23
REMARK                            x       y       z     vdW  Elec       q    Type
REMARK                         _______ _______ _______ _____ _____    ______ ____
ROOT
ATOM      1  N   UNL     1      36.018 -22.720 -13.853  0.00  0.00    +0.392 N 
ATOM      2  C   UNL     1      33.998 -23.364 -12.574  0.00  0.00    +0.145 C 
ATOM      3  C   UNL     1      34.820 -23.570 -13.850  0.00  0.00    -0.032 C 
ATOM      4  C   UNL     1      34.844 -23.606 -11.328  0.00  0.00    +0.039 C 
ATOM      5  C   UNL     1      36.121 -22.777 -11.381  0.00  0.00    -0.019 C 
ATOM      6  C   UNL     1      36.874 -23.004 -12.693  0.00  0.00    -0.077 C 
ATOM      7  H   UNL     1      35.713 -21.749 -13.789  0.00  0.00    -0.079 HD
ENDROOT
BRANCH   2   8
ATOM      8  O   UNL     1      32.900 -24.269 -12.559  0.00  0.00    -0.481 OA
BRANCH   8   9
ATOM      9  C   UNL     1      31.818 -23.939 -13.330  0.00  0.00    +0.138 C 
ATOM     10  C   UNL     1      31.814 -22.739 -14.034  0.00  0.00    +0.038 C 
ATOM     11  C   UNL     1      30.732 -24.806 -13.403  0.00  0.00    +0.038 C 
ATOM     12  C   UNL     1      30.711 -22.402 -14.820  0.00  0.00    +0.018 C 
ATOM     13  C   UNL     1      29.630 -24.469 -14.188  0.00  0.00    +0.018 C 
ATOM     14  C   UNL     1      29.620 -23.268 -14.897  0.00  0.00    +0.057 C 
BRANCH  14  15
ATOM     15  N   UNL     1      28.527 -22.935 -15.677  0.00  0.00    -0.246 N 
ATOM     16  N   UNL     1      27.027 -23.030 -17.323  0.00  0.00    -0.224 NA
ATOM     17  C   UNL     1      27.661 -21.892 -15.469  0.00  0.00    +0.092 C 
ATOM     18  C   UNL     1      28.099 -23.587 -16.806  0.00  0.00    +0.172 C 
ATOM     19  C   UNL     1      26.749 -21.972 -16.493  0.00  0.00    +0.117 C 
ENDBRANCH  14  15
ENDBRANCH   8   9
ENDBRANCH   2   8
BRANCH   1  20
ATOM     20  C   UNL     1      36.766 -22.895 -15.097  0.00  0.00    -0.050 C 
BRANCH  20  23
ATOM     21  O   UNL     1      32.729 -22.231 -17.861  0.00  0.00    -0.435 OA
ATOM     22  O   UNL     1      33.903 -20.853 -19.451  0.00  0.00    -0.435 OA
ATOM     23  C   UNL     1      36.027 -22.329 -16.281  0.00  0.00    -0.040 C 
ATOM     24  C   UNL     1      34.674 -22.611 -16.436  0.00  0.00    +0.034 C 
ATOM     25  C   UNL     1      36.719 -21.530 -17.199  0.00  0.00    -0.003 C 
ATOM     26  C   UNL     1      34.041 -22.069 -17.535  0.00  0.00    +0.176 C 
ATOM     27  C   UNL     1      36.053 -20.993 -18.303  0.00  0.00    +0.040 C 
ATOM     28  C   UNL     1      34.711 -21.283 -18.444  0.00  0.00    +0.176 C 
ATOM     29  C   UNL     1      32.649 -21.456 -19.075  0.00  0.00    +0.429 C 
ENDBRANCH  20  23
ENDBRANCH   1  20
TORSDOF 5
ENDMDL
MODEL 9
REMARK VINA RESULT:     -10.7      3.801     10.147
REMARK  Name = 11740318
REMARK  5 active torsions:
REMARK  status: ('A' for Active; 'I' for Inactive)
REMARK    1  A    between atoms: N_1  and  C_20
REMARK    2  A    between atoms: C_2  and  O_8
REMARK    3  A    between atoms: O_8  and  C_9
REMARK    4  A    between atoms: C_14  and  N_15
REMARK    5  A    between atoms: C_20  and  C_23
REMARK                            x       y       z     vdW  Elec       q    Type
REMARK                         _______ _______ _______ _____ _____    ______ ____
ROOT
ATOM      1  N   UNL     1      34.967 -19.453 -20.932  0.00  0.00    +0.392 N 
ATOM      2  C   UNL     1      34.637 -21.419 -19.464  0.00  0.00    +0.145 C 
ATOM      3  C   UNL     1      35.534 -20.231 -19.823  0.00  0.00    -0.032 C 
ATOM      4  C   UNL     1      33.218 -20.959 -19.141  0.00  0.00    +0.039 C 
ATOM      5  C   UNL     1      32.671 -20.088 -20.264  0.00  0.00    -0.019 C 
ATOM      6  C   UNL     1      33.630 -18.944 -20.596  0.00  0.00    -0.077 C 
ATOM      7  H   UNL     1      34.874 -20.074 -21.735  0.00  0.00    -0.079 HD
ENDROOT
BRANCH   2   8
ATOM      8  O   UNL     1      35.163 -22.093 -18.326  0.00  0.00    -0.481 OA
BRANCH   8   9
ATOM      9  C   UNL     1      34.274 -22.421 -17.338  0.00  0.00    +0.138 C 
ATOM     10  C   UNL     1      32.984 -22.816 -17.674  0.00  0.00    +0.038 C 
ATOM     11  C   UNL     1      34.670 -22.356 -16.006  0.00  0.00    +0.038 C 
ATOM     12  C   UNL     1      32.078 -23.150 -16.667  0.00  0.00    +0.018 C 
ATOM     13  C   UNL     1      33.764 -22.689 -14.999  0.00  0.00    +0.018 C 
ATOM     14  C   UNL     1      32.469 -23.087 -15.330  0.00  0.00    +0.057 C 
BRANCH  14  15
ATOM     15  N   UNL     1      31.571 -23.419 -14.331  0.00  0.00    -0.246 N 
ATOM     16  N   UNL     1      30.414 -23.281 -12.430  0.00  0.00    -0.224 NA
ATOM     17  C   UNL     1      30.752 -24.518 -14.300  0.00  0.00    +0.092 C 
ATOM     18  C   UNL     1      31.327 -22.708 -13.182  0.00  0.00    +0.172 C 
ATOM     19  C   UNL     1      30.051 -24.410 -13.122  0.00  0.00    +0.117 C 
ENDBRANCH  14  15
ENDBRANCH   8   9
ENDBRANCH   2   8
BRANCH   1  20
ATOM     20  C   UNL     1      35.859 -18.351 -21.292  0.00  0.00    -0.050 C 
BRANCH  20  23
ATOM     21  O   UNL     1      33.815 -16.064 -25.162  0.00  0.00    -0.435 OA
ATOM     22  O   UNL     1      33.096 -14.194 -23.823  0.00  0.00    -0.435 OA
ATOM     23  C   UNL     1      35.113 -17.215 -21.941  0.00  0.00    -0.040 C 
ATOM     24  C   UNL     1      34.850 -17.265 -23.305  0.00  0.00    +0.034 C 
ATOM     25  C   UNL     1      34.700 -16.133 -21.154  0.00  0.00    -0.003 C 
ATOM     26  C   UNL     1      34.164 -16.201 -23.853  0.00  0.00    +0.176 C 
ATOM     27  C   UNL     1      34.006 -15.069 -21.734  0.00  0.00    +0.040 C 
ATOM     28  C   UNL     1      33.753 -15.132 -23.089  0.00  0.00    +0.176 C 
ATOM     29  C   UNL     1      33.138 -14.791 -25.135  0.00  0.00    +0.429 C 
ENDBRANCH  20  23
ENDBRANCH   1  20
TORSDOF 5
ENDMDL
