MODEL 1
REMARK VINA RESULT:     -13.7      0.000      0.000
REMARK  Name = 25151352
REMARK  5 active torsions:
REMARK  status: ('A' for Active; 'I' for Inactive)
REMARK    1  A    between atoms: N_1  and  C_21
REMARK    2  A    between atoms: C_3  and  C_9
REMARK    3  A    between atoms: C_9  and  C_13
REMARK    4  A    between atoms: C_21  and  C_23
REMARK    5  A    between atoms: C_27  and  C_31
REMARK                            x       y       z     vdW  Elec       q    Type
REMARK                         _______ _______ _______ _____ _____    ______ ____
ROOT
ATOM      1  N   UNL     1      35.484 -16.577 -22.341  0.00  0.00    -0.314 N 
ATOM      2  N   UNL     1      36.421 -18.087 -20.753  0.00  0.00    -0.230 NA
ATOM      3  C   UNL     1      35.241 -20.125 -20.211  0.00  0.00    +0.002 C 
ATOM      4  C   UNL     1      34.226 -19.783 -21.098  0.00  0.00    +0.000 C 
ATOM      5  C   UNL     1      36.307 -19.251 -20.075  0.00  0.00    +0.096 C 
ATOM      6  C   UNL     1      35.415 -17.787 -21.605  0.00  0.00    +0.129 C 
ATOM      7  C   UNL     1      34.307 -18.593 -21.812  0.00  0.00    +0.034 C 
ATOM      8  H   UNL     1      36.261 -15.989 -22.210  0.00  0.00    +0.149 HD
ENDROOT
BRANCH   3   9
ATOM      9  C   UNL     1      35.181 -21.421 -19.416  0.00  0.00    +0.056 C 
BRANCH   9  13
ATOM     10 CL   UNL     1      34.982 -23.893 -14.019  0.00  0.00    -0.081 Cl
ATOM     11  N   UNL     1      31.727 -21.699 -18.248  0.00  0.00    -0.297 N 
ATOM     12  N   UNL     1      31.755 -22.709 -16.061  0.00  0.00    -0.228 NA
ATOM     13  C   UNL     1      33.902 -21.648 -18.712  0.00  0.00    -0.000 C 
ATOM     14  C   UNL     1      33.735 -22.229 -17.427  0.00  0.00    +0.030 C 
ATOM     15  C   UNL     1      32.368 -22.245 -17.167  0.00  0.00    +0.132 C 
ATOM     16  C   UNL     1      32.649 -21.333 -19.193  0.00  0.00    +0.059 C 
ATOM     17  C   UNL     1      34.587 -22.748 -16.439  0.00  0.00    +0.015 C 
ATOM     18  C   UNL     1      34.005 -23.242 -15.273  0.00  0.00    +0.077 C 
ATOM     19  C   UNL     1      32.624 -23.198 -15.145  0.00  0.00    +0.112 C 
ATOM     20  H   UNL     1      30.753 -21.586 -18.333  0.00  0.00    +0.154 HD
ENDBRANCH   9  13
ENDBRANCH   3   9
BRANCH   1  21
ATOM     21  C   UNL     1      34.471 -16.180 -23.263  0.00  0.00    +0.117 C 
BRANCH  21  23
ATOM     22  N   UNL     1      32.408 -13.008 -23.266  0.00  0.00    -0.240 NA
ATOM     23  C   UNL     1      33.768 -14.944 -22.772  0.00  0.00    +0.017 C 
ATOM     24  C   UNL     1      33.807 -14.583 -21.429  0.00  0.00    +0.000 C 
ATOM     25  C   UNL     1      33.061 -14.130 -23.642  0.00  0.00    +0.096 C 
ATOM     26  C   UNL     1      33.148 -13.434 -21.005  0.00  0.00    +0.023 C 
ATOM     27  C   UNL     1      32.468 -12.688 -21.954  0.00  0.00    +0.153 C 
BRANCH  27  31
ATOM     28  F   UNL     1      32.192 -10.321 -22.161  0.00  0.00    -0.164 F 
ATOM     29  F   UNL     1      30.406 -11.489 -21.775  0.00  0.00    -0.164 F 
ATOM     30  F   UNL     1      31.874 -11.200 -20.197  0.00  0.00    -0.164 F 
ATOM     31  C   UNL     1      31.749 -11.450 -21.533  0.00  0.00    +0.435 C 
ENDBRANCH  27  31
ENDBRANCH  21  23
ENDBRANCH   1  21
TORSDOF 5
ENDMDL
MODEL 2
REMARK VINA RESULT:     -13.6      6.103     10.617
REMARK  Name = 25151352
REMARK  5 active torsions:
REMARK  status: ('A' for Active; 'I' for Inactive)
REMARK    1  A    between atoms: N_1  and  C_21
REMARK    2  A    between atoms: C_3  and  C_9
REMARK    3  A    between atoms: C_9  and  C_13
REMARK    4  A    between atoms: C_21  and  C_23
REMARK    5  A    between atoms: C_27  and  C_31
REMARK                            x       y       z     vdW  Elec       q    Type
REMARK                         _______ _______ _______ _____ _____    ______ ____
ROOT
ATOM      1  N   UNL     1      35.929 -20.696 -18.865  0.00  0.00    -0.314 N 
ATOM      2  N   UNL     1      36.529 -18.914 -20.330  0.00  0.00    -0.230 NA
ATOM      3  C   UNL     1      34.877 -18.016 -21.848  0.00  0.00    +0.002 C 
ATOM      4  C   UNL     1      33.933 -18.915 -21.364  0.00  0.00    +0.000 C 
ATOM      5  C   UNL     1      36.149 -18.055 -21.303  0.00  0.00    +0.096 C 
ATOM      6  C   UNL     1      35.585 -19.773 -19.885  0.00  0.00    +0.129 C 
ATOM      7  C   UNL     1      34.285 -19.814 -20.364  0.00  0.00    +0.034 C 
ATOM      8  H   UNL     1      36.846 -20.686 -18.509  0.00  0.00    +0.149 HD
ENDROOT
BRANCH   3   9
ATOM      9  C   UNL     1      34.521 -17.019 -22.941  0.00  0.00    +0.056 C 
BRANCH   9  13
ATOM     10 CL   UNL     1      32.512 -12.786 -26.591  0.00  0.00    -0.081 Cl
ATOM     11  N   UNL     1      33.821 -13.943 -21.091  0.00  0.00    -0.297 N 
ATOM     12  N   UNL     1      33.015 -12.297 -22.655  0.00  0.00    -0.228 NA
ATOM     13  C   UNL     1      34.161 -15.674 -22.447  0.00  0.00    -0.000 C 
ATOM     14  C   UNL     1      33.674 -14.590 -23.223  0.00  0.00    +0.030 C 
ATOM     15  C   UNL     1      33.471 -13.526 -22.349  0.00  0.00    +0.132 C 
ATOM     16  C   UNL     1      34.241 -15.246 -21.139  0.00  0.00    +0.059 C 
ATOM     17  C   UNL     1      33.375 -14.377 -24.579  0.00  0.00    +0.015 C 
ATOM     18  C   UNL     1      32.899 -13.121 -24.951  0.00  0.00    +0.077 C 
ATOM     19  C   UNL     1      32.745 -12.149 -23.973  0.00  0.00    +0.112 C 
ATOM     20  H   UNL     1      33.776 -13.391 -20.278  0.00  0.00    +0.154 HD
ENDBRANCH   9  13
ENDBRANCH   3   9
BRANCH   1  21
ATOM     21  C   UNL     1      34.998 -21.638 -18.335  0.00  0.00    +0.117 C 
BRANCH  21  23
ATOM     22  N   UNL     1      34.775 -23.011 -14.816  0.00  0.00    -0.240 NA
ATOM     23  C   UNL     1      35.397 -22.045 -16.943  0.00  0.00    +0.017 C 
ATOM     24  C   UNL     1      36.696 -21.852 -16.484  0.00  0.00    +0.000 C 
ATOM     25  C   UNL     1      34.483 -22.623 -16.078  0.00  0.00    +0.096 C 
ATOM     26  C   UNL     1      37.034 -22.238 -15.191  0.00  0.00    +0.023 C 
ATOM     27  C   UNL     1      36.046 -22.808 -14.405  0.00  0.00    +0.153 C 
BRANCH  27  31
ATOM     28  F   UNL     1      37.696 -23.528 -12.829  0.00  0.00    -0.164 F 
ATOM     29  F   UNL     1      36.085 -22.291 -12.069  0.00  0.00    -0.164 F 
ATOM     30  F   UNL     1      35.695 -24.355 -12.633  0.00  0.00    -0.164 F 
ATOM     31  C   UNL     1      36.375 -23.235 -13.013  0.00  0.00    +0.435 C 
ENDBRANCH  27  31
ENDBRANCH  21  23
ENDBRANCH   1  21
TORSDOF 5
ENDMDL
MODEL 3
REMARK VINA RESULT:     -13.5      5.497     10.246
REMARK  Name = 25151352
REMARK  5 active torsions:
REMARK  status: ('A' for Active; 'I' for Inactive)
REMARK    1  A    between atoms: N_1  and  C_21
REMARK    2  A    between atoms: C_3  and  C_9
REMARK    3  A    between atoms: C_9  and  C_13
REMARK    4  A    between atoms: C_21  and  C_23
REMARK    5  A    between atoms: C_27  and  C_31
REMARK                            x       y       z     vdW  Elec       q    Type
REMARK                         _______ _______ _______ _____ _____    ______ ____
ROOT
ATOM      1  N   UNL     1      35.103 -18.287 -22.699  0.00  0.00    -0.314 N 
ATOM      2  N   UNL     1      33.865 -16.831 -24.123  0.00  0.00    -0.230 NA
ATOM      3  C   UNL     1      33.519 -14.532 -23.462  0.00  0.00    +0.002 C 
ATOM      4  C   UNL     1      34.236 -14.753 -22.291  0.00  0.00    +0.000 C 
ATOM      5  C   UNL     1      33.363 -15.594 -24.338  0.00  0.00    +0.096 C 
ATOM      6  C   UNL     1      34.554 -17.009 -22.974  0.00  0.00    +0.129 C 
ATOM      7  C   UNL     1      34.766 -16.012 -22.035  0.00  0.00    +0.034 C 
ATOM      8  H   UNL     1      34.965 -19.010 -23.351  0.00  0.00    +0.149 HD
ENDROOT
BRANCH   3   9
ATOM      9  C   UNL     1      32.927 -13.165 -23.772  0.00  0.00    +0.056 C 
BRANCH   9  13
ATOM     10 CL   UNL     1      31.958  -7.307 -23.653  0.00  0.00    -0.081 Cl
ATOM     11  N   UNL     1      31.272 -12.191 -20.660  0.00  0.00    -0.297 N 
ATOM     12  N   UNL     1      30.925  -9.808 -20.710  0.00  0.00    -0.228 NA
ATOM     13  C   UNL     1      32.269 -12.509 -22.623  0.00  0.00    -0.000 C 
ATOM     14  C   UNL     1      31.988 -11.125 -22.486  0.00  0.00    +0.030 C 
ATOM     15  C   UNL     1      31.366 -10.960 -21.252  0.00  0.00    +0.132 C 
ATOM     16  C   UNL     1      31.818 -13.141 -21.484  0.00  0.00    +0.059 C 
ATOM     17  C   UNL     1      32.188  -9.976 -23.268  0.00  0.00    +0.015 C 
ATOM     18  C   UNL     1      31.749  -8.756 -22.755  0.00  0.00    +0.077 C 
ATOM     19  C   UNL     1      31.144  -8.735 -21.506  0.00  0.00    +0.112 C 
ATOM     20  H   UNL     1      30.873 -12.368 -19.778  0.00  0.00    +0.154 HD
ENDBRANCH   9  13
ENDBRANCH   3   9
BRANCH   1  21
ATOM     21  C   UNL     1      35.845 -18.566 -21.513  0.00  0.00    +0.117 C 
BRANCH  21  23
ATOM     22  N   UNL     1      35.126 -21.236 -18.931  0.00  0.00    -0.240 NA
ATOM     23  C   UNL     1      35.086 -19.515 -20.628  0.00  0.00    +0.017 C 
ATOM     24  C   UNL     1      33.696 -19.571 -20.662  0.00  0.00    +0.000 C 
ATOM     25  C   UNL     1      35.747 -20.361 -19.753  0.00  0.00    +0.096 C 
ATOM     26  C   UNL     1      33.022 -20.459 -19.831  0.00  0.00    +0.023 C 
ATOM     27  C   UNL     1      33.776 -21.262 -18.992  0.00  0.00    +0.153 C 
BRANCH  27  31
ATOM     28  F   UNL     1      31.784 -21.899 -17.830  0.00  0.00    -0.164 F 
ATOM     29  F   UNL     1      33.042 -23.501 -18.576  0.00  0.00    -0.164 F 
ATOM     30  F   UNL     1      33.686 -22.324 -16.865  0.00  0.00    -0.164 F 
ATOM     31  C   UNL     1      33.085 -22.227 -18.087  0.00  0.00    +0.435 C 
ENDBRANCH  27  31
ENDBRANCH  21  23
ENDBRANCH   1  21
TORSDOF 5
ENDMDL
MODEL 4
REMARK VINA RESULT:     -13.5      5.700     10.222
REMARK  Name = 25151352
REMARK  5 active torsions:
REMARK  status: ('A' for Active; 'I' for Inactive)
REMARK    1  A    between atoms: N_1  and  C_21
REMARK    2  A    between atoms: C_3  and  C_9
REMARK    3  A    between atoms: C_9  and  C_13
REMARK    4  A    between atoms: C_21  and  C_23
REMARK    5  A    between atoms: C_27  and  C_31
REMARK                            x       y       z     vdW  Elec       q    Type
REMARK                         _______ _______ _______ _____ _____    ______ ____
ROOT
ATOM      1  N   UNL     1      34.637 -21.522 -18.976  0.00  0.00    -0.314 N 
ATOM      2  N   UNL     1      35.919 -19.726 -19.878  0.00  0.00    -0.230 NA
ATOM      3  C   UNL     1      34.912 -18.245 -21.501  0.00  0.00    +0.002 C 
ATOM      4  C   UNL     1      33.723 -18.962 -21.429  0.00  0.00    +0.000 C 
ATOM      5  C   UNL     1      35.971 -18.663 -20.713  0.00  0.00    +0.096 C 
ATOM      6  C   UNL     1      34.747 -20.399 -19.835  0.00  0.00    +0.129 C 
ATOM      7  C   UNL     1      33.631 -20.061 -20.583  0.00  0.00    +0.034 C 
ATOM      8  H   UNL     1      35.418 -21.780 -18.436  0.00  0.00    +0.149 HD
ENDROOT
BRANCH   3   9
ATOM      9  C   UNL     1      35.043 -17.037 -22.417  0.00  0.00    +0.056 C 
BRANCH   9  13
ATOM     10 CL   UNL     1      32.664 -13.017 -26.085  0.00  0.00    -0.081 Cl
ATOM     11  N   UNL     1      33.597 -14.259 -20.528  0.00  0.00    -0.297 N 
ATOM     12  N   UNL     1      32.663 -12.691 -22.100  0.00  0.00    -0.228 NA
ATOM     13  C   UNL     1      34.390 -15.812 -21.909  0.00  0.00    -0.000 C 
ATOM     14  C   UNL     1      33.792 -14.787 -22.688  0.00  0.00    +0.030 C 
ATOM     15  C   UNL     1      33.306 -13.835 -21.798  0.00  0.00    +0.132 C 
ATOM     16  C   UNL     1      34.255 -15.460 -20.583  0.00  0.00    +0.059 C 
ATOM     17  C   UNL     1      33.599 -14.548 -24.059  0.00  0.00    +0.015 C 
ATOM     18  C   UNL     1      32.938 -13.378 -24.428  0.00  0.00    +0.077 C 
ATOM     19  C   UNL     1      32.506 -12.512 -23.433  0.00  0.00    +0.112 C 
ATOM     20  H   UNL     1      33.367 -13.776 -19.702  0.00  0.00    +0.154 HD
ENDBRANCH   9  13
ENDBRANCH   3   9
BRANCH   1  21
ATOM     21  C   UNL     1      33.442 -22.291 -18.866  0.00  0.00    +0.117 C 
BRANCH  21  23
ATOM     22  N   UNL     1      33.919 -22.993 -15.178  0.00  0.00    -0.240 NA
ATOM     23  C   UNL     1      33.125 -22.567 -17.422  0.00  0.00    +0.017 C 
ATOM     24  C   UNL     1      31.809 -22.654 -16.981  0.00  0.00    +0.000 C 
ATOM     25  C   UNL     1      34.134 -22.742 -16.489  0.00  0.00    +0.096 C 
ATOM     26  C   UNL     1      31.547 -22.912 -15.639  0.00  0.00    +0.023 C 
ATOM     27  C   UNL     1      32.627 -23.071 -14.787  0.00  0.00    +0.153 C 
BRANCH  27  31
ATOM     28  F   UNL     1      31.823 -24.571 -13.105  0.00  0.00    -0.164 F 
ATOM     29  F   UNL     1      33.516 -23.321 -12.579  0.00  0.00    -0.164 F 
ATOM     30  F   UNL     1      31.536 -22.442 -12.769  0.00  0.00    -0.164 F 
ATOM     31  C   UNL     1      32.383 -23.348 -13.341  0.00  0.00    +0.435 C 
ENDBRANCH  27  31
ENDBRANCH  21  23
ENDBRANCH   1  21
TORSDOF 5
ENDMDL
MODEL 5
REMARK VINA RESULT:     -13.4      5.741     10.822
REMARK  Name = 25151352
REMARK  5 active torsions:
REMARK  status: ('A' for Active; 'I' for Inactive)
REMARK    1  A    between atoms: N_1  and  C_21
REMARK    2  A    between atoms: C_3  and  C_9
REMARK    3  A    between atoms: C_9  and  C_13
REMARK    4  A    between atoms: C_21  and  C_23
REMARK    5  A    between atoms: C_27  and  C_31
REMARK                            x       y       z     vdW  Elec       q    Type
REMARK                         _______ _______ _______ _____ _____    ______ ____
ROOT
ATOM      1  N   UNL     1      34.770 -17.079 -20.777  0.00  0.00    -0.314 N 
ATOM      2  N   UNL     1      34.225 -14.759 -20.767  0.00  0.00    -0.230 NA
ATOM      3  C   UNL     1      33.701 -13.652 -22.851  0.00  0.00    +0.002 C 
ATOM      4  C   UNL     1      33.894 -14.844 -23.541  0.00  0.00    +0.000 C 
ATOM      5  C   UNL     1      33.878 -13.662 -21.477  0.00  0.00    +0.096 C 
ATOM      6  C   UNL     1      34.405 -15.899 -21.472  0.00  0.00    +0.129 C 
ATOM      7  C   UNL     1      34.253 -15.993 -22.846  0.00  0.00    +0.034 C 
ATOM      8  H   UNL     1      34.884 -17.036 -19.801  0.00  0.00    +0.149 HD
ENDROOT
BRANCH   3   9
ATOM      9  C   UNL     1      33.307 -12.378 -23.584  0.00  0.00    +0.056 C 
BRANCH   9  13
ATOM     10 CL   UNL     1      33.856  -6.466 -23.445  0.00  0.00    -0.081 Cl
ATOM     11  N   UNL     1      30.618 -10.876 -21.611  0.00  0.00    -0.297 N 
ATOM     12  N   UNL     1      30.931  -8.488 -21.617  0.00  0.00    -0.228 NA
ATOM     13  C   UNL     1      32.346 -11.526 -22.853  0.00  0.00    -0.000 C 
ATOM     14  C   UNL     1      32.379 -10.110 -22.751  0.00  0.00    +0.030 C 
ATOM     15  C   UNL     1      31.288  -9.737 -21.971  0.00  0.00    +0.132 C 
ATOM     16  C   UNL     1      31.252 -11.970 -22.141  0.00  0.00    +0.059 C 
ATOM     17  C   UNL     1      33.211  -9.086 -23.231  0.00  0.00    +0.015 C 
ATOM     18  C   UNL     1      32.887  -7.773 -22.895  0.00  0.00    +0.077 C 
ATOM     19  C   UNL     1      31.767  -7.543 -22.106  0.00  0.00    +0.112 C 
ATOM     20  H   UNL     1      29.806 -10.906 -21.057  0.00  0.00    +0.154 HD
ENDBRANCH   9  13
ENDBRANCH   3   9
BRANCH   1  21
ATOM     21  C   UNL     1      34.980 -18.326 -21.437  0.00  0.00    +0.117 C 
BRANCH  21  23
ATOM     22  N   UNL     1      32.778 -20.802 -19.609  0.00  0.00    -0.240 NA
ATOM     23  C   UNL     1      34.560 -19.467 -20.552  0.00  0.00    +0.017 C 
ATOM     24  C   UNL     1      35.503 -20.232 -19.873  0.00  0.00    +0.000 C 
ATOM     25  C   UNL     1      33.223 -19.790 -20.388  0.00  0.00    +0.096 C 
ATOM     26  C   UNL     1      35.084 -21.281 -19.061  0.00  0.00    +0.023 C 
ATOM     27  C   UNL     1      33.723 -21.523 -18.964  0.00  0.00    +0.153 C 
BRANCH  27  31
ATOM     28  F   UNL     1      33.224 -23.851 -18.735  0.00  0.00    -0.164 F 
ATOM     29  F   UNL     1      33.994 -22.833 -16.981  0.00  0.00    -0.164 F 
ATOM     30  F   UNL     1      31.964 -22.445 -17.657  0.00  0.00    -0.164 F 
ATOM     31  C   UNL     1      33.239 -22.641 -18.103  0.00  0.00    +0.435 C 
ENDBRANCH  27  31
ENDBRANCH  21  23
ENDBRANCH   1  21
TORSDOF 5
ENDMDL
MODEL 6
REMARK VINA RESULT:     -13.2      5.862     10.380
REMARK  Name = 25151352
REMARK  5 active torsions:
REMARK  status: ('A' for Active; 'I' for Inactive)
REMARK    1  A    between atoms: N_1  and  C_21
REMARK    2  A    between atoms: C_3  and  C_9
REMARK    3  A    between atoms: C_9  and  C_13
REMARK    4  A    between atoms: C_21  and  C_23
REMARK    5  A    between atoms: C_27  and  C_31
REMARK                            x       y       z     vdW  Elec       q    Type
REMARK                         _______ _______ _______ _____ _____    ______ ____
ROOT
ATOM      1  N   UNL     1      32.860 -21.914 -18.362  0.00  0.00    -0.314 N 
ATOM      2  N   UNL     1      32.807 -20.293 -20.108  0.00  0.00    -0.230 NA
ATOM      3  C   UNL     1      34.877 -19.321 -20.892  0.00  0.00    +0.002 C 
ATOM      4  C   UNL     1      35.591 -20.090 -19.979  0.00  0.00    +0.000 C 
ATOM      5  C   UNL     1      33.498 -19.458 -20.916  0.00  0.00    +0.096 C 
ATOM      6  C   UNL     1      33.535 -21.022 -19.234  0.00  0.00    +0.129 C 
ATOM      7  C   UNL     1      34.915 -20.959 -19.131  0.00  0.00    +0.034 C 
ATOM      8  H   UNL     1      31.880 -21.976 -18.417  0.00  0.00    +0.149 HD
ENDROOT
BRANCH   3   9
ATOM      9  C   UNL     1      35.588 -18.362 -21.835  0.00  0.00    +0.056 C 
BRANCH   9  13
ATOM     10 CL   UNL     1      33.916 -12.690 -22.383  0.00  0.00    -0.081 Cl
ATOM     11  N   UNL     1      33.578 -17.893 -24.854  0.00  0.00    -0.297 N 
ATOM     12  N   UNL     1      32.953 -15.570 -24.983  0.00  0.00    -0.228 NA
ATOM     13  C   UNL     1      34.765 -17.901 -22.972  0.00  0.00    -0.000 C 
ATOM     14  C   UNL     1      34.308 -16.577 -23.204  0.00  0.00    +0.030 C 
ATOM     15  C   UNL     1      33.572 -16.606 -24.385  0.00  0.00    +0.132 C 
ATOM     16  C   UNL     1      34.300 -18.689 -24.003  0.00  0.00    +0.059 C 
ATOM     17  C   UNL     1      34.431 -15.341 -22.549  0.00  0.00    +0.015 C 
ATOM     18  C   UNL     1      33.810 -14.235 -23.125  0.00  0.00    +0.077 C 
ATOM     19  C   UNL     1      33.104 -14.406 -24.309  0.00  0.00    +0.112 C 
ATOM     20  H   UNL     1      33.133 -18.199 -25.676  0.00  0.00    +0.154 HD
ENDBRANCH   9  13
ENDBRANCH   3   9
BRANCH   1  21
ATOM     21  C   UNL     1      33.546 -22.724 -17.409  0.00  0.00    +0.117 C 
BRANCH  21  23
ATOM     22  N   UNL     1      32.366 -23.878 -14.004  0.00  0.00    -0.240 NA
ATOM     23  C   UNL     1      32.629 -23.093 -16.276  0.00  0.00    +0.017 C 
ATOM     24  C   UNL     1      31.247 -23.005 -16.413  0.00  0.00    +0.000 C 
ATOM     25  C   UNL     1      33.133 -23.531 -15.062  0.00  0.00    +0.096 C 
ATOM     26  C   UNL     1      30.425 -23.354 -15.347  0.00  0.00    +0.023 C 
ATOM     27  C   UNL     1      31.028 -23.780 -14.175  0.00  0.00    +0.153 C 
BRANCH  27  31
ATOM     28  F   UNL     1      30.004 -23.154 -12.106  0.00  0.00    -0.164 F 
ATOM     29  F   UNL     1      28.913 -24.546 -13.361  0.00  0.00    -0.164 F 
ATOM     30  F   UNL     1      30.694 -25.206 -12.302  0.00  0.00    -0.164 F 
ATOM     31  C   UNL     1      30.176 -24.162 -13.011  0.00  0.00    +0.435 C 
ENDBRANCH  27  31
ENDBRANCH  21  23
ENDBRANCH   1  21
TORSDOF 5
ENDMDL
MODEL 7
REMARK VINA RESULT:     -13.1      3.161      5.433
REMARK  Name = 25151352
REMARK  5 active torsions:
REMARK  status: ('A' for Active; 'I' for Inactive)
REMARK    1  A    between atoms: N_1  and  C_21
REMARK    2  A    between atoms: C_3  and  C_9
REMARK    3  A    between atoms: C_9  and  C_13
REMARK    4  A    between atoms: C_21  and  C_23
REMARK    5  A    between atoms: C_27  and  C_31
REMARK                            x       y       z     vdW  Elec       q    Type
REMARK                         _______ _______ _______ _____ _____    ______ ____
ROOT
ATOM      1  N   UNL     1      33.219 -12.101 -22.433  0.00  0.00    -0.314 N 
ATOM      2  N   UNL     1      33.965 -14.206 -21.601  0.00  0.00    -0.230 NA
ATOM      3  C   UNL     1      34.074 -16.103 -23.094  0.00  0.00    +0.002 C 
ATOM      4  C   UNL     1      33.609 -15.315 -24.141  0.00  0.00    +0.000 C 
ATOM      5  C   UNL     1      34.233 -15.507 -21.854  0.00  0.00    +0.096 C 
ATOM      6  C   UNL     1      33.515 -13.471 -22.642  0.00  0.00    +0.129 C 
ATOM      7  C   UNL     1      33.322 -13.973 -23.920  0.00  0.00    +0.034 C 
ATOM      8  H   UNL     1      33.348 -11.723 -21.534  0.00  0.00    +0.149 HD
ENDROOT
BRANCH   3   9
ATOM      9  C   UNL     1      34.398 -17.575 -23.306  0.00  0.00    +0.056 C 
BRANCH   9  13
ATOM     10 CL   UNL     1      32.224 -21.327 -19.248  0.00  0.00    -0.081 Cl
ATOM     11  N   UNL     1      37.031 -18.669 -21.015  0.00  0.00    -0.297 N 
ATOM     12  N   UNL     1      36.050 -20.180 -19.416  0.00  0.00    -0.228 NA
ATOM     13  C   UNL     1      35.255 -18.168 -22.259  0.00  0.00    -0.000 C 
ATOM     14  C   UNL     1      34.846 -19.071 -21.242  0.00  0.00    +0.030 C 
ATOM     15  C   UNL     1      35.976 -19.364 -20.485  0.00  0.00    +0.132 C 
ATOM     16  C   UNL     1      36.604 -17.939 -22.094  0.00  0.00    +0.059 C 
ATOM     17  C   UNL     1      33.639 -19.684 -20.867  0.00  0.00    +0.015 C 
ATOM     18  C   UNL     1      33.660 -20.539 -19.767  0.00  0.00    +0.077 C 
ATOM     19  C   UNL     1      34.860 -20.742 -19.100  0.00  0.00    +0.112 C 
ATOM     20  H   UNL     1      37.954 -18.691 -20.675  0.00  0.00    +0.154 HD
ENDBRANCH   9  13
ENDBRANCH   3   9
BRANCH   1  21
ATOM     21  C   UNL     1      32.740 -11.250 -23.472  0.00  0.00    +0.117 C 
BRANCH  21  23
ATOM     22  N   UNL     1      30.983  -8.484 -21.580  0.00  0.00    -0.240 NA
ATOM     23  C   UNL     1      32.419  -9.885 -22.929  0.00  0.00    +0.017 C 
ATOM     24  C   UNL     1      33.211  -8.784 -23.242  0.00  0.00    +0.000 C 
ATOM     25  C   UNL     1      31.327  -9.683 -22.101  0.00  0.00    +0.096 C 
ATOM     26  C   UNL     1      32.888  -7.534 -22.725  0.00  0.00    +0.023 C 
ATOM     27  C   UNL     1      31.775  -7.438 -21.906  0.00  0.00    +0.153 C 
BRANCH  27  31
ATOM     28  F   UNL     1      32.294  -5.120 -21.623  0.00  0.00    -0.164 F 
ATOM     29  F   UNL     1      30.195  -5.646 -21.775  0.00  0.00    -0.164 F 
ATOM     30  F   UNL     1      31.309  -6.135 -19.972  0.00  0.00    -0.164 F 
ATOM     31  C   UNL     1      31.401  -6.112 -21.334  0.00  0.00    +0.435 C 
ENDBRANCH  27  31
ENDBRANCH  21  23
ENDBRANCH   1  21
TORSDOF 5
ENDMDL
MODEL 8
REMARK VINA RESULT:     -12.9      2.324      3.788
REMARK  Name = 25151352
REMARK  5 active torsions:
REMARK  status: ('A' for Active; 'I' for Inactive)
REMARK    1  A    between atoms: N_1  and  C_21
REMARK    2  A    between atoms: C_3  and  C_9
REMARK    3  A    between atoms: C_9  and  C_13
REMARK    4  A    between atoms: C_21  and  C_23
REMARK    5  A    between atoms: C_27  and  C_31
REMARK                            x       y       z     vdW  Elec       q    Type
REMARK                         _______ _______ _______ _____ _____    ______ ____
ROOT
ATOM      1  N   UNL     1      33.575 -13.211 -21.931  0.00  0.00    -0.314 N 
ATOM      2  N   UNL     1      34.168 -15.136 -20.658  0.00  0.00    -0.230 NA
ATOM      3  C   UNL     1      34.662 -17.209 -21.798  0.00  0.00    +0.002 C 
ATOM      4  C   UNL     1      34.428 -16.598 -23.026  0.00  0.00    +0.000 C 
ATOM      5  C   UNL     1      34.521 -16.442 -20.654  0.00  0.00    +0.096 C 
ATOM      6  C   UNL     1      33.947 -14.577 -21.869  0.00  0.00    +0.129 C 
ATOM      7  C   UNL     1      34.062 -15.258 -23.070  0.00  0.00    +0.034 C 
ATOM      8  H   UNL     1      33.487 -12.707 -21.090  0.00  0.00    +0.149 HD
ENDROOT
BRANCH   3   9
ATOM      9  C   UNL     1      35.065 -18.674 -21.717  0.00  0.00    +0.056 C 
BRANCH   9  13
ATOM     10 CL   UNL     1      36.897 -21.871 -17.059  0.00  0.00    -0.081 Cl
ATOM     11  N   UNL     1      32.280 -20.539 -20.253  0.00  0.00    -0.297 N 
ATOM     12  N   UNL     1      33.125 -21.797 -18.380  0.00  0.00    -0.228 NA
ATOM     13  C   UNL     1      34.135 -19.521 -20.942  0.00  0.00    -0.000 C 
ATOM     14  C   UNL     1      34.459 -20.324 -19.817  0.00  0.00    +0.030 C 
ATOM     15  C   UNL     1      33.282 -20.945 -19.411  0.00  0.00    +0.132 C 
ATOM     16  C   UNL     1      32.787 -19.674 -21.187  0.00  0.00    +0.059 C 
ATOM     17  C   UNL     1      35.624 -20.604 -19.083  0.00  0.00    +0.015 C 
ATOM     18  C   UNL     1      35.517 -21.480 -18.004  0.00  0.00    +0.077 C 
ATOM     19  C   UNL     1      34.277 -22.030 -17.710  0.00  0.00    +0.112 C 
ATOM     20  H   UNL     1      31.340 -20.824 -20.195  0.00  0.00    +0.154 HD
ENDBRANCH   9  13
ENDBRANCH   3   9
BRANCH   1  21
ATOM     21  C   UNL     1      33.323 -12.538 -23.163  0.00  0.00    +0.117 C 
BRANCH  21  23
ATOM     22  N   UNL     1      32.920  -8.777 -23.252  0.00  0.00    -0.240 NA
ATOM     23  C   UNL     1      32.766 -11.165 -22.908  0.00  0.00    +0.017 C 
ATOM     24  C   UNL     1      31.627 -10.986 -22.129  0.00  0.00    +0.000 C 
ATOM     25  C   UNL     1      33.369 -10.037 -23.442  0.00  0.00    +0.096 C 
ATOM     26  C   UNL     1      31.135  -9.704 -21.910  0.00  0.00    +0.023 C 
ATOM     27  C   UNL     1      31.812  -8.642 -22.489  0.00  0.00    +0.153 C 
BRANCH  27  31
ATOM     28  F   UNL     1      30.792  -7.044 -21.030  0.00  0.00    -0.164 F 
ATOM     29  F   UNL     1      32.273  -6.295 -22.427  0.00  0.00    -0.164 F 
ATOM     30  F   UNL     1      30.317  -6.914 -23.148  0.00  0.00    -0.164 F 
ATOM     31  C   UNL     1      31.311  -7.253 -22.276  0.00  0.00    +0.435 C 
ENDBRANCH  27  31
ENDBRANCH  21  23
ENDBRANCH   1  21
TORSDOF 5
ENDMDL
MODEL 9
REMARK VINA RESULT:     -12.7      2.198      3.291
REMARK  Name = 25151352
REMARK  5 active torsions:
REMARK  status: ('A' for Active; 'I' for Inactive)
REMARK    1  A    between atoms: N_1  and  C_21
REMARK    2  A    between atoms: C_3  and  C_9
REMARK    3  A    between atoms: C_9  and  C_13
REMARK    4  A    between atoms: C_21  and  C_23
REMARK    5  A    between atoms: C_27  and  C_31
REMARK                            x       y       z     vdW  Elec       q    Type
REMARK                         _______ _______ _______ _____ _____    ______ ____
ROOT
ATOM      1  N   UNL     1      33.710 -18.640 -21.337  0.00  0.00    -0.314 N 
ATOM      2  N   UNL     1      32.650 -20.456 -20.216  0.00  0.00    -0.230 NA
ATOM      3  C   UNL     1      33.957 -21.885 -18.769  0.00  0.00    +0.002 C 
ATOM      4  C   UNL     1      35.096 -21.135 -19.045  0.00  0.00    +0.000 C 
ATOM      5  C   UNL     1      32.770 -21.507 -19.373  0.00  0.00    +0.096 C 
ATOM      6  C   UNL     1      33.778 -19.753 -20.462  0.00  0.00    +0.129 C 
ATOM      7  C   UNL     1      35.013 -20.048 -19.907  0.00  0.00    +0.034 C 
ATOM      8  H   UNL     1      32.844 -18.411 -21.743  0.00  0.00    +0.149 HD
ENDROOT
BRANCH   3   9
ATOM      9  C   UNL     1      34.015 -23.079 -17.828  0.00  0.00    +0.056 C 
BRANCH   9  13
ATOM     10 CL   UNL     1      28.252 -22.913 -16.402  0.00  0.00    -0.081 Cl
ATOM     11  N   UNL     1      33.584 -22.326 -14.276  0.00  0.00    -0.297 N 
ATOM     12  N   UNL     1      31.223 -22.281 -13.802  0.00  0.00    -0.228 NA
ATOM     13  C   UNL     1      33.564 -22.795 -16.450  0.00  0.00    -0.000 C 
ATOM     14  C   UNL     1      32.220 -22.729 -15.997  0.00  0.00    +0.030 C 
ATOM     15  C   UNL     1      32.267 -22.436 -14.637  0.00  0.00    +0.132 C 
ATOM     16  C   UNL     1      34.381 -22.542 -15.370  0.00  0.00    +0.059 C 
ATOM     17  C   UNL     1      30.953 -22.886 -16.581  0.00  0.00    +0.015 C 
ATOM     18  C   UNL     1      29.836 -22.737 -15.760  0.00  0.00    +0.077 C 
ATOM     19  C   UNL     1      30.028 -22.442 -14.417  0.00  0.00    +0.112 C 
ATOM     20  H   UNL     1      33.909 -22.123 -13.369  0.00  0.00    +0.154 HD
ENDBRANCH   9  13
ENDBRANCH   3   9
BRANCH   1  21
ATOM     21  C   UNL     1      34.848 -17.840 -21.654  0.00  0.00    +0.117 C 
BRANCH  21  23
ATOM     22  N   UNL     1      33.854 -14.973 -23.914  0.00  0.00    -0.240 NA
ATOM     23  C   UNL     1      34.420 -16.470 -22.102  0.00  0.00    +0.017 C 
ATOM     24  C   UNL     1      34.195 -15.452 -21.181  0.00  0.00    +0.000 C 
ATOM     25  C   UNL     1      34.237 -16.181 -23.445  0.00  0.00    +0.096 C 
ATOM     26  C   UNL     1      33.800 -14.195 -21.626  0.00  0.00    +0.023 C 
ATOM     27  C   UNL     1      33.645 -14.009 -22.990  0.00  0.00    +0.153 C 
BRANCH  27  31
ATOM     28  F   UNL     1      32.018 -12.255 -23.011  0.00  0.00    -0.164 F 
ATOM     29  F   UNL     1      34.097 -11.669 -23.200  0.00  0.00    -0.164 F 
ATOM     30  F   UNL     1      33.091 -12.648 -24.860  0.00  0.00    -0.164 F 
ATOM     31  C   UNL     1      33.221 -12.672 -23.502  0.00  0.00    +0.435 C 
ENDBRANCH  27  31
ENDBRANCH  21  23
ENDBRANCH   1  21
TORSDOF 5
ENDMDL
