MODEL 1
REMARK VINA RESULT:     -11.7      0.000      0.000
REMARK  Name = 5288593
REMARK  12 active torsions:
REMARK  status: ('A' for Active; 'I' for Inactive)
REMARK    1  A    between atoms: N_2  and  C_22
REMARK    2  A    between atoms: C_3  and  C_5
REMARK    3  A    between atoms: C_5  and  C_6
REMARK    4  A    between atoms: C_5  and  C_18
REMARK    5  A    between atoms: C_9  and  C_12
REMARK    6  A    between atoms: C_18  and  C_19
REMARK    7  A    between atoms: C_22  and  C_23
REMARK    8  A    between atoms: C_23  and  O_24
REMARK    9  A    between atoms: C_23  and  C_26
REMARK   10  A    between atoms: C_26  and  N_27
REMARK   11  A    between atoms: N_27  and  S_29
REMARK   12  A    between atoms: S_29  and  C_33
REMARK                            x       y       z     vdW  Elec       q    Type
REMARK                         _______ _______ _______ _____ _____    ______ ____
ROOT
ATOM      1  O   UNL     1      33.441 -23.172 -19.513  0.00  0.00    -0.275 OA
ATOM      2  N   UNL     1      32.416 -21.252 -18.714  0.00  0.00    -0.302 N 
ATOM      3  C   UNL     1      32.990 -22.510 -18.583  0.00  0.00    +0.226 C 
ATOM      4  H   UNL     1      32.081 -20.797 -17.907  0.00  0.00    +0.150 HD
ENDROOT
BRANCH   3   5
ATOM      5  C   UNL     1      32.989 -23.004 -17.131  0.00  0.00    +0.099 C 
BRANCH   5   6
ATOM      6  C   UNL     1      34.333 -22.719 -16.481  0.00  0.00    -0.014 C 
ATOM      7  C   UNL     1      34.676 -23.396 -15.327  0.00  0.00    -0.004 C 
ATOM      8  C   UNL     1      35.174 -21.791 -17.063  0.00  0.00    -0.004 C 
ATOM      9  C   UNL     1      35.910 -23.134 -14.732  0.00  0.00    -0.000 C 
ATOM     10  C   UNL     1      36.407 -21.530 -16.467  0.00  0.00    -0.000 C 
ATOM     11  C   UNL     1      36.775 -22.201 -15.301  0.00  0.00    -0.000 C 
BRANCH   9  12
ATOM     12  C   UNL     1      36.292 -23.832 -13.522  0.00  0.00    -0.000 C 
ATOM     13  C   UNL     1      35.598 -23.597 -12.335  0.00  0.00    -0.000 C 
ATOM     14  C   UNL     1      37.352 -24.737 -13.543  0.00  0.00    -0.000 C 
ATOM     15  C   UNL     1      35.964 -24.269 -11.168  0.00  0.00    -0.000 C 
ATOM     16  C   UNL     1      37.719 -25.409 -12.377  0.00  0.00    -0.000 C 
ATOM     17  C   UNL     1      37.025 -25.175 -11.190  0.00  0.00    +0.000 C 
ENDBRANCH   9  12
ENDBRANCH   5   6
BRANCH   5  18
ATOM     18  C   UNL     1      31.805 -22.389 -16.351  0.00  0.00    +0.013 C 
BRANCH  18  19
ATOM     19  C   UNL     1      31.251 -23.253 -15.199  0.00  0.00    +0.001 C 
ATOM     20  C   UNL     1      31.327 -22.468 -13.886  0.00  0.00    +0.000 C 
ATOM     21  C   UNL     1      29.810 -23.703 -15.444  0.00  0.00    +0.000 C 
ENDBRANCH  18  19
ENDBRANCH   5  18
ENDBRANCH   3   5
BRANCH   2  22
ATOM     22  C   UNL     1      32.294 -20.585 -19.988  0.00  0.00    +0.120 C 
BRANCH  22  23
ATOM     23  C   UNL     1      33.547 -19.799 -20.371  0.00  0.00    +0.147 C 
BRANCH  23  24
ATOM     24  O   UNL     1      34.696 -20.629 -20.204  0.00  0.00    -0.381 OA
ATOM     25  H   UNL     1      34.911 -21.058 -21.048  0.00  0.00    +0.210 HD
ENDBRANCH  23  24
BRANCH  23  26
ATOM     26  C   UNL     1      33.514 -19.296 -21.814  0.00  0.00    +0.122 C 
BRANCH  26  27
ATOM     27  N   UNL     1      34.901 -19.156 -22.318  0.00  0.00    -0.175 NA
ATOM     28  H   UNL     1      35.350 -20.065 -22.202  0.00  0.00    +0.149 HD
BRANCH  27  29
ATOM     29  S   UNL     1      35.939 -18.003 -21.627  0.00  0.00    +0.077 S 
ATOM     30  O   UNL     1      37.132 -17.877 -22.443  0.00  0.00    -0.152 OA
ATOM     31  O   UNL     1      36.051 -18.267 -20.205  0.00  0.00    -0.152 OA
BRANCH  29  33
ATOM     32  N   UNL     1      34.591 -16.041 -20.617  0.00  0.00    -0.224 NA
ATOM     33  C   UNL     1      35.000 -16.515 -21.802  0.00  0.00    +0.203 C 
ATOM     34  C   UNL     1      34.751 -15.960 -23.029  0.00  0.00    +0.040 C 
ATOM     35  C   UNL     1      34.002 -14.788 -23.046  0.00  0.00    +0.005 C 
ATOM     36  C   UNL     1      33.865 -14.903 -20.674  0.00  0.00    +0.100 C 
ATOM     37  C   UNL     1      33.546 -14.243 -21.851  0.00  0.00    +0.021 C 
ENDBRANCH  29  33
ENDBRANCH  27  29
ENDBRANCH  26  27
ENDBRANCH  23  26
ENDBRANCH  22  23
ENDBRANCH   2  22
TORSDOF 12
ENDMDL
MODEL 2
REMARK VINA RESULT:     -11.6      1.718      5.254
REMARK  Name = 5288593
REMARK  12 active torsions:
REMARK  status: ('A' for Active; 'I' for Inactive)
REMARK    1  A    between atoms: N_2  and  C_22
REMARK    2  A    between atoms: C_3  and  C_5
REMARK    3  A    between atoms: C_5  and  C_6
REMARK    4  A    between atoms: C_5  and  C_18
REMARK    5  A    between atoms: C_9  and  C_12
REMARK    6  A    between atoms: C_18  and  C_19
REMARK    7  A    between atoms: C_22  and  C_23
REMARK    8  A    between atoms: C_23  and  O_24
REMARK    9  A    between atoms: C_23  and  C_26
REMARK   10  A    between atoms: C_26  and  N_27
REMARK   11  A    between atoms: N_27  and  S_29
REMARK   12  A    between atoms: S_29  and  C_33
REMARK                            x       y       z     vdW  Elec       q    Type
REMARK                         _______ _______ _______ _____ _____    ______ ____
ROOT
ATOM      1  O   UNL     1      33.092 -23.726 -18.004  0.00  0.00    -0.275 OA
ATOM      2  N   UNL     1      34.098 -21.642 -18.147  0.00  0.00    -0.302 N 
ATOM      3  C   UNL     1      33.618 -22.754 -17.469  0.00  0.00    +0.226 C 
ATOM      4  H   UNL     1      34.505 -20.909 -17.630  0.00  0.00    +0.150 HD
ENDROOT
BRANCH   3   5
ATOM      5  C   UNL     1      33.802 -22.637 -15.951  0.00  0.00    +0.099 C 
BRANCH   5   6
ATOM      6  C   UNL     1      32.557 -23.130 -15.233  0.00  0.00    -0.014 C 
ATOM      7  C   UNL     1      31.318 -22.707 -15.672  0.00  0.00    -0.004 C 
ATOM      8  C   UNL     1      32.700 -23.989 -14.161  0.00  0.00    -0.004 C 
ATOM      9  C   UNL     1      30.176 -23.161 -15.013  0.00  0.00    -0.000 C 
ATOM     10  C   UNL     1      31.557 -24.443 -13.502  0.00  0.00    -0.000 C 
ATOM     11  C   UNL     1      30.295 -24.029 -13.928  0.00  0.00    -0.000 C 
BRANCH   9  12
ATOM     12  C   UNL     1      28.866 -22.731 -15.455  0.00  0.00    -0.000 C 
ATOM     13  C   UNL     1      28.064 -21.962 -14.611  0.00  0.00    -0.000 C 
ATOM     14  C   UNL     1      28.407 -23.084 -16.724  0.00  0.00    -0.000 C 
ATOM     15  C   UNL     1      26.802 -21.546 -15.037  0.00  0.00    -0.000 C 
ATOM     16  C   UNL     1      27.145 -22.669 -17.149  0.00  0.00    -0.000 C 
ATOM     17  C   UNL     1      26.344 -21.900 -16.306  0.00  0.00    +0.000 C 
ENDBRANCH   9  12
ENDBRANCH   5   6
BRANCH   5  18
ATOM     18  C   UNL     1      35.084 -23.377 -15.503  0.00  0.00    +0.013 C 
BRANCH  18  19
ATOM     19  C   UNL     1      36.177 -22.487 -14.875  0.00  0.00    +0.001 C 
ATOM     20  C   UNL     1      36.913 -23.270 -13.784  0.00  0.00    +0.000 C 
ATOM     21  C   UNL     1      37.183 -21.978 -15.908  0.00  0.00    +0.000 C 
ENDBRANCH  18  19
ENDBRANCH   5  18
ENDBRANCH   3   5
BRANCH   2  22
ATOM     22  C   UNL     1      34.024 -21.519 -19.584  0.00  0.00    +0.120 C 
BRANCH  22  23
ATOM     23  C   UNL     1      32.764 -20.795 -20.056  0.00  0.00    +0.147 C 
BRANCH  23  24
ATOM     24  O   UNL     1      31.901 -20.570 -18.941  0.00  0.00    -0.381 OA
ATOM     25  H   UNL     1      32.125 -21.190 -18.229  0.00  0.00    +0.210 HD
ENDBRANCH  23  24
BRANCH  23  26
ATOM     26  C   UNL     1      33.064 -19.452 -20.719  0.00  0.00    +0.122 C 
BRANCH  26  27
ATOM     27  N   UNL     1      34.441 -19.028 -20.369  0.00  0.00    -0.175 NA
ATOM     28  H   UNL     1      34.357 -18.355 -19.607  0.00  0.00    +0.149 HD
BRANCH  27  29
ATOM     29  S   UNL     1      35.431 -18.314 -21.550  0.00  0.00    +0.077 S 
ATOM     30  O   UNL     1      35.214 -18.972 -22.824  0.00  0.00    -0.152 OA
ATOM     31  O   UNL     1      36.773 -18.179 -21.016  0.00  0.00    -0.152 OA
BRANCH  29  33
ATOM     32  N   UNL     1      34.488 -16.174 -20.445  0.00  0.00    -0.224 NA
ATOM     33  C   UNL     1      34.753 -16.684 -21.657  0.00  0.00    +0.203 C 
ATOM     34  C   UNL     1      34.545 -16.067 -22.861  0.00  0.00    +0.040 C 
ATOM     35  C   UNL     1      34.008 -14.785 -22.823  0.00  0.00    +0.005 C 
ATOM     36  C   UNL     1      33.966 -14.928 -20.450  0.00  0.00    +0.100 C 
ATOM     37  C   UNL     1      33.710 -14.197 -21.599  0.00  0.00    +0.021 C 
ENDBRANCH  29  33
ENDBRANCH  27  29
ENDBRANCH  26  27
ENDBRANCH  23  26
ENDBRANCH  22  23
ENDBRANCH   2  22
TORSDOF 12
ENDMDL
MODEL 3
REMARK VINA RESULT:     -11.6      4.289      9.683
REMARK  Name = 5288593
REMARK  12 active torsions:
REMARK  status: ('A' for Active; 'I' for Inactive)
REMARK    1  A    between atoms: N_2  and  C_22
REMARK    2  A    between atoms: C_3  and  C_5
REMARK    3  A    between atoms: C_5  and  C_6
REMARK    4  A    between atoms: C_5  and  C_18
REMARK    5  A    between atoms: C_9  and  C_12
REMARK    6  A    between atoms: C_18  and  C_19
REMARK    7  A    between atoms: C_22  and  C_23
REMARK    8  A    between atoms: C_23  and  O_24
REMARK    9  A    between atoms: C_23  and  C_26
REMARK   10  A    between atoms: C_26  and  N_27
REMARK   11  A    between atoms: N_27  and  S_29
REMARK   12  A    between atoms: S_29  and  C_33
REMARK                            x       y       z     vdW  Elec       q    Type
REMARK                         _______ _______ _______ _____ _____    ______ ____
ROOT
ATOM      1  O   UNL     1      32.519 -24.157 -16.391  0.00  0.00    -0.275 OA
ATOM      2  N   UNL     1      32.944 -22.409 -14.928  0.00  0.00    -0.302 N 
ATOM      3  C   UNL     1      33.143 -23.142 -16.090  0.00  0.00    +0.226 C 
ATOM      4  H   UNL     1      33.494 -21.608 -14.773  0.00  0.00    +0.150 HD
ENDROOT
BRANCH   3   5
ATOM      5  C   UNL     1      34.252 -22.554 -16.970  0.00  0.00    +0.099 C 
BRANCH   5   6
ATOM      6  C   UNL     1      33.647 -21.722 -18.088  0.00  0.00    -0.014 C 
ATOM      7  C   UNL     1      34.484 -20.991 -18.908  0.00  0.00    -0.004 C 
ATOM      8  C   UNL     1      32.276 -21.719 -18.252  0.00  0.00    -0.004 C 
ATOM      9  C   UNL     1      33.928 -20.228 -19.934  0.00  0.00    -0.000 C 
ATOM     10  C   UNL     1      31.720 -20.956 -19.279  0.00  0.00    -0.000 C 
ATOM     11  C   UNL     1      32.546 -20.210 -20.120  0.00  0.00    -0.000 C 
BRANCH   9  12
ATOM     12  C   UNL     1      34.785 -19.455 -20.807  0.00  0.00    -0.000 C 
ATOM     13  C   UNL     1      36.094 -19.165 -20.420  0.00  0.00    -0.000 C 
ATOM     14  C   UNL     1      34.304 -18.999 -22.034  0.00  0.00    -0.000 C 
ATOM     15  C   UNL     1      36.921 -18.421 -21.260  0.00  0.00    -0.000 C 
ATOM     16  C   UNL     1      35.131 -18.255 -22.875  0.00  0.00    -0.000 C 
ATOM     17  C   UNL     1      36.439 -17.966 -22.488  0.00  0.00    +0.000 C 
ENDBRANCH   9  12
ENDBRANCH   5   6
BRANCH   5  18
ATOM     18  C   UNL     1      35.260 -21.758 -16.109  0.00  0.00    +0.013 C 
BRANCH  18  19
ATOM     19  C   UNL     1      36.714 -21.754 -16.625  0.00  0.00    +0.001 C 
ATOM     20  C   UNL     1      37.223 -20.312 -16.716  0.00  0.00    +0.000 C 
ATOM     21  C   UNL     1      37.653 -22.574 -15.740  0.00  0.00    +0.000 C 
ENDBRANCH  18  19
ENDBRANCH   5  18
ENDBRANCH   3   5
BRANCH   2  22
ATOM     22  C   UNL     1      31.959 -22.777 -13.938  0.00  0.00    +0.120 C 
BRANCH  22  23
ATOM     23  C   UNL     1      32.464 -23.839 -12.962  0.00  0.00    +0.147 C 
BRANCH  23  24
ATOM     24  O   UNL     1      32.065 -25.131 -13.420  0.00  0.00    -0.381 OA
ATOM     25  H   UNL     1      31.144 -25.096 -13.723  0.00  0.00    +0.210 HD
ENDBRANCH  23  24
BRANCH  23  26
ATOM     26  C   UNL     1      33.983 -23.825 -12.804  0.00  0.00    +0.122 C 
BRANCH  26  27
ATOM     27  N   UNL     1      34.339 -23.147 -11.534  0.00  0.00    -0.175 NA
ATOM     28  H   UNL     1      34.689 -22.221 -11.782  0.00  0.00    +0.149 HD
BRANCH  27  29
ATOM     29  S   UNL     1      35.488 -23.846 -10.496  0.00  0.00    +0.077 S 
ATOM     30  O   UNL     1      34.902 -24.993  -9.830  0.00  0.00    -0.152 OA
ATOM     31  O   UNL     1      36.119 -22.794  -9.722  0.00  0.00    -0.152 OA
BRANCH  29  33
ATOM     32  N   UNL     1      36.385 -25.656 -12.110  0.00  0.00    -0.224 NA
ATOM     33  C   UNL     1      36.698 -24.440 -11.640  0.00  0.00    +0.203 C 
ATOM     34  C   UNL     1      37.803 -23.702 -11.969  0.00  0.00    +0.040 C 
ATOM     35  C   UNL     1      38.687 -24.269 -12.881  0.00  0.00    +0.005 C 
ATOM     36  C   UNL     1      37.268 -26.175 -12.992  0.00  0.00    +0.100 C 
ATOM     37  C   UNL     1      38.422 -25.528 -13.407  0.00  0.00    +0.021 C 
ENDBRANCH  29  33
ENDBRANCH  27  29
ENDBRANCH  26  27
ENDBRANCH  23  26
ENDBRANCH  22  23
ENDBRANCH   2  22
TORSDOF 12
ENDMDL
MODEL 4
REMARK VINA RESULT:     -11.5      1.439      2.300
REMARK  Name = 5288593
REMARK  12 active torsions:
REMARK  status: ('A' for Active; 'I' for Inactive)
REMARK    1  A    between atoms: N_2  and  C_22
REMARK    2  A    between atoms: C_3  and  C_5
REMARK    3  A    between atoms: C_5  and  C_6
REMARK    4  A    between atoms: C_5  and  C_18
REMARK    5  A    between atoms: C_9  and  C_12
REMARK    6  A    between atoms: C_18  and  C_19
REMARK    7  A    between atoms: C_22  and  C_23
REMARK    8  A    between atoms: C_23  and  O_24
REMARK    9  A    between atoms: C_23  and  C_26
REMARK   10  A    between atoms: C_26  and  N_27
REMARK   11  A    between atoms: N_27  and  S_29
REMARK   12  A    between atoms: S_29  and  C_33
REMARK                            x       y       z     vdW  Elec       q    Type
REMARK                         _______ _______ _______ _____ _____    ______ ____
ROOT
ATOM      1  O   UNL     1      34.898 -22.325 -16.805  0.00  0.00    -0.275 OA
ATOM      2  N   UNL     1      33.081 -22.795 -18.166  0.00  0.00    -0.302 N 
ATOM      3  C   UNL     1      33.761 -22.765 -16.957  0.00  0.00    +0.226 C 
ATOM      4  H   UNL     1      32.170 -23.168 -18.188  0.00  0.00    +0.150 HD
ENDROOT
BRANCH   3   5
ATOM      5  C   UNL     1      32.939 -23.362 -15.808  0.00  0.00    +0.099 C 
BRANCH   5   6
ATOM      6  C   UNL     1      33.830 -23.614 -14.603  0.00  0.00    -0.014 C 
ATOM      7  C   UNL     1      35.157 -23.938 -14.805  0.00  0.00    -0.004 C 
ATOM      8  C   UNL     1      33.286 -23.511 -13.337  0.00  0.00    -0.004 C 
ATOM      9  C   UNL     1      35.973 -24.167 -13.698  0.00  0.00    -0.000 C 
ATOM     10  C   UNL     1      34.103 -23.741 -12.230  0.00  0.00    -0.000 C 
ATOM     11  C   UNL     1      35.447 -24.069 -12.411  0.00  0.00    -0.000 C 
BRANCH   9  12
ATOM     12  C   UNL     1      37.368 -24.508 -13.886  0.00  0.00    -0.000 C 
ATOM     13  C   UNL     1      37.983 -25.419 -13.027  0.00  0.00    -0.000 C 
ATOM     14  C   UNL     1      38.095 -23.926 -14.923  0.00  0.00    -0.000 C 
ATOM     15  C   UNL     1      39.327 -25.749 -13.208  0.00  0.00    -0.000 C 
ATOM     16  C   UNL     1      39.439 -24.255 -15.104  0.00  0.00    -0.000 C 
ATOM     17  C   UNL     1      40.054 -25.167 -14.246  0.00  0.00    +0.000 C 
ENDBRANCH   9  12
ENDBRANCH   5   6
BRANCH   5  18
ATOM     18  C   UNL     1      31.730 -22.456 -15.480  0.00  0.00    +0.013 C 
BRANCH  18  19
ATOM     19  C   UNL     1      30.356 -23.158 -15.485  0.00  0.00    +0.001 C 
ATOM     20  C   UNL     1      29.872 -23.350 -14.046  0.00  0.00    +0.000 C 
ATOM     21  C   UNL     1      29.305 -22.382 -16.281  0.00  0.00    +0.000 C 
ENDBRANCH  18  19
ENDBRANCH   5  18
ENDBRANCH   3   5
BRANCH   2  22
ATOM     22  C   UNL     1      33.657 -22.297 -19.393  0.00  0.00    +0.120 C 
BRANCH  22  23
ATOM     23  C   UNL     1      33.928 -20.794 -19.357  0.00  0.00    +0.147 C 
BRANCH  23  24
ATOM     24  O   UNL     1      35.325 -20.568 -19.175  0.00  0.00    -0.381 OA
ATOM     25  H   UNL     1      35.465 -19.679 -18.811  0.00  0.00    +0.210 HD
ENDBRANCH  23  24
BRANCH  23  26
ATOM     26  C   UNL     1      33.480 -20.080 -20.631  0.00  0.00    +0.122 C 
BRANCH  26  27
ATOM     27  N   UNL     1      33.836 -18.644 -20.542  0.00  0.00    -0.175 NA
ATOM     28  H   UNL     1      33.001 -18.117 -20.798  0.00  0.00    +0.149 HD
BRANCH  27  29
ATOM     29  S   UNL     1      35.113 -18.029 -21.477  0.00  0.00    +0.077 S 
ATOM     30  O   UNL     1      35.137 -18.701 -22.763  0.00  0.00    -0.152 OA
ATOM     31  O   UNL     1      36.310 -17.976 -20.658  0.00  0.00    -0.152 OA
BRANCH  29  33
ATOM     32  N   UNL     1      34.293 -15.742 -20.595  0.00  0.00    -0.224 NA
ATOM     33  C   UNL     1      34.598 -16.359 -21.745  0.00  0.00    +0.203 C 
ATOM     34  C   UNL     1      34.536 -15.816 -23.000  0.00  0.00    +0.040 C 
ATOM     35  C   UNL     1      34.118 -14.493 -23.090  0.00  0.00    +0.005 C 
ATOM     36  C   UNL     1      33.889 -14.458 -20.723  0.00  0.00    +0.100 C 
ATOM     37  C   UNL     1      33.786 -13.794 -21.935  0.00  0.00    +0.021 C 
ENDBRANCH  29  33
ENDBRANCH  27  29
ENDBRANCH  26  27
ENDBRANCH  23  26
ENDBRANCH  22  23
ENDBRANCH   2  22
TORSDOF 12
ENDMDL
MODEL 5
REMARK VINA RESULT:     -11.3      5.150     13.255
REMARK  Name = 5288593
REMARK  12 active torsions:
REMARK  status: ('A' for Active; 'I' for Inactive)
REMARK    1  A    between atoms: N_2  and  C_22
REMARK    2  A    between atoms: C_3  and  C_5
REMARK    3  A    between atoms: C_5  and  C_6
REMARK    4  A    between atoms: C_5  and  C_18
REMARK    5  A    between atoms: C_9  and  C_12
REMARK    6  A    between atoms: C_18  and  C_19
REMARK    7  A    between atoms: C_22  and  C_23
REMARK    8  A    between atoms: C_23  and  O_24
REMARK    9  A    between atoms: C_23  and  C_26
REMARK   10  A    between atoms: C_26  and  N_27
REMARK   11  A    between atoms: N_27  and  S_29
REMARK   12  A    between atoms: S_29  and  C_33
REMARK                            x       y       z     vdW  Elec       q    Type
REMARK                         _______ _______ _______ _____ _____    ______ ____
ROOT
ATOM      1  O   UNL     1      32.676 -12.066 -25.167  0.00  0.00    -0.275 OA
ATOM      2  N   UNL     1      33.264 -13.774 -23.713  0.00  0.00    -0.302 N 
ATOM      3  C   UNL     1      32.886 -12.476 -24.028  0.00  0.00    +0.226 C 
ATOM      4  H   UNL     1      33.411 -14.009 -22.768  0.00  0.00    +0.150 HD
ENDROOT
BRANCH   3   5
ATOM      5  C   UNL     1      32.770 -11.583 -22.787  0.00  0.00    +0.099 C 
BRANCH   5   6
ATOM      6  C   UNL     1      33.195 -10.164 -23.122  0.00  0.00    -0.014 C 
ATOM      7  C   UNL     1      32.344  -9.119 -22.819  0.00  0.00    -0.004 C 
ATOM      8  C   UNL     1      34.422  -9.957 -23.721  0.00  0.00    -0.004 C 
ATOM      9  C   UNL     1      32.735  -7.817 -23.126  0.00  0.00    -0.000 C 
ATOM     10  C   UNL     1      34.813  -8.653 -24.029  0.00  0.00    -0.000 C 
ATOM     11  C   UNL     1      33.969  -7.584 -23.731  0.00  0.00    -0.000 C 
BRANCH   9  12
ATOM     12  C   UNL     1      31.859  -6.706 -22.817  0.00  0.00    -0.000 C 
ATOM     13  C   UNL     1      31.327  -5.932 -23.848  0.00  0.00    -0.000 C 
ATOM     14  C   UNL     1      31.548  -6.410 -21.490  0.00  0.00    -0.000 C 
ATOM     15  C   UNL     1      30.482  -4.862 -23.551  0.00  0.00    -0.000 C 
ATOM     16  C   UNL     1      30.704  -5.340 -21.193  0.00  0.00    -0.000 C 
ATOM     17  C   UNL     1      30.171  -4.567 -22.224  0.00  0.00    +0.000 C 
ENDBRANCH   9  12
ENDBRANCH   5   6
BRANCH   5  18
ATOM     18  C   UNL     1      31.342 -11.657 -22.199  0.00  0.00    +0.013 C 
BRANCH  18  19
ATOM     19  C   UNL     1      31.261 -12.009 -20.699  0.00  0.00    +0.001 C 
ATOM     20  C   UNL     1      32.226 -13.156 -20.387  0.00  0.00    +0.000 C 
ATOM     21  C   UNL     1      31.577 -10.814 -19.799  0.00  0.00    +0.000 C 
ENDBRANCH  18  19
ENDBRANCH   5  18
ENDBRANCH   3   5
BRANCH   2  22
ATOM     22  C   UNL     1      33.449 -14.794 -24.718  0.00  0.00    +0.120 C 
BRANCH  22  23
ATOM     23  C   UNL     1      33.165 -16.202 -24.197  0.00  0.00    +0.147 C 
BRANCH  23  24
ATOM     24  O   UNL     1      32.393 -16.917 -25.161  0.00  0.00    -0.381 OA
ATOM     25  H   UNL     1      31.850 -17.584 -24.711  0.00  0.00    +0.210 HD
ENDBRANCH  23  24
BRANCH  23  26
ATOM     26  C   UNL     1      34.438 -16.995 -23.906  0.00  0.00    +0.122 C 
BRANCH  26  27
ATOM     27  N   UNL     1      34.195 -17.915 -22.770  0.00  0.00    -0.175 NA
ATOM     28  H   UNL     1      33.263 -17.704 -22.414  0.00  0.00    +0.149 HD
BRANCH  27  29
ATOM     29  S   UNL     1      35.245 -17.905 -21.434  0.00  0.00    +0.077 S 
ATOM     30  O   UNL     1      34.979 -16.734 -20.620  0.00  0.00    -0.152 OA
ATOM     31  O   UNL     1      36.592 -18.184 -21.896  0.00  0.00    -0.152 OA
BRANCH  29  33
ATOM     32  N   UNL     1      35.718 -19.929 -19.896  0.00  0.00    -0.224 NA
ATOM     33  C   UNL     1      34.704 -19.328 -20.535  0.00  0.00    +0.203 C 
ATOM     34  C   UNL     1      33.393 -19.721 -20.529  0.00  0.00    +0.040 C 
ATOM     35  C   UNL     1      33.082 -20.855 -19.786  0.00  0.00    +0.005 C 
ATOM     36  C   UNL     1      35.377 -21.027 -19.186  0.00  0.00    +0.100 C 
ATOM     37  C   UNL     1      34.087 -21.526 -19.099  0.00  0.00    +0.021 C 
ENDBRANCH  29  33
ENDBRANCH  27  29
ENDBRANCH  26  27
ENDBRANCH  23  26
ENDBRANCH  22  23
ENDBRANCH   2  22
TORSDOF 12
ENDMDL
MODEL 6
REMARK VINA RESULT:     -11.1      1.633      2.710
REMARK  Name = 5288593
REMARK  12 active torsions:
REMARK  status: ('A' for Active; 'I' for Inactive)
REMARK    1  A    between atoms: N_2  and  C_22
REMARK    2  A    between atoms: C_3  and  C_5
REMARK    3  A    between atoms: C_5  and  C_6
REMARK    4  A    between atoms: C_5  and  C_18
REMARK    5  A    between atoms: C_9  and  C_12
REMARK    6  A    between atoms: C_18  and  C_19
REMARK    7  A    between atoms: C_22  and  C_23
REMARK    8  A    between atoms: C_23  and  O_24
REMARK    9  A    between atoms: C_23  and  C_26
REMARK   10  A    between atoms: C_26  and  N_27
REMARK   11  A    between atoms: N_27  and  S_29
REMARK   12  A    between atoms: S_29  and  C_33
REMARK                            x       y       z     vdW  Elec       q    Type
REMARK                         _______ _______ _______ _____ _____    ______ ____
ROOT
ATOM      1  O   UNL     1      33.108 -23.886 -18.208  0.00  0.00    -0.275 OA
ATOM      2  N   UNL     1      32.293 -21.724 -18.021  0.00  0.00    -0.302 N 
ATOM      3  C   UNL     1      32.448 -23.040 -17.609  0.00  0.00    +0.226 C 
ATOM      4  H   UNL     1      31.742 -21.117 -17.474  0.00  0.00    +0.150 HD
ENDROOT
BRANCH   3   5
ATOM      5  C   UNL     1      31.684 -23.342 -16.314  0.00  0.00    +0.099 C 
BRANCH   5   6
ATOM      6  C   UNL     1      32.646 -23.399 -15.140  0.00  0.00    -0.014 C 
ATOM      7  C   UNL     1      33.990 -23.608 -15.384  0.00  0.00    -0.004 C 
ATOM      8  C   UNL     1      32.151 -23.240 -13.861  0.00  0.00    -0.004 C 
ATOM      9  C   UNL     1      34.872 -23.659 -14.305  0.00  0.00    -0.000 C 
ATOM     10  C   UNL     1      33.034 -23.291 -12.783  0.00  0.00    -0.000 C 
ATOM     11  C   UNL     1      34.395 -23.501 -13.005  0.00  0.00    -0.000 C 
BRANCH   9  12
ATOM     12  C   UNL     1      36.285 -23.876 -14.536  0.00  0.00    -0.000 C 
ATOM     13  C   UNL     1      36.899 -25.032 -14.053  0.00  0.00    -0.000 C 
ATOM     14  C   UNL     1      37.031 -22.931 -15.240  0.00  0.00    -0.000 C 
ATOM     15  C   UNL     1      38.260 -25.243 -14.276  0.00  0.00    -0.000 C 
ATOM     16  C   UNL     1      38.392 -23.142 -15.462  0.00  0.00    -0.000 C 
ATOM     17  C   UNL     1      39.006 -24.297 -14.980  0.00  0.00    +0.000 C 
ENDBRANCH   9  12
ENDBRANCH   5   6
BRANCH   5  18
ATOM     18  C   UNL     1      30.546 -22.316 -16.106  0.00  0.00    +0.013 C 
BRANCH  18  19
ATOM     19  C   UNL     1      29.117 -22.896 -16.136  0.00  0.00    +0.001 C 
ATOM     20  C   UNL     1      29.108 -24.274 -15.468  0.00  0.00    +0.000 C 
ATOM     21  C   UNL     1      28.100 -21.985 -15.447  0.00  0.00    +0.000 C 
ENDBRANCH  18  19
ENDBRANCH   5  18
ENDBRANCH   3   5
BRANCH   2  22
ATOM     22  C   UNL     1      32.910 -21.208 -19.220  0.00  0.00    +0.120 C 
BRANCH  22  23
ATOM     23  C   UNL     1      34.373 -20.817 -19.016  0.00  0.00    +0.147 C 
BRANCH  23  24
ATOM     24  O   UNL     1      35.120 -21.968 -18.623  0.00  0.00    -0.381 OA
ATOM     25  H   UNL     1      35.546 -22.359 -19.402  0.00  0.00    +0.210 HD
ENDBRANCH  23  24
BRANCH  23  26
ATOM     26  C   UNL     1      35.010 -20.228 -20.274  0.00  0.00    +0.122 C 
BRANCH  26  27
ATOM     27  N   UNL     1      34.289 -18.990 -20.656  0.00  0.00    -0.175 NA
ATOM     28  H   UNL     1      33.670 -19.237 -21.428  0.00  0.00    +0.149 HD
BRANCH  27  29
ATOM     29  S   UNL     1      35.164 -17.620 -21.146  0.00  0.00    +0.077 S 
ATOM     30  O   UNL     1      36.545 -17.991 -21.392  0.00  0.00    -0.152 OA
ATOM     31  O   UNL     1      34.851 -16.520 -20.253  0.00  0.00    -0.152 OA
BRANCH  29  33
ATOM     32  N   UNL     1      33.893 -18.340 -23.279  0.00  0.00    -0.224 NA
ATOM     33  C   UNL     1      34.416 -17.248 -22.704  0.00  0.00    +0.203 C 
ATOM     34  C   UNL     1      34.402 -15.977 -23.212  0.00  0.00    +0.040 C 
ATOM     35  C   UNL     1      33.784 -15.801 -24.446  0.00  0.00    +0.005 C 
ATOM     36  C   UNL     1      33.302 -18.130 -24.477  0.00  0.00    +0.100 C 
ATOM     37  C   UNL     1      33.221 -16.893 -25.097  0.00  0.00    +0.021 C 
ENDBRANCH  29  33
ENDBRANCH  27  29
ENDBRANCH  26  27
ENDBRANCH  23  26
ENDBRANCH  22  23
ENDBRANCH   2  22
TORSDOF 12
ENDMDL
MODEL 7
REMARK VINA RESULT:     -10.7      5.910     10.364
REMARK  Name = 5288593
REMARK  12 active torsions:
REMARK  status: ('A' for Active; 'I' for Inactive)
REMARK    1  A    between atoms: N_2  and  C_22
REMARK    2  A    between atoms: C_3  and  C_5
REMARK    3  A    between atoms: C_5  and  C_6
REMARK    4  A    between atoms: C_5  and  C_18
REMARK    5  A    between atoms: C_9  and  C_12
REMARK    6  A    between atoms: C_18  and  C_19
REMARK    7  A    between atoms: C_22  and  C_23
REMARK    8  A    between atoms: C_23  and  O_24
REMARK    9  A    between atoms: C_23  and  C_26
REMARK   10  A    between atoms: C_26  and  N_27
REMARK   11  A    between atoms: N_27  and  S_29
REMARK   12  A    between atoms: S_29  and  C_33
REMARK                            x       y       z     vdW  Elec       q    Type
REMARK                         _______ _______ _______ _____ _____    ______ ____
ROOT
ATOM      1  O   UNL     1      34.246 -14.630 -20.706  0.00  0.00    -0.275 OA
ATOM      2  N   UNL     1      32.525 -13.327 -21.551  0.00  0.00    -0.302 N 
ATOM      3  C   UNL     1      33.591 -14.209 -21.656  0.00  0.00    +0.226 C 
ATOM      4  H   UNL     1      32.060 -13.045 -22.373  0.00  0.00    +0.150 HD
ENDROOT
BRANCH   3   5
ATOM      5  C   UNL     1      33.884 -14.602 -23.109  0.00  0.00    +0.099 C 
BRANCH   5   6
ATOM      6  C   UNL     1      33.900 -16.115 -23.249  0.00  0.00    -0.014 C 
ATOM      7  C   UNL     1      34.318 -16.883 -22.180  0.00  0.00    -0.004 C 
ATOM      8  C   UNL     1      33.496 -16.680 -24.442  0.00  0.00    -0.004 C 
ATOM      9  C   UNL     1      34.332 -18.271 -22.310  0.00  0.00    -0.000 C 
ATOM     10  C   UNL     1      33.509 -18.069 -24.571  0.00  0.00    -0.000 C 
ATOM     11  C   UNL     1      33.927 -18.865 -23.505  0.00  0.00    -0.000 C 
BRANCH   9  12
ATOM     12  C   UNL     1      34.765 -19.097 -21.202  0.00  0.00    -0.000 C 
ATOM     13  C   UNL     1      33.877 -20.001 -20.618  0.00  0.00    -0.000 C 
ATOM     14  C   UNL     1      36.069 -18.990 -20.720  0.00  0.00    -0.000 C 
ATOM     15  C   UNL     1      34.294 -20.798 -19.552  0.00  0.00    -0.000 C 
ATOM     16  C   UNL     1      36.487 -19.786 -19.654  0.00  0.00    -0.000 C 
ATOM     17  C   UNL     1      35.599 -20.690 -19.070  0.00  0.00    +0.000 C 
ENDBRANCH   9  12
ENDBRANCH   5   6
BRANCH   5  18
ATOM     18  C   UNL     1      32.878 -13.923 -24.066  0.00  0.00    +0.013 C 
BRANCH  18  19
ATOM     19  C   UNL     1      33.467 -12.827 -24.979  0.00  0.00    +0.001 C 
ATOM     20  C   UNL     1      32.666 -12.757 -26.282  0.00  0.00    +0.000 C 
ATOM     21  C   UNL     1      33.480 -11.452 -24.310  0.00  0.00    +0.000 C 
ENDBRANCH  18  19
ENDBRANCH   5  18
ENDBRANCH   3   5
BRANCH   2  22
ATOM     22  C   UNL     1      32.070 -12.807 -20.283  0.00  0.00    +0.120 C 
BRANCH  22  23
ATOM     23  C   UNL     1      31.272 -11.511 -20.423  0.00  0.00    +0.147 C 
BRANCH  23  24
ATOM     24  O   UNL     1      31.658 -10.603 -19.392  0.00  0.00    -0.381 OA
ATOM     25  H   UNL     1      32.213  -9.902 -19.770  0.00  0.00    +0.210 HD
ENDBRANCH  23  24
BRANCH  23  26
ATOM     26  C   UNL     1      31.477 -10.831 -21.775  0.00  0.00    +0.122 C 
BRANCH  26  27
ATOM     27  N   UNL     1      31.043  -9.417 -21.686  0.00  0.00    -0.175 NA
ATOM     28  H   UNL     1      30.032  -9.410 -21.821  0.00  0.00    +0.149 HD
BRANCH  27  29
ATOM     29  S   UNL     1      31.690  -8.264 -22.752  0.00  0.00    +0.077 S 
ATOM     30  O   UNL     1      30.972  -8.315 -24.012  0.00  0.00    -0.152 OA
ATOM     31  O   UNL     1      33.137  -8.367 -22.731  0.00  0.00    -0.152 OA
BRANCH  29  33
ATOM     32  N   UNL     1      30.361  -6.048 -22.644  0.00  0.00    -0.224 NA
ATOM     33  C   UNL     1      31.269  -6.747 -21.947  0.00  0.00    +0.203 C 
ATOM     34  C   UNL     1      31.836  -6.382 -20.756  0.00  0.00    +0.040 C 
ATOM     35  C   UNL     1      31.429  -5.167 -20.215  0.00  0.00    +0.005 C 
ATOM     36  C   UNL     1      29.992  -4.874 -22.087  0.00  0.00    +0.100 C 
ATOM     37  C   UNL     1      30.490  -4.393 -20.886  0.00  0.00    +0.021 C 
ENDBRANCH  29  33
ENDBRANCH  27  29
ENDBRANCH  26  27
ENDBRANCH  23  26
ENDBRANCH  22  23
ENDBRANCH   2  22
TORSDOF 12
ENDMDL
MODEL 8
REMARK VINA RESULT:     -10.6      3.173      9.588
REMARK  Name = 5288593
REMARK  12 active torsions:
REMARK  status: ('A' for Active; 'I' for Inactive)
REMARK    1  A    between atoms: N_2  and  C_22
REMARK    2  A    between atoms: C_3  and  C_5
REMARK    3  A    between atoms: C_5  and  C_6
REMARK    4  A    between atoms: C_5  and  C_18
REMARK    5  A    between atoms: C_9  and  C_12
REMARK    6  A    between atoms: C_18  and  C_19
REMARK    7  A    between atoms: C_22  and  C_23
REMARK    8  A    between atoms: C_23  and  O_24
REMARK    9  A    between atoms: C_23  and  C_26
REMARK   10  A    between atoms: C_26  and  N_27
REMARK   11  A    between atoms: N_27  and  S_29
REMARK   12  A    between atoms: S_29  and  C_33
REMARK                            x       y       z     vdW  Elec       q    Type
REMARK                         _______ _______ _______ _____ _____    ______ ____
ROOT
ATOM      1  O   UNL     1      36.812 -19.324 -19.264  0.00  0.00    -0.275 OA
ATOM      2  N   UNL     1      35.866 -20.844 -17.790  0.00  0.00    -0.302 N 
ATOM      3  C   UNL     1      35.869 -20.030 -18.914  0.00  0.00    +0.226 C 
ATOM      4  H   UNL     1      35.060 -21.375 -17.591  0.00  0.00    +0.150 HD
ENDROOT
BRANCH   3   5
ATOM      5  C   UNL     1      34.544 -20.090 -19.683  0.00  0.00    +0.099 C 
BRANCH   5   6
ATOM      6  C   UNL     1      34.632 -19.246 -20.944  0.00  0.00    -0.014 C 
ATOM      7  C   UNL     1      34.385 -17.889 -20.862  0.00  0.00    -0.004 C 
ATOM      8  C   UNL     1      34.957 -19.860 -22.138  0.00  0.00    -0.004 C 
ATOM      9  C   UNL     1      34.467 -17.116 -22.019  0.00  0.00    -0.000 C 
ATOM     10  C   UNL     1      35.038 -19.086 -23.295  0.00  0.00    -0.000 C 
ATOM     11  C   UNL     1      34.794 -17.714 -23.236  0.00  0.00    -0.000 C 
BRANCH   9  12
ATOM     12  C   UNL     1      34.213 -15.692 -21.958  0.00  0.00    -0.000 C 
ATOM     13  C   UNL     1      34.003 -15.076 -20.724  0.00  0.00    -0.000 C 
ATOM     14  C   UNL     1      34.179 -14.938 -23.130  0.00  0.00    -0.000 C 
ATOM     15  C   UNL     1      33.759 -13.703 -20.663  0.00  0.00    -0.000 C 
ATOM     16  C   UNL     1      33.935 -13.566 -23.070  0.00  0.00    -0.000 C 
ATOM     17  C   UNL     1      33.726 -12.949 -21.836  0.00  0.00    +0.000 C 
ENDBRANCH   9  12
ENDBRANCH   5   6
BRANCH   5  18
ATOM     18  C   UNL     1      34.152 -21.557 -19.972  0.00  0.00    +0.013 C 
BRANCH  18  19
ATOM     19  C   UNL     1      32.831 -22.029 -19.328  0.00  0.00    +0.001 C 
ATOM     20  C   UNL     1      33.136 -22.841 -18.066  0.00  0.00    +0.000 C 
ATOM     21  C   UNL     1      31.902 -20.865 -18.978  0.00  0.00    +0.000 C 
ENDBRANCH  18  19
ENDBRANCH   5  18
ENDBRANCH   3   5
BRANCH   2  22
ATOM     22  C   UNL     1      37.000 -20.945 -16.902  0.00  0.00    +0.120 C 
BRANCH  22  23
ATOM     23  C   UNL     1      36.940 -22.175 -15.997  0.00  0.00    +0.147 C 
BRANCH  23  24
ATOM     24  O   UNL     1      38.263 -22.659 -15.767  0.00  0.00    -0.381 OA
ATOM     25  H   UNL     1      38.295 -23.122 -14.915  0.00  0.00    +0.210 HD
ENDBRANCH  23  24
BRANCH  23  26
ATOM     26  C   UNL     1      36.283 -21.888 -14.648  0.00  0.00    +0.122 C 
BRANCH  26  27
ATOM     27  N   UNL     1      34.860 -22.299 -14.697  0.00  0.00    -0.175 NA
ATOM     28  H   UNL     1      34.315 -21.515 -14.338  0.00  0.00    +0.149 HD
BRANCH  27  29
ATOM     29  S   UNL     1      34.350 -23.682 -13.852  0.00  0.00    +0.077 S 
ATOM     30  O   UNL     1      34.754 -23.575 -12.463  0.00  0.00    -0.152 OA
ATOM     31  O   UNL     1      34.698 -24.858 -14.627  0.00  0.00    -0.152 OA
BRANCH  29  33
ATOM     32  N   UNL     1      31.976 -24.444 -13.167  0.00  0.00    -0.224 NA
ATOM     33  C   UNL     1      32.590 -23.521 -13.921  0.00  0.00    +0.203 C 
ATOM     34  C   UNL     1      31.984 -22.551 -14.672  0.00  0.00    +0.040 C 
ATOM     35  C   UNL     1      30.593 -22.519 -14.650  0.00  0.00    +0.005 C 
ATOM     36  C   UNL     1      30.626 -24.382 -13.172  0.00  0.00    +0.100 C 
ATOM     37  C   UNL     1      29.894 -23.448 -13.888  0.00  0.00    +0.021 C 
ENDBRANCH  29  33
ENDBRANCH  27  29
ENDBRANCH  26  27
ENDBRANCH  23  26
ENDBRANCH  22  23
ENDBRANCH   2  22
TORSDOF 12
ENDMDL
MODEL 9
REMARK VINA RESULT:     -10.6      3.540     10.036
REMARK  Name = 5288593
REMARK  12 active torsions:
REMARK  status: ('A' for Active; 'I' for Inactive)
REMARK    1  A    between atoms: N_2  and  C_22
REMARK    2  A    between atoms: C_3  and  C_5
REMARK    3  A    between atoms: C_5  and  C_6
REMARK    4  A    between atoms: C_5  and  C_18
REMARK    5  A    between atoms: C_9  and  C_12
REMARK    6  A    between atoms: C_18  and  C_19
REMARK    7  A    between atoms: C_22  and  C_23
REMARK    8  A    between atoms: C_23  and  O_24
REMARK    9  A    between atoms: C_23  and  C_26
REMARK   10  A    between atoms: C_26  and  N_27
REMARK   11  A    between atoms: N_27  and  S_29
REMARK   12  A    between atoms: S_29  and  C_33
REMARK                            x       y       z     vdW  Elec       q    Type
REMARK                         _______ _______ _______ _____ _____    ______ ____
ROOT
ATOM      1  O   UNL     1      36.809 -19.229 -19.366  0.00  0.00    -0.275 OA
ATOM      2  N   UNL     1      35.929 -20.785 -17.889  0.00  0.00    -0.302 N 
ATOM      3  C   UNL     1      35.888 -19.956 -19.002  0.00  0.00    +0.226 C 
ATOM      4  H   UNL     1      35.139 -21.333 -17.677  0.00  0.00    +0.150 HD
ENDROOT
BRANCH   3   5
ATOM      5  C   UNL     1      34.545 -20.031 -19.738  0.00  0.00    +0.099 C 
BRANCH   5   6
ATOM      6  C   UNL     1      34.599 -19.202 -21.010  0.00  0.00    -0.014 C 
ATOM      7  C   UNL     1      34.373 -17.842 -20.935  0.00  0.00    -0.004 C 
ATOM      8  C   UNL     1      34.872 -19.833 -22.208  0.00  0.00    -0.004 C 
ATOM      9  C   UNL     1      34.423 -17.082 -22.103  0.00  0.00    -0.000 C 
ATOM     10  C   UNL     1      34.922 -19.073 -23.376  0.00  0.00    -0.000 C 
ATOM     11  C   UNL     1      34.697 -17.697 -23.324  0.00  0.00    -0.000 C 
BRANCH   9  12
ATOM     12  C   UNL     1      34.191 -15.654 -22.048  0.00  0.00    -0.000 C 
ATOM     13  C   UNL     1      34.014 -15.025 -20.816  0.00  0.00    -0.000 C 
ATOM     14  C   UNL     1      34.143 -14.909 -23.225  0.00  0.00    -0.000 C 
ATOM     15  C   UNL     1      33.791 -13.649 -20.761  0.00  0.00    -0.000 C 
ATOM     16  C   UNL     1      33.919 -13.533 -23.172  0.00  0.00    -0.000 C 
ATOM     17  C   UNL     1      33.744 -12.904 -21.940  0.00  0.00    +0.000 C 
ENDBRANCH   9  12
ENDBRANCH   5   6
BRANCH   5  18
ATOM     18  C   UNL     1      34.153 -21.504 -19.999  0.00  0.00    +0.013 C 
BRANCH  18  19
ATOM     19  C   UNL     1      32.810 -21.951 -19.384  0.00  0.00    +0.001 C 
ATOM     20  C   UNL     1      33.072 -22.747 -18.103  0.00  0.00    +0.000 C 
ATOM     21  C   UNL     1      31.885 -20.772 -19.077  0.00  0.00    +0.000 C 
ENDBRANCH  18  19
ENDBRANCH   5  18
ENDBRANCH   3   5
BRANCH   2  22
ATOM     22  C   UNL     1      37.087 -20.876 -17.031  0.00  0.00    +0.120 C 
BRANCH  22  23
ATOM     23  C   UNL     1      36.887 -21.837 -15.860  0.00  0.00    +0.147 C 
BRANCH  23  24
ATOM     24  O   UNL     1      35.769 -22.683 -16.128  0.00  0.00    -0.381 OA
ATOM     25  H   UNL     1      35.950 -23.219 -16.916  0.00  0.00    +0.210 HD
ENDBRANCH  23  24
BRANCH  23  26
ATOM     26  C   UNL     1      38.110 -22.713 -15.596  0.00  0.00    +0.122 C 
BRANCH  26  27
ATOM     27  N   UNL     1      37.667 -24.083 -15.243  0.00  0.00    -0.175 NA
ATOM     28  H   UNL     1      36.647 -24.069 -15.232  0.00  0.00    +0.149 HD
BRANCH  27  29
ATOM     29  S   UNL     1      38.165 -24.780 -13.776  0.00  0.00    +0.077 S 
ATOM     30  O   UNL     1      39.413 -24.174 -13.353  0.00  0.00    -0.152 OA
ATOM     31  O   UNL     1      38.053 -26.223 -13.882  0.00  0.00    -0.152 OA
BRANCH  29  33
ATOM     32  N   UNL     1      35.691 -24.238 -13.256  0.00  0.00    -0.224 NA
ATOM     33  C   UNL     1      36.896 -24.244 -12.668  0.00  0.00    +0.203 C 
ATOM     34  C   UNL     1      37.171 -23.890 -11.375  0.00  0.00    +0.040 C 
ATOM     35  C   UNL     1      36.093 -23.485 -10.594  0.00  0.00    +0.005 C 
ATOM     36  C   UNL     1      34.670 -23.838 -12.466  0.00  0.00    +0.100 C 
ATOM     37  C   UNL     1      34.816 -23.456 -11.142  0.00  0.00    +0.021 C 
ENDBRANCH  29  33
ENDBRANCH  27  29
ENDBRANCH  26  27
ENDBRANCH  23  26
ENDBRANCH  22  23
ENDBRANCH   2  22
TORSDOF 12
ENDMDL
