MODEL 1
REMARK VINA RESULT:     -13.1      0.000      0.000
REMARK  Name = 11313622
REMARK  3 active torsions:
REMARK  status: ('A' for Active; 'I' for Inactive)
REMARK    1  A    between atoms: N_4  and  C_8
REMARK    2  A    between atoms: N_5  and  C_18
REMARK    3  A    between atoms: C_18  and  C_19
REMARK                            x       y       z     vdW  Elec       q    Type
REMARK                         _______ _______ _______ _____ _____    ______ ____
ROOT
ATOM      1  S   UNL     1      33.884 -17.375 -23.863  0.00  0.00    +0.060 S 
ATOM      2  O   UNL     1      35.169 -16.793 -20.347  0.00  0.00    -0.245 OA
ATOM      3  O   UNL     1      34.624 -19.890 -23.785  0.00  0.00    -0.258 OA
ATOM      4  N   UNL     1      34.202 -16.455 -22.457  0.00  0.00    -0.226 N 
ATOM      5  N   UNL     1      35.012 -18.536 -21.909  0.00  0.00    -0.237 N 
ATOM      6  C   UNL     1      34.830 -17.215 -21.451  0.00  0.00    +0.344 A 
ATOM      7  C   UNL     1      34.574 -18.830 -23.179  0.00  0.00    +0.312 A 
ENDROOT
BRANCH   4   8
ATOM      8  C   UNL     1      33.876 -15.099 -22.321  0.00  0.00    +0.075 C 
ATOM      9  C   UNL     1      33.481 -14.320 -23.421  0.00  0.00    +0.017 C 
ATOM     10  C   UNL     1      33.165 -12.955 -23.224  0.00  0.00    +0.001 C 
ATOM     11  C   UNL     1      33.958 -14.541 -21.045  0.00  0.00    +0.018 C 
ATOM     12  C   UNL     1      33.394 -14.866 -24.713  0.00  0.00    +0.001 C 
ATOM     13  C   UNL     1      33.253 -12.409 -21.933  0.00  0.00    +0.000 C 
ATOM     14  C   UNL     1      33.647 -13.199 -20.851  0.00  0.00    +0.002 C 
ATOM     15  C   UNL     1      32.771 -12.175 -24.323  0.00  0.00    +0.000 C 
ATOM     16  C   UNL     1      33.000 -14.076 -25.793  0.00  0.00    +0.000 C 
ATOM     17  C   UNL     1      32.689 -12.734 -25.599  0.00  0.00    +0.000 C 
ENDBRANCH   4   8
BRANCH   5  18
ATOM     18  C   UNL     1      35.643 -19.529 -21.059  0.00  0.00    +0.141 C 
BRANCH  18  19
ATOM     19  C   UNL     1      34.624 -20.247 -20.217  0.00  0.00    +0.001 C 
ATOM     20  C   UNL     1      33.281 -19.919 -20.340  0.00  0.00    -0.002 C 
ATOM     21  C   UNL     1      35.040 -21.230 -19.328  0.00  0.00    -0.002 C 
ATOM     22  C   UNL     1      32.335 -20.584 -19.559  0.00  0.00    -0.000 C 
ATOM     23  C   UNL     1      34.095 -21.895 -18.548  0.00  0.00    -0.000 C 
ATOM     24  C   UNL     1      32.742 -21.572 -18.663  0.00  0.00    -0.000 C 
ENDBRANCH  18  19
ENDBRANCH   5  18
TORSDOF 3
ENDMDL
MODEL 2
REMARK VINA RESULT:     -12.6      6.633      9.328
REMARK  Name = 11313622
REMARK  3 active torsions:
REMARK  status: ('A' for Active; 'I' for Inactive)
REMARK    1  A    between atoms: N_4  and  C_8
REMARK    2  A    between atoms: N_5  and  C_18
REMARK    3  A    between atoms: C_18  and  C_19
REMARK                            x       y       z     vdW  Elec       q    Type
REMARK                         _______ _______ _______ _____ _____    ______ ____
ROOT
ATOM      1  S   UNL     1      32.022  -7.664 -19.986  0.00  0.00    +0.060 S 
ATOM      2  O   UNL     1      31.446  -9.131 -23.430  0.00  0.00    -0.245 OA
ATOM      3  O   UNL     1      31.137  -9.849 -18.837  0.00  0.00    -0.258 OA
ATOM      4  N   UNL     1      32.031  -7.665 -21.696  0.00  0.00    -0.226 N 
ATOM      5  N   UNL     1      31.193  -9.743 -21.180  0.00  0.00    -0.237 N 
ATOM      6  C   UNL     1      31.547  -8.874 -22.233  0.00  0.00    +0.344 A 
ATOM      7  C   UNL     1      31.370  -9.285 -19.895  0.00  0.00    +0.312 A 
ENDROOT
BRANCH   4   8
ATOM      8  C   UNL     1      32.469  -6.586 -22.474  0.00  0.00    +0.075 C 
ATOM      9  C   UNL     1      31.791  -5.356 -22.482  0.00  0.00    +0.017 C 
ATOM     10  C   UNL     1      32.279  -4.302 -23.289  0.00  0.00    +0.001 C 
ATOM     11  C   UNL     1      33.612  -6.774 -23.252  0.00  0.00    +0.018 C 
ATOM     12  C   UNL     1      30.638  -5.150 -21.706  0.00  0.00    +0.001 C 
ATOM     13  C   UNL     1      33.431  -4.508 -24.066  0.00  0.00    +0.000 C 
ATOM     14  C   UNL     1      34.092  -5.737 -24.046  0.00  0.00    +0.002 C 
ATOM     15  C   UNL     1      31.600  -3.073 -23.298  0.00  0.00    +0.000 C 
ATOM     16  C   UNL     1      29.977  -3.921 -21.726  0.00  0.00    +0.000 C 
ATOM     17  C   UNL     1      30.457  -2.885 -22.521  0.00  0.00    +0.000 C 
ENDBRANCH   4   8
BRANCH   5  18
ATOM     18  C   UNL     1      30.662 -11.064 -21.463  0.00  0.00    +0.141 C 
BRANCH  18  19
ATOM     19  C   UNL     1      31.755 -12.098 -21.470  0.00  0.00    +0.001 C 
ATOM     20  C   UNL     1      32.639 -12.152 -22.538  0.00  0.00    -0.002 C 
ATOM     21  C   UNL     1      31.866 -12.983 -20.406  0.00  0.00    -0.002 C 
ATOM     22  C   UNL     1      33.653 -13.111 -22.544  0.00  0.00    -0.000 C 
ATOM     23  C   UNL     1      32.879 -13.941 -20.411  0.00  0.00    -0.000 C 
ATOM     24  C   UNL     1      33.773 -14.005 -21.481  0.00  0.00    -0.000 C 
ENDBRANCH  18  19
ENDBRANCH   5  18
TORSDOF 3
ENDMDL
MODEL 3
REMARK VINA RESULT:     -12.5      6.697      9.520
REMARK  Name = 11313622
REMARK  3 active torsions:
REMARK  status: ('A' for Active; 'I' for Inactive)
REMARK    1  A    between atoms: N_4  and  C_8
REMARK    2  A    between atoms: N_5  and  C_18
REMARK    3  A    between atoms: C_18  and  C_19
REMARK                            x       y       z     vdW  Elec       q    Type
REMARK                         _______ _______ _______ _____ _____    ______ ____
ROOT
ATOM      1  S   UNL     1      31.813  -7.392 -19.707  0.00  0.00    +0.060 S 
ATOM      2  O   UNL     1      30.354  -8.409 -23.052  0.00  0.00    -0.245 OA
ATOM      3  O   UNL     1      31.563  -9.834 -18.784  0.00  0.00    -0.258 OA
ATOM      4  N   UNL     1      31.291  -7.141 -21.316  0.00  0.00    -0.226 N 
ATOM      5  N   UNL     1      30.878  -9.378 -20.981  0.00  0.00    -0.237 N 
ATOM      6  C   UNL     1      30.794  -8.318 -21.908  0.00  0.00    +0.344 A 
ATOM      7  C   UNL     1      31.395  -9.091 -19.739  0.00  0.00    +0.312 A 
ENDROOT
BRANCH   4   8
ATOM      8  C   UNL     1      31.349  -5.904 -21.971  0.00  0.00    +0.075 C 
ATOM      9  C   UNL     1      32.308  -5.636 -22.962  0.00  0.00    +0.017 C 
ATOM     10  C   UNL     1      32.320  -4.368 -23.589  0.00  0.00    +0.001 C 
ATOM     11  C   UNL     1      30.415  -4.935 -21.603  0.00  0.00    +0.018 C 
ATOM     12  C   UNL     1      33.256  -6.600 -23.344  0.00  0.00    +0.001 C 
ATOM     13  C   UNL     1      31.372  -3.404 -23.206  0.00  0.00    +0.000 C 
ATOM     14  C   UNL     1      30.426  -3.687 -22.220  0.00  0.00    +0.002 C 
ATOM     15  C   UNL     1      33.279  -4.099 -24.578  0.00  0.00    +0.000 C 
ATOM     16  C   UNL     1      34.201  -6.316 -24.330  0.00  0.00    +0.000 C 
ATOM     17  C   UNL     1      34.213  -5.068 -24.946  0.00  0.00    +0.000 C 
ENDBRANCH   4   8
BRANCH   5  18
ATOM     18  C   UNL     1      30.427 -10.709 -21.342  0.00  0.00    +0.141 C 
BRANCH  18  19
ATOM     19  C   UNL     1      31.593 -11.618 -21.624  0.00  0.00    +0.001 C 
ATOM     20  C   UNL     1      31.890 -12.645 -20.739  0.00  0.00    -0.002 C 
ATOM     21  C   UNL     1      32.355 -11.418 -22.767  0.00  0.00    -0.002 C 
ATOM     22  C   UNL     1      32.971 -13.487 -21.000  0.00  0.00    -0.000 C 
ATOM     23  C   UNL     1      33.435 -12.260 -23.029  0.00  0.00    -0.000 C 
ATOM     24  C   UNL     1      33.743 -13.295 -22.145  0.00  0.00    -0.000 C 
ENDBRANCH  18  19
ENDBRANCH   5  18
TORSDOF 3
ENDMDL
MODEL 4
REMARK VINA RESULT:     -12.0      1.503      6.926
REMARK  Name = 11313622
REMARK  3 active torsions:
REMARK  status: ('A' for Active; 'I' for Inactive)
REMARK    1  A    between atoms: N_4  and  C_8
REMARK    2  A    between atoms: N_5  and  C_18
REMARK    3  A    between atoms: C_18  and  C_19
REMARK                            x       y       z     vdW  Elec       q    Type
REMARK                         _______ _______ _______ _____ _____    ______ ____
ROOT
ATOM      1  S   UNL     1      33.787 -18.804 -23.344  0.00  0.00    +0.060 S 
ATOM      2  O   UNL     1      35.395 -16.501 -20.802  0.00  0.00    -0.245 OA
ATOM      3  O   UNL     1      33.334 -16.797 -24.971  0.00  0.00    -0.258 OA
ATOM      4  N   UNL     1      34.564 -18.416 -21.871  0.00  0.00    -0.226 N 
ATOM      5  N   UNL     1      34.396 -16.378 -22.921  0.00  0.00    -0.237 N 
ATOM      6  C   UNL     1      34.846 -17.040 -21.760  0.00  0.00    +0.344 A 
ATOM      7  C   UNL     1      33.798 -17.143 -23.894  0.00  0.00    +0.312 A 
ENDROOT
BRANCH   4   8
ATOM      8  C   UNL     1      34.884 -19.359 -20.885  0.00  0.00    +0.075 C 
ATOM      9  C   UNL     1      33.890 -20.037 -20.161  0.00  0.00    +0.017 C 
ATOM     10  C   UNL     1      34.272 -20.979 -19.176  0.00  0.00    +0.001 C 
ATOM     11  C   UNL     1      36.235 -19.605 -20.644  0.00  0.00    +0.018 C 
ATOM     12  C   UNL     1      32.524 -19.800 -20.391  0.00  0.00    +0.001 C 
ATOM     13  C   UNL     1      35.638 -21.215 -18.945  0.00  0.00    +0.000 C 
ATOM     14  C   UNL     1      36.612 -20.532 -19.675  0.00  0.00    +0.002 C 
ATOM     15  C   UNL     1      33.279 -21.655 -18.450  0.00  0.00    +0.000 C 
ATOM     16  C   UNL     1      31.551 -20.483 -19.661  0.00  0.00    +0.000 C 
ATOM     17  C   UNL     1      31.927 -21.409 -18.693  0.00  0.00    +0.000 C 
ENDBRANCH   4   8
BRANCH   5  18
ATOM     18  C   UNL     1      34.565 -14.943 -23.061  0.00  0.00    +0.141 C 
BRANCH  18  19
ATOM     19  C   UNL     1      33.530 -14.196 -22.265  0.00  0.00    +0.001 C 
ATOM     20  C   UNL     1      33.419 -14.425 -20.900  0.00  0.00    -0.002 C 
ATOM     21  C   UNL     1      32.699 -13.285 -22.905  0.00  0.00    -0.002 C 
ATOM     22  C   UNL     1      32.459 -13.733 -20.162  0.00  0.00    -0.000 C 
ATOM     23  C   UNL     1      31.740 -12.593 -22.167  0.00  0.00    -0.000 C 
ATOM     24  C   UNL     1      31.620 -12.816 -20.795  0.00  0.00    -0.000 C 
ENDBRANCH  18  19
ENDBRANCH   5  18
TORSDOF 3
ENDMDL
MODEL 5
REMARK VINA RESULT:     -11.9      2.161      8.053
REMARK  Name = 11313622
REMARK  3 active torsions:
REMARK  status: ('A' for Active; 'I' for Inactive)
REMARK    1  A    between atoms: N_4  and  C_8
REMARK    2  A    between atoms: N_5  and  C_18
REMARK    3  A    between atoms: C_18  and  C_19
REMARK                            x       y       z     vdW  Elec       q    Type
REMARK                         _______ _______ _______ _____ _____    ______ ____
ROOT
ATOM      1  S   UNL     1      36.478 -19.690 -19.844  0.00  0.00    +0.060 S 
ATOM      2  O   UNL     1      32.930 -19.653 -21.171  0.00  0.00    -0.245 OA
ATOM      3  O   UNL     1      37.276 -18.074 -21.749  0.00  0.00    -0.258 OA
ATOM      4  N   UNL     1      34.821 -20.114 -19.863  0.00  0.00    -0.226 N 
ATOM      5  N   UNL     1      35.021 -18.719 -21.680  0.00  0.00    -0.237 N 
ATOM      6  C   UNL     1      34.127 -19.511 -20.930  0.00  0.00    +0.344 A 
ATOM      7  C   UNL     1      36.332 -18.680 -21.265  0.00  0.00    +0.312 A 
ENDROOT
BRANCH   4   8
ATOM      8  C   UNL     1      34.222 -20.964 -18.924  0.00  0.00    +0.075 C 
ATOM      9  C   UNL     1      34.941 -21.488 -17.837  0.00  0.00    +0.017 C 
ATOM     10  C   UNL     1      34.283 -22.343 -16.921  0.00  0.00    +0.001 C 
ATOM     11  C   UNL     1      32.876 -21.279 -19.107  0.00  0.00    +0.018 C 
ATOM     12  C   UNL     1      36.297 -21.181 -17.638  0.00  0.00    +0.001 C 
ATOM     13  C   UNL     1      32.927 -22.651 -17.120  0.00  0.00    +0.000 C 
ATOM     14  C   UNL     1      32.229 -22.120 -18.207  0.00  0.00    +0.002 C 
ATOM     15  C   UNL     1      35.001 -22.868 -15.835  0.00  0.00    +0.000 C 
ATOM     16  C   UNL     1      36.994 -21.711 -16.552  0.00  0.00    +0.000 C 
ATOM     17  C   UNL     1      36.348 -22.553 -15.652  0.00  0.00    +0.000 C 
ENDBRANCH   4   8
BRANCH   5  18
ATOM     18  C   UNL     1      34.557 -17.986 -22.843  0.00  0.00    +0.141 C 
BRANCH  18  19
ATOM     19  C   UNL     1      34.324 -16.537 -22.513  0.00  0.00    +0.001 C 
ATOM     20  C   UNL     1      34.235 -16.143 -21.184  0.00  0.00    -0.002 C 
ATOM     21  C   UNL     1      34.203 -15.611 -23.541  0.00  0.00    -0.002 C 
ATOM     22  C   UNL     1      34.020 -14.800 -20.877  0.00  0.00    -0.000 C 
ATOM     23  C   UNL     1      33.988 -14.268 -23.234  0.00  0.00    -0.000 C 
ATOM     24  C   UNL     1      33.897 -13.862 -21.902  0.00  0.00    -0.000 C 
ENDBRANCH  18  19
ENDBRANCH   5  18
TORSDOF 3
ENDMDL
MODEL 6
REMARK VINA RESULT:     -11.8      4.943     10.069
REMARK  Name = 11313622
REMARK  3 active torsions:
REMARK  status: ('A' for Active; 'I' for Inactive)
REMARK    1  A    between atoms: N_4  and  C_8
REMARK    2  A    between atoms: N_5  and  C_18
REMARK    3  A    between atoms: C_18  and  C_19
REMARK                            x       y       z     vdW  Elec       q    Type
REMARK                         _______ _______ _______ _____ _____    ______ ____
ROOT
ATOM      1  S   UNL     1      31.146 -10.694 -22.131  0.00  0.00    +0.060 S 
ATOM      2  O   UNL     1      34.339  -9.810 -23.968  0.00  0.00    -0.245 OA
ATOM      3  O   UNL     1      30.859  -8.221 -21.308  0.00  0.00    -0.258 OA
ATOM      4  N   UNL     1      32.519 -11.008 -23.102  0.00  0.00    -0.226 N 
ATOM      5  N   UNL     1      32.708  -8.762 -22.647  0.00  0.00    -0.237 N 
ATOM      6  C   UNL     1      33.301  -9.856 -23.312  0.00  0.00    +0.344 A 
ATOM      7  C   UNL     1      31.545  -8.999 -21.954  0.00  0.00    +0.312 A 
ENDROOT
BRANCH   4   8
ATOM      8  C   UNL     1      32.831 -12.269 -23.628  0.00  0.00    +0.075 C 
ATOM      9  C   UNL     1      33.304 -13.312 -22.816  0.00  0.00    +0.017 C 
ATOM     10  C   UNL     1      33.604 -14.564 -23.403  0.00  0.00    +0.001 C 
ATOM     11  C   UNL     1      32.655 -12.456 -24.999  0.00  0.00    +0.018 C 
ATOM     12  C   UNL     1      33.487 -13.140 -21.433  0.00  0.00    +0.001 C 
ATOM     13  C   UNL     1      33.422 -14.736 -24.785  0.00  0.00    +0.000 C 
ATOM     14  C   UNL     1      32.950 -13.687 -25.576  0.00  0.00    +0.002 C 
ATOM     15  C   UNL     1      34.079 -15.608 -22.592  0.00  0.00    +0.000 C 
ATOM     16  C   UNL     1      33.958 -14.189 -20.643  0.00  0.00    +0.000 C 
ATOM     17  C   UNL     1      34.254 -15.420 -21.220  0.00  0.00    +0.000 C 
ENDBRANCH   4   8
BRANCH   5  18
ATOM     18  C   UNL     1      33.319  -7.447 -22.704  0.00  0.00    +0.141 C 
BRANCH  18  19
ATOM     19  C   UNL     1      33.080  -6.795 -24.038  0.00  0.00    +0.001 C 
ATOM     20  C   UNL     1      34.161  -6.365 -24.795  0.00  0.00    -0.002 C 
ATOM     21  C   UNL     1      31.779  -6.633 -24.497  0.00  0.00    -0.002 C 
ATOM     22  C   UNL     1      33.939  -5.761 -26.032  0.00  0.00    -0.000 C 
ATOM     23  C   UNL     1      31.557  -6.029 -25.734  0.00  0.00    -0.000 C 
ATOM     24  C   UNL     1      32.637  -5.593 -26.502  0.00  0.00    -0.000 C 
ENDBRANCH  18  19
ENDBRANCH   5  18
TORSDOF 3
ENDMDL
MODEL 7
REMARK VINA RESULT:     -11.3      2.097      7.943
REMARK  Name = 11313622
REMARK  3 active torsions:
REMARK  status: ('A' for Active; 'I' for Inactive)
REMARK    1  A    between atoms: N_4  and  C_8
REMARK    2  A    between atoms: N_5  and  C_18
REMARK    3  A    between atoms: C_18  and  C_19
REMARK                            x       y       z     vdW  Elec       q    Type
REMARK                         _______ _______ _______ _____ _____    ______ ____
ROOT
ATOM      1  S   UNL     1      33.230 -20.611 -20.480  0.00  0.00    +0.060 S 
ATOM      2  O   UNL     1      36.629 -19.093 -19.775  0.00  0.00    -0.245 OA
ATOM      3  O   UNL     1      32.962 -19.163 -22.650  0.00  0.00    -0.258 OA
ATOM      4  N   UNL     1      34.683 -20.391 -19.604  0.00  0.00    -0.226 N 
ATOM      5  N   UNL     1      34.918 -18.940 -21.372  0.00  0.00    -0.237 N 
ATOM      6  C   UNL     1      35.530 -19.439 -20.204  0.00  0.00    +0.344 A 
ATOM      7  C   UNL     1      33.679 -19.439 -21.699  0.00  0.00    +0.312 A 
ENDROOT
BRANCH   4   8
ATOM      8  C   UNL     1      34.994 -21.079 -18.424  0.00  0.00    +0.075 C 
ATOM      9  C   UNL     1      34.010 -21.740 -17.672  0.00  0.00    +0.017 C 
ATOM     10  C   UNL     1      34.383 -22.418 -16.488  0.00  0.00    +0.001 C 
ATOM     11  C   UNL     1      36.328 -21.085 -18.016  0.00  0.00    +0.018 C 
ATOM     12  C   UNL     1      32.662 -21.743 -18.069  0.00  0.00    +0.001 C 
ATOM     13  C   UNL     1      35.731 -22.415 -16.090  0.00  0.00    +0.000 C 
ATOM     14  C   UNL     1      36.696 -21.753 -16.851  0.00  0.00    +0.002 C 
ATOM     15  C   UNL     1      33.399 -23.078 -15.734  0.00  0.00    +0.000 C 
ATOM     16  C   UNL     1      31.698 -22.405 -17.309  0.00  0.00    +0.000 C 
ATOM     17  C   UNL     1      32.065 -23.072 -16.143  0.00  0.00    +0.000 C 
ENDBRANCH   4   8
BRANCH   5  18
ATOM     18  C   UNL     1      35.586 -17.937 -22.182  0.00  0.00    +0.141 C 
BRANCH  18  19
ATOM     19  C   UNL     1      34.874 -16.614 -22.101  0.00  0.00    +0.001 C 
ATOM     20  C   UNL     1      34.600 -15.911 -23.266  0.00  0.00    -0.002 C 
ATOM     21  C   UNL     1      34.500 -16.114 -20.861  0.00  0.00    -0.002 C 
ATOM     22  C   UNL     1      33.941 -14.684 -23.190  0.00  0.00    -0.000 C 
ATOM     23  C   UNL     1      33.840 -14.888 -20.785  0.00  0.00    -0.000 C 
ATOM     24  C   UNL     1      33.561 -14.172 -21.950  0.00  0.00    -0.000 C 
ENDBRANCH  18  19
ENDBRANCH   5  18
TORSDOF 3
ENDMDL
MODEL 8
REMARK VINA RESULT:     -11.2      5.616      7.970
REMARK  Name = 11313622
REMARK  3 active torsions:
REMARK  status: ('A' for Active; 'I' for Inactive)
REMARK    1  A    between atoms: N_4  and  C_8
REMARK    2  A    between atoms: N_5  and  C_18
REMARK    3  A    between atoms: C_18  and  C_19
REMARK                            x       y       z     vdW  Elec       q    Type
REMARK                         _______ _______ _______ _____ _____    ______ ____
ROOT
ATOM      1  S   UNL     1      30.580 -10.050 -21.312  0.00  0.00    +0.060 S 
ATOM      2  O   UNL     1      33.686  -8.979 -23.199  0.00  0.00    -0.245 OA
ATOM      3  O   UNL     1      30.869 -12.529 -22.118  0.00  0.00    -0.258 OA
ATOM      4  N   UNL     1      31.763  -8.941 -21.857  0.00  0.00    -0.226 N 
ATOM      5  N   UNL     1      32.436 -10.925 -22.806  0.00  0.00    -0.237 N 
ATOM      6  C   UNL     1      32.732  -9.552 -22.676  0.00  0.00    +0.344 A 
ATOM      7  C   UNL     1      31.321 -11.395 -22.152  0.00  0.00    +0.312 A 
ENDROOT
BRANCH   4   8
ATOM      8  C   UNL     1      31.766  -7.580 -21.527  0.00  0.00    +0.075 C 
ATOM      9  C   UNL     1      31.372  -6.595 -22.447  0.00  0.00    +0.017 C 
ATOM     10  C   UNL     1      31.397  -5.235 -22.058  0.00  0.00    +0.001 C 
ATOM     11  C   UNL     1      32.180  -7.230 -20.241  0.00  0.00    +0.018 C 
ATOM     12  C   UNL     1      30.953  -6.930 -23.745  0.00  0.00    +0.001 C 
ATOM     13  C   UNL     1      31.816  -4.899 -20.760  0.00  0.00    +0.000 C 
ATOM     14  C   UNL     1      32.205  -5.892 -19.858  0.00  0.00    +0.002 C 
ATOM     15  C   UNL     1      31.004  -4.249 -22.977  0.00  0.00    +0.000 C 
ATOM     16  C   UNL     1      30.565  -5.938 -24.646  0.00  0.00    +0.000 C 
ATOM     17  C   UNL     1      30.590  -4.600 -24.263  0.00  0.00    +0.000 C 
ENDBRANCH   4   8
BRANCH   5  18
ATOM     18  C   UNL     1      33.285 -11.789 -23.605  0.00  0.00    +0.141 C 
BRANCH  18  19
ATOM     19  C   UNL     1      33.620 -13.055 -22.864  0.00  0.00    +0.001 C 
ATOM     20  C   UNL     1      33.687 -13.040 -21.478  0.00  0.00    -0.002 C 
ATOM     21  C   UNL     1      33.857 -14.223 -23.577  0.00  0.00    -0.002 C 
ATOM     22  C   UNL     1      33.997 -14.213 -20.791  0.00  0.00    -0.000 C 
ATOM     23  C   UNL     1      34.166 -15.396 -22.891  0.00  0.00    -0.000 C 
ATOM     24  C   UNL     1      34.237 -15.391 -21.497  0.00  0.00    -0.000 C 
ENDBRANCH  18  19
ENDBRANCH   5  18
TORSDOF 3
ENDMDL
MODEL 9
REMARK VINA RESULT:     -10.9      4.488      8.873
REMARK  Name = 11313622
REMARK  3 active torsions:
REMARK  status: ('A' for Active; 'I' for Inactive)
REMARK    1  A    between atoms: N_4  and  C_8
REMARK    2  A    between atoms: N_5  and  C_18
REMARK    3  A    between atoms: C_18  and  C_19
REMARK                            x       y       z     vdW  Elec       q    Type
REMARK                         _______ _______ _______ _____ _____    ______ ____
ROOT
ATOM      1  S   UNL     1      33.395 -11.270 -23.565  0.00  0.00    +0.060 S 
ATOM      2  O   UNL     1      31.145 -12.018 -20.610  0.00  0.00    -0.245 OA
ATOM      3  O   UNL     1      32.224  -8.955 -23.952  0.00  0.00    -0.258 OA
ATOM      4  N   UNL     1      32.802 -12.203 -22.259  0.00  0.00    -0.226 N 
ATOM      5  N   UNL     1      31.490 -10.316 -22.187  0.00  0.00    -0.237 N 
ATOM      6  C   UNL     1      31.748 -11.562 -21.579  0.00  0.00    +0.344 A 
ATOM      7  C   UNL     1      32.263  -9.969 -23.270  0.00  0.00    +0.312 A 
ENDROOT
BRANCH   4   8
ATOM      8  C   UNL     1      33.307 -13.461 -21.907  0.00  0.00    +0.075 C 
ATOM      9  C   UNL     1      33.510 -14.471 -22.862  0.00  0.00    +0.017 C 
ATOM     10  C   UNL     1      34.021 -15.723 -22.448  0.00  0.00    +0.001 C 
ATOM     11  C   UNL     1      33.604 -13.683 -20.562  0.00  0.00    +0.018 C 
ATOM     12  C   UNL     1      33.215 -14.264 -24.221  0.00  0.00    +0.001 C 
ATOM     13  C   UNL     1      34.315 -15.929 -21.090  0.00  0.00    +0.000 C 
ATOM     14  C   UNL     1      34.107 -14.914 -20.154  0.00  0.00    +0.002 C 
ATOM     15  C   UNL     1      34.223 -16.733 -23.402  0.00  0.00    +0.000 C 
ATOM     16  C   UNL     1      33.423 -15.279 -25.155  0.00  0.00    +0.000 C 
ATOM     17  C   UNL     1      33.926 -16.511 -24.748  0.00  0.00    +0.000 C 
ENDBRANCH   4   8
BRANCH   5  18
ATOM     18  C   UNL     1      30.442  -9.451 -21.676  0.00  0.00    +0.141 C 
BRANCH  18  19
ATOM     19  C   UNL     1      30.998  -8.119 -21.253  0.00  0.00    +0.001 C 
ATOM     20  C   UNL     1      31.781  -8.036 -20.109  0.00  0.00    -0.002 C 
ATOM     21  C   UNL     1      30.722  -6.990 -22.012  0.00  0.00    -0.002 C 
ATOM     22  C   UNL     1      32.296  -6.801 -19.716  0.00  0.00    -0.000 C 
ATOM     23  C   UNL     1      31.238  -5.755 -21.620  0.00  0.00    -0.000 C 
ATOM     24  C   UNL     1      32.026  -5.660 -20.472  0.00  0.00    -0.000 C 
ENDBRANCH  18  19
ENDBRANCH   5  18
TORSDOF 3
ENDMDL
