MODEL 1
REMARK VINA RESULT:     -12.0      0.000      0.000
REMARK  Name = 5472495
REMARK  6 active torsions:
REMARK  status: ('A' for Active; 'I' for Inactive)
REMARK    1  A    between atoms: C_2  and  C_23
REMARK    2  A    between atoms: C_3  and  C_7
REMARK    3  A    between atoms: C_7  and  C_13
REMARK    4  A    between atoms: C_16  and  S_19
REMARK    5  A    between atoms: C_23  and  C_25
REMARK    6  A    between atoms: C_25  and  O_26
REMARK                            x       y       z     vdW  Elec       q    Type
REMARK                         _______ _______ _______ _____ _____    ______ ____
ROOT
ATOM      1  F   UNL     1      36.861 -22.789 -12.463  0.00  0.00    -0.204 F 
ATOM      2  C   UNL     1      32.433 -22.716 -14.677  0.00  0.00    -0.030 C 
ATOM      3  C   UNL     1      33.380 -22.739 -16.767  0.00  0.00    -0.036 C 
ATOM      4  C   UNL     1      32.138 -22.716 -15.995  0.00  0.00    +0.037 C 
ATOM      5  C   UNL     1      33.901 -22.743 -14.543  0.00  0.00    -0.005 C 
ATOM      6  C   UNL     1      34.494 -22.756 -15.817  0.00  0.00    -0.008 C 
ATOM      7  C   UNL     1      34.689 -22.754 -13.401  0.00  0.00    +0.029 C 
ATOM      8  C   UNL     1      35.870 -22.781 -15.975  0.00  0.00    +0.002 C 
ATOM      9  C   UNL     1      30.795 -22.693 -16.641  0.00  0.00    +0.009 C 
ATOM     10  C   UNL     1      36.078 -22.778 -13.551  0.00  0.00    +0.140 C 
ATOM     11  C   UNL     1      36.663 -22.791 -14.826  0.00  0.00    +0.030 C 
ENDROOT
BRANCH   3  12
ATOM     12  C   UNL     1      33.507 -22.744 -18.100  0.00  0.00    +0.049 C 
BRANCH  12  13
ATOM     13  C   UNL     1      33.875 -21.587 -18.933  0.00  0.00    -0.018 C 
ATOM     14  C   UNL     1      35.213 -21.265 -19.097  0.00  0.00    -0.003 C 
ATOM     15  C   UNL     1      32.876 -20.840 -19.539  0.00  0.00    -0.003 C 
ATOM     16  C   UNL     1      34.567 -19.410 -20.503  0.00  0.00    +0.106 C 
ATOM     17  C   UNL     1      35.561 -20.170 -19.887  0.00  0.00    +0.018 C 
ATOM     18  C   UNL     1      33.225 -19.746 -20.329  0.00  0.00    +0.018 C 
BRANCH  16  19
ATOM     19  S   UNL     1      35.004 -18.040 -21.492  0.00  0.00    +0.010 S 
ATOM     20  O   UNL     1      34.265 -18.136 -22.744  0.00  0.00    -0.169 OA
ATOM     21  O   UNL     1      34.911 -16.828 -20.689  0.00  0.00    -0.169 OA
ATOM     22  C   UNL     1      36.727 -18.288 -21.856  0.00  0.00    +0.182 C 
ENDBRANCH  16  19
ENDBRANCH  12  13
ENDBRANCH   3  12
BRANCH   2  23
ATOM     23  C   UNL     1      31.538 -22.697 -13.491  0.00  0.00    +0.132 C 
BRANCH  23  25
ATOM     24  O   UNL     1      29.770 -24.385 -13.479  0.00  0.00    -0.250 OA
ATOM     25  C   UNL     1      30.929 -24.059 -13.265  0.00  0.00    +0.318 C 
BRANCH  25  26
ATOM     26  O   UNL     1      31.868 -24.908 -12.770  0.00  0.00    -0.480 OA
ATOM     27  H   UNL     1      32.095 -24.877 -11.862  0.00  0.00    +0.295 HD
ENDBRANCH  25  26
ENDBRANCH  23  25
ENDBRANCH   2  23
TORSDOF 6
ENDMDL
MODEL 2
REMARK VINA RESULT:     -11.6      2.054      3.445
REMARK  Name = 5472495
REMARK  6 active torsions:
REMARK  status: ('A' for Active; 'I' for Inactive)
REMARK    1  A    between atoms: C_2  and  C_23
REMARK    2  A    between atoms: C_3  and  C_7
REMARK    3  A    between atoms: C_7  and  C_13
REMARK    4  A    between atoms: C_16  and  S_19
REMARK    5  A    between atoms: C_23  and  C_25
REMARK    6  A    between atoms: C_25  and  O_26
REMARK                            x       y       z     vdW  Elec       q    Type
REMARK                         _______ _______ _______ _____ _____    ______ ____
ROOT
ATOM      1  F   UNL     1      29.276 -22.771 -13.381  0.00  0.00    -0.204 F 
ATOM      2  C   UNL     1      34.072 -22.710 -14.605  0.00  0.00    -0.030 C 
ATOM      3  C   UNL     1      33.590 -22.700 -16.849  0.00  0.00    -0.036 C 
ATOM      4  C   UNL     1      34.640 -22.695 -15.831  0.00  0.00    +0.037 C 
ATOM      5  C   UNL     1      32.609 -22.724 -14.786  0.00  0.00    -0.005 C 
ATOM      6  C   UNL     1      32.300 -22.719 -16.156  0.00  0.00    -0.008 C 
ATOM      7  C   UNL     1      31.598 -22.742 -13.837  0.00  0.00    +0.029 C 
ATOM      8  C   UNL     1      30.989 -22.730 -16.603  0.00  0.00    +0.002 C 
ATOM      9  C   UNL     1      36.090 -22.677 -16.178  0.00  0.00    +0.009 C 
ATOM     10  C   UNL     1      30.271 -22.754 -14.278  0.00  0.00    +0.140 C 
ATOM     11  C   UNL     1      29.970 -22.749 -15.648  0.00  0.00    +0.030 C 
ENDROOT
BRANCH   3  12
ATOM     12  C   UNL     1      33.748 -22.690 -18.179  0.00  0.00    +0.049 C 
BRANCH  12  13
ATOM     13  C   UNL     1      34.127 -21.523 -18.991  0.00  0.00    -0.018 C 
ATOM     14  C   UNL     1      35.465 -21.184 -19.112  0.00  0.00    -0.003 C 
ATOM     15  C   UNL     1      33.138 -20.783 -19.623  0.00  0.00    -0.003 C 
ATOM     16  C   UNL     1      34.840 -19.326 -20.524  0.00  0.00    +0.106 C 
ATOM     17  C   UNL     1      35.824 -20.078 -19.883  0.00  0.00    +0.018 C 
ATOM     18  C   UNL     1      33.497 -19.679 -20.394  0.00  0.00    +0.018 C 
BRANCH  16  19
ATOM     19  S   UNL     1      35.291 -17.943 -21.489  0.00  0.00    +0.010 S 
ATOM     20  O   UNL     1      34.897 -16.742 -20.764  0.00  0.00    -0.169 OA
ATOM     21  O   UNL     1      36.671 -18.101 -21.928  0.00  0.00    -0.169 OA
ATOM     22  C   UNL     1      34.270 -18.064 -22.940  0.00  0.00    +0.182 C 
ENDBRANCH  16  19
ENDBRANCH  12  13
ENDBRANCH   3  12
BRANCH   2  23
ATOM     23  C   UNL     1      34.697 -22.713 -13.257  0.00  0.00    +0.132 C 
BRANCH  23  25
ATOM     24  O   UNL     1      35.886 -24.845 -13.375  0.00  0.00    -0.250 OA
ATOM     25  C   UNL     1      35.059 -24.118 -12.844  0.00  0.00    +0.318 C 
BRANCH  25  26
ATOM     26  O   UNL     1      34.318 -24.487 -11.766  0.00  0.00    -0.480 OA
ATOM     27  H   UNL     1      34.471 -25.315 -11.354  0.00  0.00    +0.295 HD
ENDBRANCH  25  26
ENDBRANCH  23  25
ENDBRANCH   2  23
TORSDOF 6
ENDMDL
MODEL 3
REMARK VINA RESULT:     -11.5      1.897      3.462
REMARK  Name = 5472495
REMARK  6 active torsions:
REMARK  status: ('A' for Active; 'I' for Inactive)
REMARK    1  A    between atoms: C_2  and  C_23
REMARK    2  A    between atoms: C_3  and  C_7
REMARK    3  A    between atoms: C_7  and  C_13
REMARK    4  A    between atoms: C_16  and  S_19
REMARK    5  A    between atoms: C_23  and  C_25
REMARK    6  A    between atoms: C_25  and  O_26
REMARK                            x       y       z     vdW  Elec       q    Type
REMARK                         _______ _______ _______ _____ _____    ______ ____
ROOT
ATOM      1  F   UNL     1      29.322 -22.782 -13.253  0.00  0.00    -0.204 F 
ATOM      2  C   UNL     1      34.111 -22.727 -14.507  0.00  0.00    -0.030 C 
ATOM      3  C   UNL     1      33.615 -22.754 -16.748  0.00  0.00    -0.036 C 
ATOM      4  C   UNL     1      34.671 -22.730 -15.737  0.00  0.00    +0.037 C 
ATOM      5  C   UNL     1      32.647 -22.748 -14.679  0.00  0.00    -0.005 C 
ATOM      6  C   UNL     1      32.329 -22.766 -16.047  0.00  0.00    -0.008 C 
ATOM      7  C   UNL     1      31.641 -22.754 -13.723  0.00  0.00    +0.029 C 
ATOM      8  C   UNL     1      31.015 -22.788 -16.485  0.00  0.00    +0.002 C 
ATOM      9  C   UNL     1      36.119 -22.713 -16.093  0.00  0.00    +0.009 C 
ATOM     10  C   UNL     1      30.312 -22.777 -14.156  0.00  0.00    +0.140 C 
ATOM     11  C   UNL     1      30.002 -22.794 -15.524  0.00  0.00    +0.030 C 
ENDROOT
BRANCH   3  12
ATOM     12  C   UNL     1      33.765 -22.765 -18.078  0.00  0.00    +0.049 C 
BRANCH  12  13
ATOM     13  C   UNL     1      34.055 -21.593 -18.921  0.00  0.00    -0.018 C 
ATOM     14  C   UNL     1      33.007 -20.899 -19.504  0.00  0.00    -0.003 C 
ATOM     15  C   UNL     1      35.371 -21.204 -19.115  0.00  0.00    -0.003 C 
ATOM     16  C   UNL     1      34.601 -19.385 -20.505  0.00  0.00    +0.106 C 
ATOM     17  C   UNL     1      33.282 -19.788 -20.302  0.00  0.00    +0.018 C 
ATOM     18  C   UNL     1      35.646 -20.093 -19.912  0.00  0.00    +0.018 C 
BRANCH  16  19
ATOM     19  S   UNL     1      34.944 -17.994 -21.503  0.00  0.00    +0.010 S 
ATOM     20  O   UNL     1      34.161 -18.116 -22.726  0.00  0.00    -0.169 OA
ATOM     21  O   UNL     1      34.833 -16.790 -20.691  0.00  0.00    -0.169 OA
ATOM     22  C   UNL     1      36.660 -18.172 -21.934  0.00  0.00    +0.182 C 
ENDBRANCH  16  19
ENDBRANCH  12  13
ENDBRANCH   3  12
BRANCH   2  23
ATOM     23  C   UNL     1      34.743 -22.707 -13.163  0.00  0.00    +0.132 C 
BRANCH  23  25
ATOM     24  O   UNL     1      36.059 -24.766 -13.123  0.00  0.00    -0.250 OA
ATOM     25  C   UNL     1      35.110 -24.104 -12.729  0.00  0.00    +0.318 C 
BRANCH  25  26
ATOM     26  O   UNL     1      34.213 -24.552 -11.810  0.00  0.00    -0.480 OA
ATOM     27  H   UNL     1      33.375 -24.863 -12.088  0.00  0.00    +0.295 HD
ENDBRANCH  25  26
ENDBRANCH  23  25
ENDBRANCH   2  23
TORSDOF 6
ENDMDL
MODEL 4
REMARK VINA RESULT:      -9.7      4.293      6.602
REMARK  Name = 5472495
REMARK  6 active torsions:
REMARK  status: ('A' for Active; 'I' for Inactive)
REMARK    1  A    between atoms: C_2  and  C_23
REMARK    2  A    between atoms: C_3  and  C_7
REMARK    3  A    between atoms: C_7  and  C_13
REMARK    4  A    between atoms: C_16  and  S_19
REMARK    5  A    between atoms: C_23  and  C_25
REMARK    6  A    between atoms: C_25  and  O_26
REMARK                            x       y       z     vdW  Elec       q    Type
REMARK                         _______ _______ _______ _____ _____    ______ ____
ROOT
ATOM      1  F   UNL     1      32.862 -21.377 -19.469  0.00  0.00    -0.204 F 
ATOM      2  C   UNL     1      30.980 -23.498 -15.411  0.00  0.00    -0.030 C 
ATOM      3  C   UNL     1      33.031 -23.558 -14.384  0.00  0.00    -0.036 C 
ATOM      4  C   UNL     1      31.607 -23.873 -14.275  0.00  0.00    +0.037 C 
ATOM      5  C   UNL     1      31.989 -22.914 -16.313  0.00  0.00    -0.005 C 
ATOM      6  C   UNL     1      33.251 -22.946 -15.696  0.00  0.00    -0.008 C 
ATOM      7  C   UNL     1      31.843 -22.387 -17.587  0.00  0.00    +0.029 C 
ATOM      8  C   UNL     1      34.380 -22.457 -16.332  0.00  0.00    +0.002 C 
ATOM      9  C   UNL     1      31.020 -24.511 -13.062  0.00  0.00    +0.009 C 
ATOM     10  C   UNL     1      32.977 -21.892 -18.237  0.00  0.00    +0.140 C 
ATOM     11  C   UNL     1      34.235 -21.927 -17.615  0.00  0.00    +0.030 C 
ENDROOT
BRANCH   3  12
ATOM     12  C   UNL     1      33.984 -23.778 -13.469  0.00  0.00    +0.049 C 
BRANCH  12  13
ATOM     13  C   UNL     1      35.396 -24.078 -13.753  0.00  0.00    -0.018 C 
ATOM     14  C   UNL     1      36.375 -23.181 -13.357  0.00  0.00    -0.003 C 
ATOM     15  C   UNL     1      35.723 -25.254 -14.412  0.00  0.00    -0.003 C 
ATOM     16  C   UNL     1      38.057 -24.646 -14.286  0.00  0.00    +0.106 C 
ATOM     17  C   UNL     1      37.714 -23.467 -13.625  0.00  0.00    +0.018 C 
ATOM     18  C   UNL     1      37.061 -25.539 -14.680  0.00  0.00    +0.018 C 
BRANCH  16  19
ATOM     19  S   UNL     1      39.733 -25.002 -14.621  0.00  0.00    +0.010 S 
ATOM     20  O   UNL     1      39.823 -25.485 -15.993  0.00  0.00    -0.169 OA
ATOM     21  O   UNL     1      40.550 -23.873 -14.198  0.00  0.00    -0.169 OA
ATOM     22  C   UNL     1      40.122 -26.358 -13.538  0.00  0.00    +0.182 C 
ENDBRANCH  16  19
ENDBRANCH  12  13
ENDBRANCH   3  12
BRANCH   2  23
ATOM     23  C   UNL     1      29.549 -23.599 -15.797  0.00  0.00    +0.132 C 
BRANCH  23  25
ATOM     24  O   UNL     1      28.739 -21.626 -14.604  0.00  0.00    -0.250 OA
ATOM     25  C   UNL     1      28.861 -22.266 -15.638  0.00  0.00    +0.318 C 
BRANCH  25  26
ATOM     26  O   UNL     1      28.372 -21.853 -16.838  0.00  0.00    -0.480 OA
ATOM     27  H   UNL     1      28.698 -22.231 -17.631  0.00  0.00    +0.295 HD
ENDBRANCH  25  26
ENDBRANCH  23  25
ENDBRANCH   2  23
TORSDOF 6
ENDMDL
MODEL 5
REMARK VINA RESULT:      -9.4      4.333      6.827
REMARK  Name = 5472495
REMARK  6 active torsions:
REMARK  status: ('A' for Active; 'I' for Inactive)
REMARK    1  A    between atoms: C_2  and  C_23
REMARK    2  A    between atoms: C_3  and  C_7
REMARK    3  A    between atoms: C_7  and  C_13
REMARK    4  A    between atoms: C_16  and  S_19
REMARK    5  A    between atoms: C_23  and  C_25
REMARK    6  A    between atoms: C_25  and  O_26
REMARK                            x       y       z     vdW  Elec       q    Type
REMARK                         _______ _______ _______ _____ _____    ______ ____
ROOT
ATOM      1  F   UNL     1      36.364 -21.530 -17.865  0.00  0.00    -0.204 F 
ATOM      2  C   UNL     1      36.119 -23.328 -13.258  0.00  0.00    -0.030 C 
ATOM      3  C   UNL     1      33.859 -23.690 -13.426  0.00  0.00    -0.036 C 
ATOM      4  C   UNL     1      35.047 -23.789 -12.578  0.00  0.00    +0.037 C 
ATOM      5  C   UNL     1      35.659 -22.907 -14.594  0.00  0.00    -0.005 C 
ATOM      6  C   UNL     1      34.276 -23.122 -14.710  0.00  0.00    -0.008 C 
ATOM      7  C   UNL     1      36.378 -22.370 -15.652  0.00  0.00    +0.029 C 
ATOM      8  C   UNL     1      33.589 -22.810 -15.871  0.00  0.00    +0.002 C 
ATOM      9  C   UNL     1      34.995 -24.327 -11.189  0.00  0.00    +0.009 C 
ATOM     10  C   UNL     1      35.693 -22.050 -16.828  0.00  0.00    +0.140 C 
ATOM     11  C   UNL     1      34.311 -22.268 -16.936  0.00  0.00    +0.030 C 
ENDROOT
BRANCH   3  12
ATOM     12  C   UNL     1      32.606 -24.043 -13.112  0.00  0.00    +0.049 C 
BRANCH  12  13
ATOM     13  C   UNL     1      31.400 -23.711 -13.887  0.00  0.00    -0.018 C 
ATOM     14  C   UNL     1      30.890 -22.423 -13.833  0.00  0.00    -0.003 C 
ATOM     15  C   UNL     1      30.794 -24.692 -14.658  0.00  0.00    -0.003 C 
ATOM     16  C   UNL     1      29.129 -23.084 -15.348  0.00  0.00    +0.106 C 
ATOM     17  C   UNL     1      29.747 -22.108 -14.568  0.00  0.00    +0.018 C 
ATOM     18  C   UNL     1      29.652 -24.376 -15.393  0.00  0.00    +0.018 C 
BRANCH  16  19
ATOM     19  S   UNL     1      27.698 -22.689 -16.268  0.00  0.00    +0.010 S 
ATOM     20  O   UNL     1      28.021 -21.566 -17.138  0.00  0.00    -0.169 OA
ATOM     21  O   UNL     1      27.150 -23.911 -16.839  0.00  0.00    -0.169 OA
ATOM     22  C   UNL     1      26.534 -22.119 -15.050  0.00  0.00    +0.182 C 
ENDBRANCH  16  19
ENDBRANCH  12  13
ENDBRANCH   3  12
BRANCH   2  23
ATOM     23  C   UNL     1      37.543 -23.216 -12.848  0.00  0.00    +0.132 C 
BRANCH  23  25
ATOM     24  O   UNL     1      38.027 -25.609 -12.738  0.00  0.00    -0.250 OA
ATOM     25  C   UNL     1      38.286 -24.492 -13.159  0.00  0.00    +0.318 C 
BRANCH  25  26
ATOM     26  O   UNL     1      39.322 -24.228 -13.999  0.00  0.00    -0.480 OA
ATOM     27  H   UNL     1      39.910 -24.915 -14.247  0.00  0.00    +0.295 HD
ENDBRANCH  25  26
ENDBRANCH  23  25
ENDBRANCH   2  23
TORSDOF 6
ENDMDL
MODEL 6
REMARK VINA RESULT:      -9.0      8.796     12.936
REMARK  Name = 5472495
REMARK  6 active torsions:
REMARK  status: ('A' for Active; 'I' for Inactive)
REMARK    1  A    between atoms: C_2  and  C_23
REMARK    2  A    between atoms: C_3  and  C_7
REMARK    3  A    between atoms: C_7  and  C_13
REMARK    4  A    between atoms: C_16  and  S_19
REMARK    5  A    between atoms: C_23  and  C_25
REMARK    6  A    between atoms: C_25  and  O_26
REMARK                            x       y       z     vdW  Elec       q    Type
REMARK                         _______ _______ _______ _____ _____    ______ ____
ROOT
ATOM      1  F   UNL     1      34.114  -5.665 -22.695  0.00  0.00    -0.204 F 
ATOM      2  C   UNL     1      31.511  -9.746 -21.656  0.00  0.00    -0.030 C 
ATOM      3  C   UNL     1      32.676 -10.987 -23.196  0.00  0.00    -0.036 C 
ATOM      4  C   UNL     1      31.616 -10.983 -22.188  0.00  0.00    +0.037 C 
ATOM      5  C   UNL     1      32.517  -8.887 -22.308  0.00  0.00    -0.005 C 
ATOM      6  C   UNL     1      33.237  -9.635 -23.255  0.00  0.00    -0.008 C 
ATOM      7  C   UNL     1      32.802  -7.545 -22.108  0.00  0.00    +0.029 C 
ATOM      8  C   UNL     1      34.246  -9.064 -24.012  0.00  0.00    +0.002 C 
ATOM      9  C   UNL     1      30.820 -12.200 -21.860  0.00  0.00    +0.009 C 
ATOM     10  C   UNL     1      33.819  -6.960 -22.869  0.00  0.00    +0.140 C 
ATOM     11  C   UNL     1      34.534  -7.713 -23.813  0.00  0.00    +0.030 C 
ENDROOT
BRANCH   3  12
ATOM     12  C   UNL     1      33.081 -12.020 -23.944  0.00  0.00    +0.049 C 
BRANCH  12  13
ATOM     13  C   UNL     1      33.520 -13.330 -23.436  0.00  0.00    -0.018 C 
ATOM     14  C   UNL     1      33.598 -14.405 -24.307  0.00  0.00    -0.003 C 
ATOM     15  C   UNL     1      33.849 -13.464 -22.096  0.00  0.00    -0.003 C 
ATOM     16  C   UNL     1      34.351 -15.796 -22.480  0.00  0.00    +0.106 C 
ATOM     17  C   UNL     1      34.016 -15.646 -23.825  0.00  0.00    +0.018 C 
ATOM     18  C   UNL     1      34.268 -14.705 -21.615  0.00  0.00    +0.018 C 
BRANCH  16  19
ATOM     19  S   UNL     1      34.874 -17.349 -21.879  0.00  0.00    +0.010 S 
ATOM     20  O   UNL     1      36.281 -17.511 -22.219  0.00  0.00    -0.169 OA
ATOM     21  O   UNL     1      34.444 -17.490 -20.494  0.00  0.00    -0.169 OA
ATOM     22  C   UNL     1      33.943 -18.528 -22.832  0.00  0.00    +0.182 C 
ENDBRANCH  16  19
ENDBRANCH  12  13
ENDBRANCH   3  12
BRANCH   2  23
ATOM     23  C   UNL     1      30.598  -9.225 -20.606  0.00  0.00    +0.132 C 
BRANCH  23  25
ATOM     24  O   UNL     1      31.573 -10.083 -18.536  0.00  0.00    -0.250 OA
ATOM     25  C   UNL     1      31.307  -9.148 -19.277  0.00  0.00    +0.318 C 
BRANCH  25  26
ATOM     26  O   UNL     1      31.621  -7.855 -18.996  0.00  0.00    -0.480 OA
ATOM     27  H   UNL     1      31.205  -7.160 -19.467  0.00  0.00    +0.295 HD
ENDBRANCH  25  26
ENDBRANCH  23  25
ENDBRANCH   2  23
TORSDOF 6
ENDMDL
