MODEL 1
REMARK VINA RESULT:     -12.3      0.000      0.000
REMARK  Name = 11338127
REMARK  7 active torsions:
REMARK  status: ('A' for Active; 'I' for Inactive)
REMARK    1  A    between atoms: N_1  and  C_8
REMARK    2  A    between atoms: C_3  and  N_20
REMARK    3  A    between atoms: C_4  and  C_24
REMARK    4  A    between atoms: C_6  and  C_15
REMARK    5  A    between atoms: N_14  and  C_17
REMARK    6  A    between atoms: C_24  and  C_25
REMARK    7  A    between atoms: C_28  and  C_32
REMARK                            x       y       z     vdW  Elec       q    Type
REMARK                         _______ _______ _______ _____ _____    ______ ____
ROOT
ATOM      1  N   UNL     1      35.045 -18.744 -20.977  0.00  0.00    -0.177 N 
ATOM      2  N   UNL     1      36.328 -18.808 -20.580  0.00  0.00    -0.171 NA
ATOM      3  C   UNL     1      34.258 -19.728 -20.456  0.00  0.00    +0.122 C 
ATOM      4  C   UNL     1      35.094 -20.453 -19.689  0.00  0.00    +0.088 C 
ATOM      5  C   UNL     1      36.344 -19.876 -19.779  0.00  0.00    +0.124 C 
ENDROOT
BRANCH   1   8
ATOM      6  C   UNL     1      34.082 -15.412 -22.189  0.00  0.00    +0.055 C 
ATOM      7  C   UNL     1      34.480 -16.443 -21.338  0.00  0.00    +0.021 C 
ATOM      8  C   UNL     1      34.645 -17.726 -21.845  0.00  0.00    +0.071 C 
ATOM      9  C   UNL     1      33.852 -15.672 -23.540  0.00  0.00    +0.004 C 
ATOM     10  C   UNL     1      34.420 -17.994 -23.189  0.00  0.00    -0.006 C 
ATOM     11  C   UNL     1      34.022 -16.964 -24.040  0.00  0.00    -0.003 C 
ATOM     12  C   UNL     1      34.592 -19.367 -23.756  0.00  0.00    +0.032 C 
BRANCH   6  15
ATOM     13  O   UNL     1      34.181 -13.753 -20.501  0.00  0.00    -0.270 OA
ATOM     14  N   UNL     1      33.365 -13.126 -22.553  0.00  0.00    -0.302 N 
ATOM     15  C   UNL     1      33.904 -14.066 -21.669  0.00  0.00    +0.246 C 
ATOM     16  H   UNL     1      33.156 -13.407 -23.473  0.00  0.00    +0.150 HD
BRANCH  14  17
ATOM     17  C   UNL     1      33.101 -11.756 -22.173  0.00  0.00    +0.072 C 
ATOM     18  C   UNL     1      32.509 -10.802 -23.150  0.00  0.00    +0.021 C 
ATOM     19  C   UNL     1      31.702 -11.284 -21.982  0.00  0.00    +0.021 C 
ENDBRANCH  14  17
ENDBRANCH   6  15
ENDBRANCH   1   8
BRANCH   3  20
ATOM     20  N   UNL     1      32.941 -19.823 -20.745  0.00  0.00    -0.344 N 
ATOM     21  H   UNL     1      32.403 -19.007 -20.861  0.00  0.00    +0.144 HD
ATOM     22  H   UNL     1      32.520 -20.708 -20.840  0.00  0.00    +0.144 HD
ENDBRANCH   3  20
BRANCH   4  24
ATOM     23  O   UNL     1      33.942 -22.493 -19.390  0.00  0.00    -0.286 OA
ATOM     24  C   UNL     1      34.706 -21.644 -18.905  0.00  0.00    +0.200 C 
BRANCH  24  25
ATOM     25  C   UNL     1      35.200 -21.842 -17.551  0.00  0.00    +0.040 C 
ATOM     26  C   UNL     1      34.378 -22.429 -16.589  0.00  0.00    +0.013 C 
ATOM     27  C   UNL     1      36.495 -21.447 -17.216  0.00  0.00    +0.003 C 
ATOM     28  C   UNL     1      34.850 -22.619 -15.291  0.00  0.00    +0.069 C 
ATOM     29  C   UNL     1      36.967 -21.638 -15.918  0.00  0.00    +0.001 C 
ATOM     30  C   UNL     1      36.145 -22.224 -14.955  0.00  0.00    +0.010 C 
BRANCH  28  32
ATOM     31  N   UNL     1      33.325 -23.706 -13.501  0.00  0.00    -0.191 NA
ATOM     32  C   UNL     1      34.009 -23.219 -14.304  0.00  0.00    +0.100 C 
ENDBRANCH  28  32
ENDBRANCH  24  25
ENDBRANCH   4  24
TORSDOF 7
ENDMDL
MODEL 2
REMARK VINA RESULT:     -11.4      3.759     11.482
REMARK  Name = 11338127
REMARK  7 active torsions:
REMARK  status: ('A' for Active; 'I' for Inactive)
REMARK    1  A    between atoms: N_1  and  C_8
REMARK    2  A    between atoms: C_3  and  N_20
REMARK    3  A    between atoms: C_4  and  C_24
REMARK    4  A    between atoms: C_6  and  C_15
REMARK    5  A    between atoms: N_14  and  C_17
REMARK    6  A    between atoms: C_24  and  C_25
REMARK    7  A    between atoms: C_28  and  C_32
REMARK                            x       y       z     vdW  Elec       q    Type
REMARK                         _______ _______ _______ _____ _____    ______ ____
ROOT
ATOM      1  N   UNL     1      32.842 -12.083 -23.020  0.00  0.00    -0.177 N 
ATOM      2  N   UNL     1      33.449 -11.056 -23.639  0.00  0.00    -0.171 NA
ATOM      3  C   UNL     1      31.881 -11.700 -22.131  0.00  0.00    +0.122 C 
ATOM      4  C   UNL     1      31.885 -10.355 -22.196  0.00  0.00    +0.088 C 
ATOM      5  C   UNL     1      32.844  -9.987 -23.117  0.00  0.00    +0.124 C 
ENDROOT
BRANCH   1   8
ATOM      6  C   UNL     1      34.081 -15.513 -22.577  0.00  0.00    +0.055 C 
ATOM      7  C   UNL     1      33.694 -14.203 -22.296  0.00  0.00    +0.021 C 
ATOM      8  C   UNL     1      33.226 -13.391 -23.322  0.00  0.00    +0.071 C 
ATOM      9  C   UNL     1      33.997 -16.001 -23.880  0.00  0.00    +0.004 C 
ATOM     10  C   UNL     1      33.138 -13.869 -24.624  0.00  0.00    -0.006 C 
ATOM     11  C   UNL     1      33.525 -15.179 -24.904  0.00  0.00    -0.003 C 
ATOM     12  C   UNL     1      32.637 -13.013 -25.742  0.00  0.00    +0.032 C 
BRANCH   6  15
ATOM     13  O   UNL     1      34.559 -16.038 -20.316  0.00  0.00    -0.270 OA
ATOM     14  N   UNL     1      35.106 -17.604 -21.903  0.00  0.00    -0.302 N 
ATOM     15  C   UNL     1      34.573 -16.371 -21.511  0.00  0.00    +0.246 C 
ATOM     16  H   UNL     1      35.102 -17.838 -22.860  0.00  0.00    +0.150 HD
BRANCH  14  17
ATOM     17  C   UNL     1      35.662 -18.551 -20.963  0.00  0.00    +0.072 C 
ATOM     18  C   UNL     1      34.795 -19.574 -20.319  0.00  0.00    +0.021 C 
ATOM     19  C   UNL     1      35.815 -19.983 -21.339  0.00  0.00    +0.021 C 
ENDBRANCH  14  17
ENDBRANCH   6  15
ENDBRANCH   1   8
BRANCH   3  20
ATOM     20  N   UNL     1      31.166 -12.596 -21.415  0.00  0.00    -0.344 N 
ATOM     21  H   UNL     1      31.354 -12.722 -20.457  0.00  0.00    +0.144 HD
ATOM     22  H   UNL     1      30.457 -13.121 -21.851  0.00  0.00    +0.144 HD
ENDBRANCH   3  20
BRANCH   4  24
ATOM     23  O   UNL     1      29.992  -9.919 -20.853  0.00  0.00    -0.286 OA
ATOM     24  C   UNL     1      31.006  -9.467 -21.407  0.00  0.00    +0.200 C 
BRANCH  24  25
ATOM     25  C   UNL     1      31.301  -8.049 -21.273  0.00  0.00    +0.040 C 
ATOM     26  C   UNL     1      30.845  -7.148 -22.236  0.00  0.00    +0.013 C 
ATOM     27  C   UNL     1      32.039  -7.590 -20.182  0.00  0.00    +0.003 C 
ATOM     28  C   UNL     1      31.127  -5.789 -22.108  0.00  0.00    +0.069 C 
ATOM     29  C   UNL     1      32.321  -6.230 -20.054  0.00  0.00    +0.001 C 
ATOM     30  C   UNL     1      31.866  -5.329 -21.017  0.00  0.00    +0.010 C 
BRANCH  28  32
ATOM     31  N   UNL     1      30.282  -4.115 -23.896  0.00  0.00    -0.191 NA
ATOM     32  C   UNL     1      30.661  -4.865 -23.093  0.00  0.00    +0.100 C 
ENDBRANCH  28  32
ENDBRANCH  24  25
ENDBRANCH   4  24
TORSDOF 7
ENDMDL
MODEL 3
REMARK VINA RESULT:     -11.3      4.593      8.031
REMARK  Name = 11338127
REMARK  7 active torsions:
REMARK  status: ('A' for Active; 'I' for Inactive)
REMARK    1  A    between atoms: N_1  and  C_8
REMARK    2  A    between atoms: C_3  and  N_20
REMARK    3  A    between atoms: C_4  and  C_24
REMARK    4  A    between atoms: C_6  and  C_15
REMARK    5  A    between atoms: N_14  and  C_17
REMARK    6  A    between atoms: C_24  and  C_25
REMARK    7  A    between atoms: C_28  and  C_32
REMARK                            x       y       z     vdW  Elec       q    Type
REMARK                         _______ _______ _______ _____ _____    ______ ____
ROOT
ATOM      1  N   UNL     1      33.023 -12.155 -22.841  0.00  0.00    -0.177 N 
ATOM      2  N   UNL     1      33.574 -12.805 -21.801  0.00  0.00    -0.171 NA
ATOM      3  C   UNL     1      32.923 -12.909 -23.973  0.00  0.00    +0.122 C 
ATOM      4  C   UNL     1      33.441 -14.102 -23.624  0.00  0.00    +0.088 C 
ATOM      5  C   UNL     1      33.829 -14.016 -22.303  0.00  0.00    +0.124 C 
ENDROOT
BRANCH   1   8
ATOM      6  C   UNL     1      33.013  -8.490 -23.096  0.00  0.00    +0.055 C 
ATOM      7  C   UNL     1      33.400  -9.822 -23.240  0.00  0.00    +0.021 C 
ATOM      8  C   UNL     1      32.619 -10.827 -22.684  0.00  0.00    +0.071 C 
ATOM      9  C   UNL     1      31.849  -8.173 -22.397  0.00  0.00    +0.004 C 
ATOM     10  C   UNL     1      31.456 -10.521 -21.987  0.00  0.00    -0.006 C 
ATOM     11  C   UNL     1      31.070  -9.189 -21.843  0.00  0.00    -0.003 C 
ATOM     12  C   UNL     1      30.600 -11.587 -21.381  0.00  0.00    +0.032 C 
BRANCH   6  15
ATOM     13  O   UNL     1      34.970  -7.619 -24.110  0.00  0.00    -0.270 OA
ATOM     14  N   UNL     1      33.257  -6.151 -23.684  0.00  0.00    -0.302 N 
ATOM     15  C   UNL     1      33.824  -7.429 -23.673  0.00  0.00    +0.246 C 
ATOM     16  H   UNL     1      32.346  -6.035 -23.329  0.00  0.00    +0.150 HD
BRANCH  14  17
ATOM     17  C   UNL     1      33.952  -4.991 -24.195  0.00  0.00    +0.072 C 
ATOM     18  C   UNL     1      34.002  -4.724 -25.658  0.00  0.00    +0.021 C 
ATOM     19  C   UNL     1      33.188  -3.843 -24.758  0.00  0.00    +0.021 C 
ENDBRANCH  14  17
ENDBRANCH   6  15
ENDBRANCH   1   8
BRANCH   3  20
ATOM     20  N   UNL     1      32.395 -12.421 -25.117  0.00  0.00    -0.344 N 
ATOM     21  H   UNL     1      32.977 -12.246 -25.891  0.00  0.00    +0.144 HD
ATOM     22  H   UNL     1      31.428 -12.243 -25.177  0.00  0.00    +0.144 HD
ENDBRANCH   3  20
BRANCH   4  24
ATOM     23  O   UNL     1      33.398 -15.139 -25.746  0.00  0.00    -0.286 OA
ATOM     24  C   UNL     1      33.556 -15.270 -24.522  0.00  0.00    +0.200 C 
BRANCH  24  25
ATOM     25  C   UNL     1      33.845 -16.594 -23.994  0.00  0.00    +0.040 C 
ATOM     26  C   UNL     1      34.699 -16.737 -22.900  0.00  0.00    +0.013 C 
ATOM     27  C   UNL     1      33.267 -17.721 -24.580  0.00  0.00    +0.003 C 
ATOM     28  C   UNL     1      34.976 -18.006 -22.393  0.00  0.00    +0.069 C 
ATOM     29  C   UNL     1      33.544 -18.989 -24.073  0.00  0.00    +0.001 C 
ATOM     30  C   UNL     1      34.399 -19.133 -22.979  0.00  0.00    +0.010 C 
BRANCH  28  32
ATOM     31  N   UNL     1      36.563 -18.275 -20.363  0.00  0.00    -0.191 NA
ATOM     32  C   UNL     1      35.851 -18.154 -21.273  0.00  0.00    +0.100 C 
ENDBRANCH  28  32
ENDBRANCH  24  25
ENDBRANCH   4  24
TORSDOF 7
ENDMDL
MODEL 4
REMARK VINA RESULT:     -11.3      4.241     12.155
REMARK  Name = 11338127
REMARK  7 active torsions:
REMARK  status: ('A' for Active; 'I' for Inactive)
REMARK    1  A    between atoms: N_1  and  C_8
REMARK    2  A    between atoms: C_3  and  N_20
REMARK    3  A    between atoms: C_4  and  C_24
REMARK    4  A    between atoms: C_6  and  C_15
REMARK    5  A    between atoms: N_14  and  C_17
REMARK    6  A    between atoms: C_24  and  C_25
REMARK    7  A    between atoms: C_28  and  C_32
REMARK                            x       y       z     vdW  Elec       q    Type
REMARK                         _______ _______ _______ _____ _____    ______ ____
ROOT
ATOM      1  N   UNL     1      32.521 -11.282 -23.123  0.00  0.00    -0.177 N 
ATOM      2  N   UNL     1      31.337 -11.045 -22.531  0.00  0.00    -0.171 NA
ATOM      3  C   UNL     1      33.233 -10.153 -23.402  0.00  0.00    +0.122 C 
ATOM      4  C   UNL     1      32.452  -9.149 -22.961  0.00  0.00    +0.088 C 
ATOM      5  C   UNL     1      31.307  -9.713 -22.436  0.00  0.00    +0.124 C 
ENDROOT
BRANCH   1   8
ATOM      6  C   UNL     1      33.775 -14.693 -22.589  0.00  0.00    +0.055 C 
ATOM      7  C   UNL     1      33.388 -13.376 -22.345  0.00  0.00    +0.021 C 
ATOM      8  C   UNL     1      32.904 -12.598 -23.389  0.00  0.00    +0.071 C 
ATOM      9  C   UNL     1      33.675 -15.223 -23.876  0.00  0.00    +0.004 C 
ATOM     10  C   UNL     1      32.799 -13.117 -24.673  0.00  0.00    -0.006 C 
ATOM     11  C   UNL     1      33.186 -14.434 -24.918  0.00  0.00    -0.003 C 
ATOM     12  C   UNL     1      32.280 -12.298 -25.812  0.00  0.00    +0.032 C 
BRANCH   6  15
ATOM     13  O   UNL     1      34.259 -15.158 -20.316  0.00  0.00    -0.270 OA
ATOM     14  N   UNL     1      34.849 -16.744 -21.869  0.00  0.00    -0.302 N 
ATOM     15  C   UNL     1      34.285 -15.516 -21.504  0.00  0.00    +0.246 C 
ATOM     16  H   UNL     1      34.854 -16.998 -22.820  0.00  0.00    +0.150 HD
BRANCH  14  17
ATOM     17  C   UNL     1      35.425 -17.657 -20.907  0.00  0.00    +0.072 C 
ATOM     18  C   UNL     1      35.212 -19.124 -21.037  0.00  0.00    +0.021 C 
ATOM     19  C   UNL     1      36.567 -18.532 -21.290  0.00  0.00    +0.021 C 
ENDBRANCH  14  17
ENDBRANCH   6  15
ENDBRANCH   1   8
BRANCH   3  20
ATOM     20  N   UNL     1      34.445 -10.197 -23.997  0.00  0.00    -0.344 N 
ATOM     21  H   UNL     1      34.963 -11.035 -23.998  0.00  0.00    +0.144 HD
ATOM     22  H   UNL     1      34.811  -9.392 -24.431  0.00  0.00    +0.144 HD
ENDBRANCH   3  20
BRANCH   4  24
ATOM     23  O   UNL     1      33.537  -7.294 -23.941  0.00  0.00    -0.286 OA
ATOM     24  C   UNL     1      32.792  -7.713 -23.041  0.00  0.00    +0.200 C 
BRANCH  24  25
ATOM     25  C   UNL     1      32.275  -6.766 -22.066  0.00  0.00    +0.040 C 
ATOM     26  C   UNL     1      31.550  -5.653 -22.491  0.00  0.00    +0.013 C 
ATOM     27  C   UNL     1      32.503  -6.971 -20.705  0.00  0.00    +0.003 C 
ATOM     28  C   UNL     1      31.054  -4.745 -21.557  0.00  0.00    +0.069 C 
ATOM     29  C   UNL     1      32.007  -6.064 -19.770  0.00  0.00    +0.001 C 
ATOM     30  C   UNL     1      31.282  -4.949 -20.196  0.00  0.00    +0.010 C 
BRANCH  28  32
ATOM     31  N   UNL     1      29.709  -2.676 -22.345  0.00  0.00    -0.191 NA
ATOM     32  C   UNL     1      30.312  -3.604 -21.992  0.00  0.00    +0.100 C 
ENDBRANCH  28  32
ENDBRANCH  24  25
ENDBRANCH   4  24
TORSDOF 7
ENDMDL
MODEL 5
REMARK VINA RESULT:     -11.0      2.643      9.882
REMARK  Name = 11338127
REMARK  7 active torsions:
REMARK  status: ('A' for Active; 'I' for Inactive)
REMARK    1  A    between atoms: N_1  and  C_8
REMARK    2  A    between atoms: C_3  and  N_20
REMARK    3  A    between atoms: C_4  and  C_24
REMARK    4  A    between atoms: C_6  and  C_15
REMARK    5  A    between atoms: N_14  and  C_17
REMARK    6  A    between atoms: C_24  and  C_25
REMARK    7  A    between atoms: C_28  and  C_32
REMARK                            x       y       z     vdW  Elec       q    Type
REMARK                         _______ _______ _______ _____ _____    ______ ____
ROOT
ATOM      1  N   UNL     1      34.541 -21.317 -18.420  0.00  0.00    -0.177 N 
ATOM      2  N   UNL     1      33.514 -21.454 -19.277  0.00  0.00    -0.171 NA
ATOM      3  C   UNL     1      35.498 -20.443 -18.843  0.00  0.00    +0.122 C 
ATOM      4  C   UNL     1      35.047 -20.006 -20.035  0.00  0.00    +0.088 C 
ATOM      5  C   UNL     1      33.842 -20.633 -20.277  0.00  0.00    +0.124 C 
ENDROOT
BRANCH   1   8
ATOM      6  C   UNL     1      35.764 -22.921 -15.350  0.00  0.00    +0.055 C 
ATOM      7  C   UNL     1      35.741 -22.199 -16.543  0.00  0.00    +0.021 C 
ATOM      8  C   UNL     1      34.542 -22.044 -17.228  0.00  0.00    +0.071 C 
ATOM      9  C   UNL     1      34.588 -23.481 -14.851  0.00  0.00    +0.004 C 
ATOM     10  C   UNL     1      33.366 -22.597 -16.738  0.00  0.00    -0.006 C 
ATOM     11  C   UNL     1      33.389 -23.319 -15.545  0.00  0.00    -0.003 C 
ATOM     12  C   UNL     1      32.065 -22.442 -17.458  0.00  0.00    +0.032 C 
BRANCH   6  15
ATOM     13  O   UNL     1      37.291 -22.449 -13.600  0.00  0.00    -0.270 OA
ATOM     14  N   UNL     1      37.923 -24.007 -15.164  0.00  0.00    -0.302 N 
ATOM     15  C   UNL     1      37.013 -23.091 -14.625  0.00  0.00    +0.246 C 
ATOM     16  H   UNL     1      37.671 -24.499 -15.979  0.00  0.00    +0.150 HD
BRANCH  14  17
ATOM     17  C   UNL     1      39.219 -24.262 -14.576  0.00  0.00    +0.072 C 
ATOM     18  C   UNL     1      39.411 -25.401 -13.638  0.00  0.00    +0.021 C 
ATOM     19  C   UNL     1      40.024 -25.438 -15.007  0.00  0.00    +0.021 C 
ENDBRANCH  14  17
ENDBRANCH   6  15
ENDBRANCH   1   8
BRANCH   3  20
ATOM     20  N   UNL     1      36.604 -20.179 -18.113  0.00  0.00    -0.344 N 
ATOM     21  H   UNL     1      36.518 -19.776 -17.218  0.00  0.00    +0.144 HD
ATOM     22  H   UNL     1      37.495 -20.390 -18.474  0.00  0.00    +0.144 HD
ENDBRANCH   3  20
BRANCH   4  24
ATOM     23  O   UNL     1      36.944 -18.774 -20.713  0.00  0.00    -0.286 OA
ATOM     24  C   UNL     1      35.744 -19.030 -20.898  0.00  0.00    +0.200 C 
BRANCH  24  25
ATOM     25  C   UNL     1      35.041 -18.344 -21.971  0.00  0.00    +0.040 C 
ATOM     26  C   UNL     1      34.950 -16.952 -21.966  0.00  0.00    +0.013 C 
ATOM     27  C   UNL     1      34.459 -19.078 -23.005  0.00  0.00    +0.003 C 
ATOM     28  C   UNL     1      34.277 -16.294 -22.995  0.00  0.00    +0.069 C 
ATOM     29  C   UNL     1      33.786 -18.420 -24.033  0.00  0.00    +0.001 C 
ATOM     30  C   UNL     1      33.694 -17.028 -24.029  0.00  0.00    +0.010 C 
BRANCH  28  32
ATOM     31  N   UNL     1      34.105 -13.709 -22.988  0.00  0.00    -0.191 NA
ATOM     32  C   UNL     1      34.182 -14.869 -22.991  0.00  0.00    +0.100 C 
ENDBRANCH  28  32
ENDBRANCH  24  25
ENDBRANCH   4  24
TORSDOF 7
ENDMDL
MODEL 6
REMARK VINA RESULT:     -10.8      2.403      9.718
REMARK  Name = 11338127
REMARK  7 active torsions:
REMARK  status: ('A' for Active; 'I' for Inactive)
REMARK    1  A    between atoms: N_1  and  C_8
REMARK    2  A    between atoms: C_3  and  N_20
REMARK    3  A    between atoms: C_4  and  C_24
REMARK    4  A    between atoms: C_6  and  C_15
REMARK    5  A    between atoms: N_14  and  C_17
REMARK    6  A    between atoms: C_24  and  C_25
REMARK    7  A    between atoms: C_28  and  C_32
REMARK                            x       y       z     vdW  Elec       q    Type
REMARK                         _______ _______ _______ _____ _____    ______ ____
ROOT
ATOM      1  N   UNL     1      34.095 -20.785 -19.132  0.00  0.00    -0.177 N 
ATOM      2  N   UNL     1      32.857 -20.651 -19.638  0.00  0.00    -0.171 NA
ATOM      3  C   UNL     1      35.055 -20.122 -19.838  0.00  0.00    +0.122 C 
ATOM      4  C   UNL     1      34.381 -19.536 -20.846  0.00  0.00    +0.088 C 
ATOM      5  C   UNL     1      33.049 -19.871 -20.704  0.00  0.00    +0.124 C 
ENDROOT
BRANCH   1   8
ATOM      6  C   UNL     1      35.780 -22.421 -16.306  0.00  0.00    +0.055 C 
ATOM      7  C   UNL     1      35.568 -21.658 -17.454  0.00  0.00    +0.021 C 
ATOM      8  C   UNL     1      34.287 -21.555 -17.982  0.00  0.00    +0.071 C 
ATOM      9  C   UNL     1      34.710 -23.075 -15.695  0.00  0.00    +0.004 C 
ATOM     10  C   UNL     1      33.215 -22.202 -17.380  0.00  0.00    -0.006 C 
ATOM     11  C   UNL     1      33.427 -22.965 -16.232  0.00  0.00    -0.003 C 
ATOM     12  C   UNL     1      31.828 -22.105 -17.931  0.00  0.00    +0.032 C 
BRANCH   6  15
ATOM     13  O   UNL     1      37.996 -21.678 -15.916  0.00  0.00    -0.270 OA
ATOM     14  N   UNL     1      37.385 -23.700 -15.016  0.00  0.00    -0.302 N 
ATOM     15  C   UNL     1      37.117 -22.537 -15.746  0.00  0.00    +0.246 C 
ATOM     16  H   UNL     1      36.664 -24.361 -14.899  0.00  0.00    +0.150 HD
BRANCH  14  17
ATOM     17  C   UNL     1      38.676 -23.972 -14.424  0.00  0.00    +0.072 C 
ATOM     18  C   UNL     1      38.941 -25.277 -13.760  0.00  0.00    +0.021 C 
ATOM     19  C   UNL     1      39.606 -24.944 -15.062  0.00  0.00    +0.021 C 
ENDBRANCH  14  17
ENDBRANCH   6  15
ENDBRANCH   1   8
BRANCH   3  20
ATOM     20  N   UNL     1      36.357 -20.144 -19.477  0.00  0.00    -0.344 N 
ATOM     21  H   UNL     1      37.042 -19.782 -20.084  0.00  0.00    +0.144 HD
ATOM     22  H   UNL     1      36.620 -20.521 -18.606  0.00  0.00    +0.144 HD
ENDBRANCH   3  20
BRANCH   4  24
ATOM     23  O   UNL     1      35.872 -19.156 -22.637  0.00  0.00    -0.286 OA
ATOM     24  C   UNL     1      34.991 -18.694 -21.896  0.00  0.00    +0.200 C 
BRANCH  24  25
ATOM     25  C   UNL     1      34.583 -17.310 -22.075  0.00  0.00    +0.040 C 
ATOM     26  C   UNL     1      34.226 -16.846 -23.341  0.00  0.00    +0.013 C 
ATOM     27  C   UNL     1      34.549 -16.445 -20.980  0.00  0.00    +0.003 C 
ATOM     28  C   UNL     1      33.835 -15.519 -23.514  0.00  0.00    +0.069 C 
ATOM     29  C   UNL     1      34.157 -15.118 -21.153  0.00  0.00    +0.001 C 
ATOM     30  C   UNL     1      33.801 -14.654 -22.420  0.00  0.00    +0.010 C 
BRANCH  28  32
ATOM     31  N   UNL     1      33.173 -14.656 -25.865  0.00  0.00    -0.191 NA
ATOM     32  C   UNL     1      33.470 -15.044 -24.810  0.00  0.00    +0.100 C 
ENDBRANCH  28  32
ENDBRANCH  24  25
ENDBRANCH   4  24
TORSDOF 7
ENDMDL
MODEL 7
REMARK VINA RESULT:     -10.8      4.233     12.490
REMARK  Name = 11338127
REMARK  7 active torsions:
REMARK  status: ('A' for Active; 'I' for Inactive)
REMARK    1  A    between atoms: N_1  and  C_8
REMARK    2  A    between atoms: C_3  and  N_20
REMARK    3  A    between atoms: C_4  and  C_24
REMARK    4  A    between atoms: C_6  and  C_15
REMARK    5  A    between atoms: N_14  and  C_17
REMARK    6  A    between atoms: C_24  and  C_25
REMARK    7  A    between atoms: C_28  and  C_32
REMARK                            x       y       z     vdW  Elec       q    Type
REMARK                         _______ _______ _______ _____ _____    ______ ____
ROOT
ATOM      1  N   UNL     1      32.330 -11.352 -22.906  0.00  0.00    -0.177 N 
ATOM      2  N   UNL     1      31.120 -11.212 -22.337  0.00  0.00    -0.171 NA
ATOM      3  C   UNL     1      32.984 -10.173 -23.109  0.00  0.00    +0.122 C 
ATOM      4  C   UNL     1      32.136  -9.237 -22.642  0.00  0.00    +0.088 C 
ATOM      5  C   UNL     1      31.012  -9.891 -22.178  0.00  0.00    +0.124 C 
ENDROOT
BRANCH   1   8
ATOM      6  C   UNL     1      33.757 -14.714 -22.504  0.00  0.00    +0.055 C 
ATOM      7  C   UNL     1      33.289 -13.435 -22.206  0.00  0.00    +0.021 C 
ATOM      8  C   UNL     1      32.794 -12.630 -23.225  0.00  0.00    +0.071 C 
ATOM      9  C   UNL     1      33.726 -15.180 -23.818  0.00  0.00    +0.004 C 
ATOM     10  C   UNL     1      32.758 -13.086 -24.537  0.00  0.00    -0.006 C 
ATOM     11  C   UNL     1      33.226 -14.366 -24.835  0.00  0.00    -0.003 C 
ATOM     12  C   UNL     1      32.230 -12.238 -25.649  0.00  0.00    +0.032 C 
BRANCH   6  15
ATOM     13  O   UNL     1      34.226 -15.254 -20.245  0.00  0.00    -0.270 OA
ATOM     14  N   UNL     1      34.885 -16.758 -21.850  0.00  0.00    -0.302 N 
ATOM     15  C   UNL     1      34.278 -15.564 -21.445  0.00  0.00    +0.246 C 
ATOM     16  H   UNL     1      34.910 -16.973 -22.811  0.00  0.00    +0.150 HD
BRANCH  14  17
ATOM     17  C   UNL     1      35.477 -17.690 -20.918  0.00  0.00    +0.072 C 
ATOM     18  C   UNL     1      35.256 -19.154 -21.070  0.00  0.00    +0.021 C 
ATOM     19  C   UNL     1      36.607 -18.562 -21.340  0.00  0.00    +0.021 C 
ENDBRANCH  14  17
ENDBRANCH   6  15
ENDBRANCH   1   8
BRANCH   3  20
ATOM     20  N   UNL     1      34.212 -10.120 -23.671  0.00  0.00    -0.344 N 
ATOM     21  H   UNL     1      34.466  -9.347 -24.226  0.00  0.00    +0.144 HD
ATOM     22  H   UNL     1      34.853 -10.853 -23.524  0.00  0.00    +0.144 HD
ENDBRANCH   3  20
BRANCH   4  24
ATOM     23  O   UNL     1      32.603  -7.183 -21.576  0.00  0.00    -0.286 OA
ATOM     24  C   UNL     1      32.396  -7.783 -22.642  0.00  0.00    +0.200 C 
BRANCH  24  25
ATOM     25  C   UNL     1      32.404  -7.024 -23.883  0.00  0.00    +0.040 C 
ATOM     26  C   UNL     1      33.544  -6.312 -24.256  0.00  0.00    +0.013 C 
ATOM     27  C   UNL     1      31.273  -7.010 -24.700  0.00  0.00    +0.003 C 
ATOM     28  C   UNL     1      33.553  -5.585 -25.446  0.00  0.00    +0.069 C 
ATOM     29  C   UNL     1      31.282  -6.283 -25.889  0.00  0.00    +0.001 C 
ATOM     30  C   UNL     1      32.422  -5.570 -26.263  0.00  0.00    +0.010 C 
BRANCH  28  32
ATOM     31  N   UNL     1      35.667  -4.260 -26.142  0.00  0.00    -0.191 NA
ATOM     32  C   UNL     1      34.719  -4.854 -25.830  0.00  0.00    +0.100 C 
ENDBRANCH  28  32
ENDBRANCH  24  25
ENDBRANCH   4  24
TORSDOF 7
ENDMDL
MODEL 8
REMARK VINA RESULT:     -10.7      2.579      9.287
REMARK  Name = 11338127
REMARK  7 active torsions:
REMARK  status: ('A' for Active; 'I' for Inactive)
REMARK    1  A    between atoms: N_1  and  C_8
REMARK    2  A    between atoms: C_3  and  N_20
REMARK    3  A    between atoms: C_4  and  C_24
REMARK    4  A    between atoms: C_6  and  C_15
REMARK    5  A    between atoms: N_14  and  C_17
REMARK    6  A    between atoms: C_24  and  C_25
REMARK    7  A    between atoms: C_28  and  C_32
REMARK                            x       y       z     vdW  Elec       q    Type
REMARK                         _______ _______ _______ _____ _____    ______ ____
ROOT
ATOM      1  N   UNL     1      34.754 -20.738 -19.099  0.00  0.00    -0.177 N 
ATOM      2  N   UNL     1      36.057 -20.422 -19.202  0.00  0.00    -0.171 NA
ATOM      3  C   UNL     1      33.996 -20.297 -20.145  0.00  0.00    +0.122 C 
ATOM      4  C   UNL     1      34.873 -19.670 -20.950  0.00  0.00    +0.088 C 
ATOM      5  C   UNL     1      36.117 -19.758 -20.359  0.00  0.00    +0.124 C 
ENDROOT
BRANCH   1   8
ATOM      6  C   UNL     1      32.481 -22.439 -16.767  0.00  0.00    +0.055 C 
ATOM      7  C   UNL     1      32.948 -21.724 -17.870  0.00  0.00    +0.021 C 
ATOM      8  C   UNL     1      34.306 -21.453 -17.987  0.00  0.00    +0.071 C 
ATOM      9  C   UNL     1      33.375 -22.877 -15.790  0.00  0.00    +0.004 C 
ATOM     10  C   UNL     1      35.204 -21.887 -17.019  0.00  0.00    -0.006 C 
ATOM     11  C   UNL     1      34.736 -22.601 -15.917  0.00  0.00    -0.003 C 
ATOM     12  C   UNL     1      36.669 -21.607 -17.125  0.00  0.00    +0.032 C 
BRANCH   6  15
ATOM     13  O   UNL     1      30.179 -22.016 -17.140  0.00  0.00    -0.270 OA
ATOM     14  N   UNL     1      30.726 -23.847 -15.866  0.00  0.00    -0.302 N 
ATOM     15  C   UNL     1      31.062 -22.727 -16.634  0.00  0.00    +0.246 C 
ATOM     16  H   UNL     1      31.451 -24.389 -15.479  0.00  0.00    +0.150 HD
BRANCH  14  17
ATOM     17  C   UNL     1      29.358 -24.242 -15.617  0.00  0.00    +0.072 C 
ATOM     18  C   UNL     1      28.992 -24.943 -14.356  0.00  0.00    +0.021 C 
ATOM     19  C   UNL     1      28.543 -23.532 -14.593  0.00  0.00    +0.021 C 
ENDBRANCH  14  17
ENDBRANCH   6  15
ENDBRANCH   1   8
BRANCH   3  20
ATOM     20  N   UNL     1      32.665 -20.521 -20.212  0.00  0.00    -0.344 N 
ATOM     21  H   UNL     1      32.036 -19.765 -20.173  0.00  0.00    +0.144 HD
ATOM     22  H   UNL     1      32.325 -21.441 -20.301  0.00  0.00    +0.144 HD
ENDBRANCH   3  20
BRANCH   4  24
ATOM     23  O   UNL     1      34.403 -19.688 -23.265  0.00  0.00    -0.286 OA
ATOM     24  C   UNL     1      34.530 -19.016 -22.230  0.00  0.00    +0.200 C 
BRANCH  24  25
ATOM     25  C   UNL     1      34.344 -17.575 -22.307  0.00  0.00    +0.040 C 
ATOM     26  C   UNL     1      33.992 -16.982 -23.520  0.00  0.00    +0.013 C 
ATOM     27  C   UNL     1      34.518 -16.786 -21.170  0.00  0.00    +0.003 C 
ATOM     28  C   UNL     1      33.813 -15.601 -23.595  0.00  0.00    +0.069 C 
ATOM     29  C   UNL     1      34.339 -15.406 -21.244  0.00  0.00    +0.001 C 
ATOM     30  C   UNL     1      33.988 -14.812 -22.457  0.00  0.00    +0.010 C 
BRANCH  28  32
ATOM     31  N   UNL     1      33.160 -14.496 -25.845  0.00  0.00    -0.191 NA
ATOM     32  C   UNL     1      33.453 -14.992 -24.836  0.00  0.00    +0.100 C 
ENDBRANCH  28  32
ENDBRANCH  24  25
ENDBRANCH   4  24
TORSDOF 7
ENDMDL
MODEL 9
REMARK VINA RESULT:     -10.7      2.410      9.298
REMARK  Name = 11338127
REMARK  7 active torsions:
REMARK  status: ('A' for Active; 'I' for Inactive)
REMARK    1  A    between atoms: N_1  and  C_8
REMARK    2  A    between atoms: C_3  and  N_20
REMARK    3  A    between atoms: C_4  and  C_24
REMARK    4  A    between atoms: C_6  and  C_15
REMARK    5  A    between atoms: N_14  and  C_17
REMARK    6  A    between atoms: C_24  and  C_25
REMARK    7  A    between atoms: C_28  and  C_32
REMARK                            x       y       z     vdW  Elec       q    Type
REMARK                         _______ _______ _______ _____ _____    ______ ____
ROOT
ATOM      1  N   UNL     1      34.510 -17.355 -21.481  0.00  0.00    -0.177 N 
ATOM      2  N   UNL     1      34.591 -16.261 -20.704  0.00  0.00    -0.171 NA
ATOM      3  C   UNL     1      34.102 -17.096 -22.757  0.00  0.00    +0.122 C 
ATOM      4  C   UNL     1      33.916 -15.762 -22.782  0.00  0.00    +0.088 C 
ATOM      5  C   UNL     1      34.219 -15.277 -21.526  0.00  0.00    +0.124 C 
ENDROOT
BRANCH   1   8
ATOM      6  C   UNL     1      34.125 -20.613 -19.827  0.00  0.00    +0.055 C 
ATOM      7  C   UNL     1      33.824 -19.363 -20.366  0.00  0.00    +0.021 C 
ATOM      8  C   UNL     1      34.833 -18.603 -20.946  0.00  0.00    +0.071 C 
ATOM      9  C   UNL     1      35.434 -21.094 -19.871  0.00  0.00    +0.004 C 
ATOM     10  C   UNL     1      36.139 -19.075 -20.995  0.00  0.00    -0.006 C 
ATOM     11  C   UNL     1      36.440 -20.325 -20.456  0.00  0.00    -0.003 C 
ATOM     12  C   UNL     1      37.240 -18.276 -21.614  0.00  0.00    +0.032 C 
BRANCH   6  15
ATOM     13  O   UNL     1      31.918 -21.457 -19.657  0.00  0.00    -0.270 OA
ATOM     14  N   UNL     1      33.432 -22.128 -18.066  0.00  0.00    -0.302 N 
ATOM     15  C   UNL     1      33.077 -21.415 -19.216  0.00  0.00    +0.246 C 
ATOM     16  H   UNL     1      34.361 -22.072 -17.744  0.00  0.00    +0.150 HD
BRANCH  14  17
ATOM     17  C   UNL     1      32.493 -22.944 -17.331  0.00  0.00    +0.072 C 
ATOM     18  C   UNL     1      32.457 -22.900 -15.844  0.00  0.00    +0.021 C 
ATOM     19  C   UNL     1      31.329 -22.319 -16.644  0.00  0.00    +0.021 C 
ENDBRANCH  14  17
ENDBRANCH   6  15
ENDBRANCH   1   8
BRANCH   3  20
ATOM     20  N   UNL     1      33.962 -18.073 -23.679  0.00  0.00    -0.344 N 
ATOM     21  H   UNL     1      34.136 -17.882 -24.629  0.00  0.00    +0.144 HD
ATOM     22  H   UNL     1      33.687 -18.977 -23.401  0.00  0.00    +0.144 HD
ENDBRANCH   3  20
BRANCH   4  24
ATOM     23  O   UNL     1      33.441 -15.521 -25.083  0.00  0.00    -0.286 OA
ATOM     24  C   UNL     1      33.468 -14.992 -23.960  0.00  0.00    +0.200 C 
BRANCH  24  25
ATOM     25  C   UNL     1      33.063 -13.601 -23.835  0.00  0.00    +0.040 C 
ATOM     26  C   UNL     1      32.553 -13.130 -22.625  0.00  0.00    +0.013 C 
ATOM     27  C   UNL     1      33.184 -12.738 -24.924  0.00  0.00    +0.003 C 
ATOM     28  C   UNL     1      32.165 -11.796 -22.504  0.00  0.00    +0.069 C 
ATOM     29  C   UNL     1      32.795 -11.404 -24.803  0.00  0.00    +0.001 C 
ATOM     30  C   UNL     1      32.285 -10.933 -23.593  0.00  0.00    +0.010 C 
BRANCH  28  32
ATOM     31  N   UNL     1      31.217 -10.918 -20.258  0.00  0.00    -0.191 NA
ATOM     32  C   UNL     1      31.643 -11.313 -21.265  0.00  0.00    +0.100 C 
ENDBRANCH  28  32
ENDBRANCH  24  25
ENDBRANCH   4  24
TORSDOF 7
ENDMDL
