MODEL 1
REMARK VINA RESULT:     -11.8      0.000      0.000
REMARK  Name = 1540
REMARK  4 active torsions:
REMARK  status: ('A' for Active; 'I' for Inactive)
REMARK    1  A    between atoms: N_5  and  C_14
REMARK    2  A    between atoms: C_6  and  O_20
REMARK    3  A    between atoms: O_20  and  C_21
REMARK    4  A    between atoms: C_21  and  C_22
REMARK                            x       y       z     vdW  Elec       q    Type
REMARK                         _______ _______ _______ _____ _____    ______ ____
ROOT
ATOM      1  N   UNL     1      33.346 -22.604 -16.035  0.00  0.00    -0.293 NA
ATOM      2  N   UNL     1      32.100 -24.357 -13.052  0.00  0.00    -0.266 NA
ATOM      3  N   UNL     1      30.992 -23.232 -16.158  0.00  0.00    -0.316 NA
ATOM      4  N   UNL     1      30.178 -24.391 -14.180  0.00  0.00    -0.296 N 
ATOM      5  N   UNL     1      32.044 -22.106 -17.917  0.00  0.00    -0.238 N 
ATOM      6  C   UNL     1      33.470 -23.142 -14.802  0.00  0.00    +0.288 C 
ATOM      7  C   UNL     1      32.356 -23.730 -14.237  0.00  0.00    +0.215 C 
ATOM      8  C   UNL     1      31.148 -23.763 -14.921  0.00  0.00    +0.196 C 
ATOM      9  C   UNL     1      32.131 -22.681 -16.629  0.00  0.00    +0.207 C 
ATOM     10  C   UNL     1      30.783 -24.735 -13.064  0.00  0.00    +0.164 C 
ATOM     11  H   UNL     1      32.743 -24.510 -12.322  0.00  0.00    +0.126 HD
ATOM     12  H   UNL     1      29.239 -24.549 -14.430  0.00  0.00    +0.150 HD
ATOM     13  H   UNL     1      31.151 -22.176 -18.324  0.00  0.00    +0.166 HD
ENDROOT
BRANCH   5  14
ATOM     14  C   UNL     1      32.986 -21.453 -18.732  0.00  0.00    +0.058 C 
ATOM     15  C   UNL     1      34.342 -21.774 -18.633  0.00  0.00    +0.015 C 
ATOM     16  C   UNL     1      32.571 -20.479 -19.645  0.00  0.00    +0.015 C 
ATOM     17  C   UNL     1      35.277 -21.125 -19.440  0.00  0.00    +0.001 C 
ATOM     18  C   UNL     1      33.506 -19.832 -20.452  0.00  0.00    +0.001 C 
ATOM     19  C   UNL     1      34.858 -20.155 -20.350  0.00  0.00    +0.000 C 
ENDBRANCH   5  14
BRANCH   6  20
ATOM     20  O   UNL     1      34.688 -23.082 -14.171  0.00  0.00    -0.453 OA
BRANCH  20  21
ATOM     21  C   UNL     1      35.821 -22.833 -14.983  0.00  0.00    +0.208 C 
BRANCH  21  22
ATOM     22  C   UNL     1      36.835 -23.951 -14.754  0.00  0.00    +0.044 C 
ATOM     23  C   UNL     1      38.245 -23.495 -15.156  0.00  0.00    +0.004 C 
ATOM     24  C   UNL     1      36.808 -24.417 -13.292  0.00  0.00    +0.004 C 
ATOM     25  C   UNL     1      39.286 -24.578 -14.887  0.00  0.00    +0.000 C 
ATOM     26  C   UNL     1      37.852 -25.498 -13.026  0.00  0.00    +0.000 C 
ATOM     27  C   UNL     1      39.250 -25.044 -13.435  0.00  0.00    +0.000 C 
ENDBRANCH  21  22
ENDBRANCH  20  21
ENDBRANCH   6  20
TORSDOF 4
ENDMDL
MODEL 2
REMARK VINA RESULT:     -11.7      1.960      6.462
REMARK  Name = 1540
REMARK  4 active torsions:
REMARK  status: ('A' for Active; 'I' for Inactive)
REMARK    1  A    between atoms: N_5  and  C_14
REMARK    2  A    between atoms: C_6  and  O_20
REMARK    3  A    between atoms: O_20  and  C_21
REMARK    4  A    between atoms: C_21  and  C_22
REMARK                            x       y       z     vdW  Elec       q    Type
REMARK                         _______ _______ _______ _____ _____    ______ ____
ROOT
ATOM      1  N   UNL     1      33.322 -23.219 -15.325  0.00  0.00    -0.293 NA
ATOM      2  N   UNL     1      36.997 -23.249 -15.216  0.00  0.00    -0.266 NA
ATOM      3  N   UNL     1      34.250 -24.124 -13.259  0.00  0.00    -0.316 NA
ATOM      4  N   UNL     1      36.681 -24.138 -13.197  0.00  0.00    -0.296 N 
ATOM      5  N   UNL     1      31.940 -23.986 -13.597  0.00  0.00    -0.238 N 
ATOM      6  C   UNL     1      34.553 -22.991 -15.830  0.00  0.00    +0.288 C 
ATOM      7  C   UNL     1      35.644 -23.327 -15.054  0.00  0.00    +0.215 C 
ATOM      8  C   UNL     1      35.472 -23.882 -13.792  0.00  0.00    +0.196 C 
ATOM      9  C   UNL     1      33.247 -23.763 -14.088  0.00  0.00    +0.207 C 
ATOM     10  C   UNL     1      37.575 -23.747 -14.078  0.00  0.00    +0.164 C 
ATOM     11  H   UNL     1      37.471 -22.899 -16.006  0.00  0.00    +0.126 HD
ATOM     12  H   UNL     1      36.842 -24.529 -12.308  0.00  0.00    +0.150 HD
ATOM     13  H   UNL     1      31.916 -24.382 -12.696  0.00  0.00    +0.166 HD
ENDROOT
BRANCH   5  14
ATOM     14  C   UNL     1      30.666 -23.752 -14.146  0.00  0.00    +0.058 C 
ATOM     15  C   UNL     1      30.221 -22.445 -14.355  0.00  0.00    +0.015 C 
ATOM     16  C   UNL     1      29.839 -24.827 -14.485  0.00  0.00    +0.015 C 
ATOM     17  C   UNL     1      28.957 -22.213 -14.898  0.00  0.00    +0.001 C 
ATOM     18  C   UNL     1      28.576 -24.594 -15.029  0.00  0.00    +0.001 C 
ATOM     19  C   UNL     1      28.135 -23.288 -15.235  0.00  0.00    +0.000 C 
ENDBRANCH   5  14
BRANCH   6  20
ATOM     20  O   UNL     1      34.665 -22.440 -17.083  0.00  0.00    -0.453 OA
BRANCH  20  21
ATOM     21  C   UNL     1      33.491 -22.394 -17.873  0.00  0.00    +0.208 C 
BRANCH  21  22
ATOM     22  C   UNL     1      33.811 -21.662 -19.174  0.00  0.00    +0.044 C 
ATOM     23  C   UNL     1      32.726 -20.625 -19.494  0.00  0.00    +0.004 C 
ATOM     24  C   UNL     1      35.194 -21.000 -19.098  0.00  0.00    +0.004 C 
ATOM     25  C   UNL     1      33.051 -19.843 -20.764  0.00  0.00    +0.000 C 
ATOM     26  C   UNL     1      35.514 -20.216 -20.368  0.00  0.00    +0.000 C 
ATOM     27  C   UNL     1      34.429 -19.193 -20.687  0.00  0.00    +0.000 C 
ENDBRANCH  21  22
ENDBRANCH  20  21
ENDBRANCH   6  20
TORSDOF 4
ENDMDL
MODEL 3
REMARK VINA RESULT:     -11.3      1.782      5.979
REMARK  Name = 1540
REMARK  4 active torsions:
REMARK  status: ('A' for Active; 'I' for Inactive)
REMARK    1  A    between atoms: N_5  and  C_14
REMARK    2  A    between atoms: C_6  and  O_20
REMARK    3  A    between atoms: O_20  and  C_21
REMARK    4  A    between atoms: C_21  and  C_22
REMARK                            x       y       z     vdW  Elec       q    Type
REMARK                         _______ _______ _______ _____ _____    ______ ____
ROOT
ATOM      1  N   UNL     1      32.600 -22.903 -15.776  0.00  0.00    -0.293 NA
ATOM      2  N   UNL     1      29.156 -22.107 -16.790  0.00  0.00    -0.266 NA
ATOM      3  N   UNL     1      30.982 -22.980 -13.953  0.00  0.00    -0.316 NA
ATOM      4  N   UNL     1      28.708 -22.452 -14.634  0.00  0.00    -0.296 N 
ATOM      5  N   UNL     1      33.246 -23.444 -13.591  0.00  0.00    -0.238 N 
ATOM      6  C   UNL     1      31.645 -22.563 -16.668  0.00  0.00    +0.288 C 
ATOM      7  C   UNL     1      30.350 -22.428 -16.210  0.00  0.00    +0.215 C 
ATOM      8  C   UNL     1      30.046 -22.638 -14.871  0.00  0.00    +0.196 C 
ATOM      9  C   UNL     1      32.215 -23.089 -14.491  0.00  0.00    +0.207 C 
ATOM     10  C   UNL     1      28.203 -22.135 -15.806  0.00  0.00    +0.164 C 
ATOM     11  H   UNL     1      29.007 -21.895 -17.740  0.00  0.00    +0.126 HD
ATOM     12  H   UNL     1      28.232 -22.537 -13.776  0.00  0.00    +0.150 HD
ATOM     13  H   UNL     1      32.937 -23.572 -12.665  0.00  0.00    +0.166 HD
ENDROOT
BRANCH   5  14
ATOM     14  C   UNL     1      34.626 -23.650 -13.760  0.00  0.00    +0.058 C 
ATOM     15  C   UNL     1      35.544 -22.807 -13.128  0.00  0.00    +0.015 C 
ATOM     16  C   UNL     1      35.088 -24.698 -14.561  0.00  0.00    +0.015 C 
ATOM     17  C   UNL     1      36.914 -23.011 -13.297  0.00  0.00    +0.001 C 
ATOM     18  C   UNL     1      36.458 -24.901 -14.728  0.00  0.00    +0.001 C 
ATOM     19  C   UNL     1      37.370 -24.058 -14.097  0.00  0.00    +0.000 C 
ENDBRANCH   5  14
BRANCH   6  20
ATOM     20  O   UNL     1      32.001 -22.367 -17.980  0.00  0.00    -0.453 OA
BRANCH  20  21
ATOM     21  C   UNL     1      33.375 -22.487 -18.298  0.00  0.00    +0.208 C 
BRANCH  21  22
ATOM     22  C   UNL     1      33.852 -21.162 -18.890  0.00  0.00    +0.044 C 
ATOM     23  C   UNL     1      35.282 -21.293 -19.431  0.00  0.00    +0.004 C 
ATOM     24  C   UNL     1      32.893 -20.684 -19.989  0.00  0.00    +0.004 C 
ATOM     25  C   UNL     1      35.762 -19.996 -20.077  0.00  0.00    +0.000 C 
ATOM     26  C   UNL     1      33.378 -19.388 -20.635  0.00  0.00    +0.000 C 
ATOM     27  C   UNL     1      34.802 -19.520 -21.163  0.00  0.00    +0.000 C 
ENDBRANCH  21  22
ENDBRANCH  20  21
ENDBRANCH   6  20
TORSDOF 4
ENDMDL
MODEL 4
REMARK VINA RESULT:     -11.2      2.212      5.645
REMARK  Name = 1540
REMARK  4 active torsions:
REMARK  status: ('A' for Active; 'I' for Inactive)
REMARK    1  A    between atoms: N_5  and  C_14
REMARK    2  A    between atoms: C_6  and  O_20
REMARK    3  A    between atoms: O_20  and  C_21
REMARK    4  A    between atoms: C_21  and  C_22
REMARK                            x       y       z     vdW  Elec       q    Type
REMARK                         _______ _______ _______ _____ _____    ______ ____
ROOT
ATOM      1  N   UNL     1      34.842 -23.344 -15.345  0.00  0.00    -0.293 NA
ATOM      2  N   UNL     1      35.878 -25.007 -12.233  0.00  0.00    -0.266 NA
ATOM      3  N   UNL     1      37.177 -22.972 -14.746  0.00  0.00    -0.316 NA
ATOM      4  N   UNL     1      37.852 -24.076 -12.687  0.00  0.00    -0.296 N 
ATOM      5  N   UNL     1      36.251 -22.031 -16.678  0.00  0.00    -0.238 N 
ATOM      6  C   UNL     1      34.638 -24.112 -14.253  0.00  0.00    +0.288 C 
ATOM      7  C   UNL     1      35.703 -24.316 -13.398  0.00  0.00    +0.215 C 
ATOM      8  C   UNL     1      36.942 -23.746 -13.660  0.00  0.00    +0.196 C 
ATOM      9  C   UNL     1      36.081 -22.828 -15.523  0.00  0.00    +0.207 C 
ATOM     10  C   UNL     1      37.181 -24.833 -11.847  0.00  0.00    +0.164 C 
ATOM     11  H   UNL     1      35.194 -25.533 -11.759  0.00  0.00    +0.126 HD
ATOM     12  H   UNL     1      38.797 -23.805 -12.632  0.00  0.00    +0.150 HD
ATOM     13  H   UNL     1      37.161 -21.671 -16.781  0.00  0.00    +0.166 HD
ENDROOT
BRANCH   5  14
ATOM     14  C   UNL     1      35.373 -21.652 -17.708  0.00  0.00    +0.058 C 
ATOM     15  C   UNL     1      34.023 -22.003 -17.644  0.00  0.00    +0.015 C 
ATOM     16  C   UNL     1      35.847 -20.922 -18.802  0.00  0.00    +0.015 C 
ATOM     17  C   UNL     1      33.152 -21.628 -18.667  0.00  0.00    +0.001 C 
ATOM     18  C   UNL     1      34.975 -20.547 -19.824  0.00  0.00    +0.001 C 
ATOM     19  C   UNL     1      33.629 -20.899 -19.757  0.00  0.00    +0.000 C 
ENDBRANCH   5  14
BRANCH   6  20
ATOM     20  O   UNL     1      33.392 -24.649 -14.042  0.00  0.00    -0.453 OA
BRANCH  20  21
ATOM     21  C   UNL     1      32.378 -23.767 -13.598  0.00  0.00    +0.208 C 
BRANCH  21  22
ATOM     22  C   UNL     1      31.184 -23.889 -14.542  0.00  0.00    +0.044 C 
ATOM     23  C   UNL     1      29.969 -24.473 -13.807  0.00  0.00    +0.004 C 
ATOM     24  C   UNL     1      30.844 -22.528 -15.165  0.00  0.00    +0.004 C 
ATOM     25  C   UNL     1      28.746 -24.555 -14.716  0.00  0.00    +0.000 C 
ATOM     26  C   UNL     1      29.618 -22.614 -16.071  0.00  0.00    +0.000 C 
ATOM     27  C   UNL     1      28.416 -23.202 -15.339  0.00  0.00    +0.000 C 
ENDBRANCH  21  22
ENDBRANCH  20  21
ENDBRANCH   6  20
TORSDOF 4
ENDMDL
MODEL 5
REMARK VINA RESULT:     -11.2      2.120      6.029
REMARK  Name = 1540
REMARK  4 active torsions:
REMARK  status: ('A' for Active; 'I' for Inactive)
REMARK    1  A    between atoms: N_5  and  C_14
REMARK    2  A    between atoms: C_6  and  O_20
REMARK    3  A    between atoms: O_20  and  C_21
REMARK    4  A    between atoms: C_21  and  C_22
REMARK                            x       y       z     vdW  Elec       q    Type
REMARK                         _______ _______ _______ _____ _____    ______ ____
ROOT
ATOM      1  N   UNL     1      34.079 -23.524 -14.238  0.00  0.00    -0.293 NA
ATOM      2  N   UNL     1      37.568 -23.396 -13.085  0.00  0.00    -0.266 NA
ATOM      3  N   UNL     1      34.333 -23.637 -11.814  0.00  0.00    -0.316 NA
ATOM      4  N   UNL     1      36.644 -23.551 -11.063  0.00  0.00    -0.296 N 
ATOM      5  N   UNL     1      32.222 -23.698 -12.821  0.00  0.00    -0.238 N 
ATOM      6  C   UNL     1      35.415 -23.442 -14.418  0.00  0.00    +0.288 C 
ATOM      7  C   UNL     1      36.221 -23.458 -13.297  0.00  0.00    +0.215 C 
ATOM      8  C   UNL     1      35.668 -23.553 -12.027  0.00  0.00    +0.196 C 
ATOM      9  C   UNL     1      33.626 -23.615 -12.965  0.00  0.00    +0.207 C 
ATOM     10  C   UNL     1      37.773 -23.456 -11.731  0.00  0.00    +0.164 C 
ATOM     11  H   UNL     1      38.265 -23.322 -13.777  0.00  0.00    +0.126 HD
ATOM     12  H   UNL     1      36.525 -23.609 -10.087  0.00  0.00    +0.150 HD
ATOM     13  H   UNL     1      31.922 -23.763 -11.886  0.00  0.00    +0.166 HD
ENDROOT
BRANCH   5  14
ATOM     14  C   UNL     1      31.170 -23.707 -13.753  0.00  0.00    +0.058 C 
ATOM     15  C   UNL     1      30.420 -24.868 -13.954  0.00  0.00    +0.015 C 
ATOM     16  C   UNL     1      30.870 -22.554 -14.484  0.00  0.00    +0.015 C 
ATOM     17  C   UNL     1      29.377 -24.877 -14.880  0.00  0.00    +0.001 C 
ATOM     18  C   UNL     1      29.826 -22.564 -15.410  0.00  0.00    +0.001 C 
ATOM     19  C   UNL     1      29.080 -23.724 -15.608  0.00  0.00    +0.000 C 
ENDBRANCH   5  14
BRANCH   6  20
ATOM     20  O   UNL     1      35.908 -23.350 -15.696  0.00  0.00    -0.453 OA
BRANCH  20  21
ATOM     21  C   UNL     1      36.058 -22.049 -16.235  0.00  0.00    +0.208 C 
BRANCH  21  22
ATOM     22  C   UNL     1      35.424 -22.024 -17.624  0.00  0.00    +0.044 C 
ATOM     23  C   UNL     1      33.893 -22.002 -17.520  0.00  0.00    +0.004 C 
ATOM     24  C   UNL     1      35.935 -20.824 -18.432  0.00  0.00    +0.004 C 
ATOM     25  C   UNL     1      33.236 -21.924 -18.896  0.00  0.00    +0.000 C 
ATOM     26  C   UNL     1      35.274 -20.747 -19.805  0.00  0.00    +0.000 C 
ATOM     27  C   UNL     1      33.752 -20.734 -19.699  0.00  0.00    +0.000 C 
ENDBRANCH  21  22
ENDBRANCH  20  21
ENDBRANCH   6  20
TORSDOF 4
ENDMDL
MODEL 6
REMARK VINA RESULT:     -11.1      1.723      5.206
REMARK  Name = 1540
REMARK  4 active torsions:
REMARK  status: ('A' for Active; 'I' for Inactive)
REMARK    1  A    between atoms: N_5  and  C_14
REMARK    2  A    between atoms: C_6  and  O_20
REMARK    3  A    between atoms: O_20  and  C_21
REMARK    4  A    between atoms: C_21  and  C_22
REMARK                            x       y       z     vdW  Elec       q    Type
REMARK                         _______ _______ _______ _____ _____    ______ ____
ROOT
ATOM      1  N   UNL     1      33.075 -22.591 -16.632  0.00  0.00    -0.293 NA
ATOM      2  N   UNL     1      35.244 -21.130 -19.218  0.00  0.00    -0.266 NA
ATOM      3  N   UNL     1      31.867 -21.455 -18.421  0.00  0.00    -0.316 NA
ATOM      4  N   UNL     1      33.311 -20.493 -20.125  0.00  0.00    -0.296 N 
ATOM      5  N   UNL     1      30.736 -22.475 -16.646  0.00  0.00    -0.238 N 
ATOM      6  C   UNL     1      34.268 -22.306 -17.197  0.00  0.00    +0.288 C 
ATOM      7  C   UNL     1      34.271 -21.592 -18.379  0.00  0.00    +0.215 C 
ATOM      8  C   UNL     1      33.079 -21.184 -18.963  0.00  0.00    +0.196 C 
ATOM      9  C   UNL     1      31.963 -22.155 -17.270  0.00  0.00    +0.207 C 
ATOM     10  C   UNL     1      34.620 -20.479 -20.249  0.00  0.00    +0.164 C 
ATOM     11  H   UNL     1      36.215 -21.244 -19.103  0.00  0.00    +0.126 HD
ATOM     12  H   UNL     1      32.644 -20.095 -20.731  0.00  0.00    +0.150 HD
ATOM     13  H   UNL     1      29.946 -22.146 -17.131  0.00  0.00    +0.166 HD
ENDROOT
BRANCH   5  14
ATOM     14  C   UNL     1      30.424 -23.172 -15.465  0.00  0.00    +0.058 C 
ATOM     15  C   UNL     1      30.788 -22.647 -14.223  0.00  0.00    +0.015 C 
ATOM     16  C   UNL     1      29.748 -24.394 -15.529  0.00  0.00    +0.015 C 
ATOM     17  C   UNL     1      30.479 -23.340 -13.052  0.00  0.00    +0.001 C 
ATOM     18  C   UNL     1      29.439 -25.085 -14.357  0.00  0.00    +0.001 C 
ATOM     19  C   UNL     1      29.804 -24.559 -13.120  0.00  0.00    +0.000 C 
ENDBRANCH   5  14
BRANCH   6  20
ATOM     20  O   UNL     1      35.416 -22.733 -16.576  0.00  0.00    -0.453 OA
BRANCH  20  21
ATOM     21  C   UNL     1      35.540 -22.456 -15.193  0.00  0.00    +0.208 C 
BRANCH  21  22
ATOM     22  C   UNL     1      36.465 -23.500 -14.571  0.00  0.00    +0.044 C 
ATOM     23  C   UNL     1      36.750 -23.165 -13.101  0.00  0.00    +0.004 C 
ATOM     24  C   UNL     1      35.863 -24.906 -14.706  0.00  0.00    +0.004 C 
ATOM     25  C   UNL     1      37.630 -24.224 -12.442  0.00  0.00    +0.000 C 
ATOM     26  C   UNL     1      36.745 -25.961 -14.043  0.00  0.00    +0.000 C 
ATOM     27  C   UNL     1      37.033 -25.620 -12.585  0.00  0.00    +0.000 C 
ENDBRANCH  21  22
ENDBRANCH  20  21
ENDBRANCH   6  20
TORSDOF 4
ENDMDL
MODEL 7
REMARK VINA RESULT:     -11.0      2.151      7.255
REMARK  Name = 1540
REMARK  4 active torsions:
REMARK  status: ('A' for Active; 'I' for Inactive)
REMARK    1  A    between atoms: N_5  and  C_14
REMARK    2  A    between atoms: C_6  and  O_20
REMARK    3  A    between atoms: O_20  and  C_21
REMARK    4  A    between atoms: C_21  and  C_22
REMARK                            x       y       z     vdW  Elec       q    Type
REMARK                         _______ _______ _______ _____ _____    ______ ____
ROOT
ATOM      1  N   UNL     1      34.916 -22.798 -16.102  0.00  0.00    -0.293 NA
ATOM      2  N   UNL     1      33.323 -21.292 -19.055  0.00  0.00    -0.266 NA
ATOM      3  N   UNL     1      36.445 -21.539 -17.527  0.00  0.00    -0.316 NA
ATOM      4  N   UNL     1      35.381 -20.548 -19.476  0.00  0.00    -0.296 N 
ATOM      5  N   UNL     1      37.191 -22.602 -15.581  0.00  0.00    -0.238 N 
ATOM      6  C   UNL     1      33.869 -22.526 -16.911  0.00  0.00    +0.288 C 
ATOM      7  C   UNL     1      34.102 -21.759 -18.035  0.00  0.00    +0.215 C 
ATOM      8  C   UNL     1      35.375 -21.284 -18.318  0.00  0.00    +0.196 C 
ATOM      9  C   UNL     1      36.123 -22.294 -16.454  0.00  0.00    +0.207 C 
ATOM     10  C   UNL     1      34.134 -20.572 -19.893  0.00  0.00    +0.164 C 
ATOM     11  H   UNL     1      32.357 -21.444 -19.168  0.00  0.00    +0.126 HD
ATOM     12  H   UNL     1      36.150 -20.101 -19.901  0.00  0.00    +0.150 HD
ATOM     13  H   UNL     1      38.055 -22.223 -15.861  0.00  0.00    +0.166 HD
ENDROOT
BRANCH   5  14
ATOM     14  C   UNL     1      37.260 -23.344 -14.388  0.00  0.00    +0.058 C 
ATOM     15  C   UNL     1      36.817 -22.785 -13.187  0.00  0.00    +0.015 C 
ATOM     16  C   UNL     1      37.771 -24.645 -14.399  0.00  0.00    +0.015 C 
ATOM     17  C   UNL     1      36.886 -23.521 -12.004  0.00  0.00    +0.001 C 
ATOM     18  C   UNL     1      37.839 -25.380 -13.216  0.00  0.00    +0.001 C 
ATOM     19  C   UNL     1      37.397 -24.819 -12.019  0.00  0.00    +0.000 C 
ENDBRANCH   5  14
BRANCH   6  20
ATOM     20  O   UNL     1      32.631 -23.022 -16.584  0.00  0.00    -0.453 OA
BRANCH  20  21
ATOM     21  C   UNL     1      32.336 -23.155 -15.206  0.00  0.00    +0.208 C 
BRANCH  21  22
ATOM     22  C   UNL     1      30.821 -23.081 -15.026  0.00  0.00    +0.044 C 
ATOM     23  C   UNL     1      30.159 -22.446 -16.256  0.00  0.00    +0.004 C 
ATOM     24  C   UNL     1      30.240 -24.474 -14.749  0.00  0.00    +0.004 C 
ATOM     25  C   UNL     1      28.639 -22.409 -16.122  0.00  0.00    +0.000 C 
ATOM     26  C   UNL     1      28.719 -24.434 -14.619  0.00  0.00    +0.000 C 
ATOM     27  C   UNL     1      28.066 -23.794 -15.840  0.00  0.00    +0.000 C 
ENDBRANCH  21  22
ENDBRANCH  20  21
ENDBRANCH   6  20
TORSDOF 4
ENDMDL
MODEL 8
REMARK VINA RESULT:     -10.6      1.789      2.983
REMARK  Name = 1540
REMARK  4 active torsions:
REMARK  status: ('A' for Active; 'I' for Inactive)
REMARK    1  A    between atoms: N_5  and  C_14
REMARK    2  A    between atoms: C_6  and  O_20
REMARK    3  A    between atoms: O_20  and  C_21
REMARK    4  A    between atoms: C_21  and  C_22
REMARK                            x       y       z     vdW  Elec       q    Type
REMARK                         _______ _______ _______ _____ _____    ______ ____
ROOT
ATOM      1  N   UNL     1      34.374 -21.211 -18.631  0.00  0.00    -0.293 NA
ATOM      2  N   UNL     1      32.867 -23.293 -16.002  0.00  0.00    -0.266 NA
ATOM      3  N   UNL     1      31.936 -21.276 -18.686  0.00  0.00    -0.316 NA
ATOM      4  N   UNL     1      30.950 -22.655 -16.943  0.00  0.00    -0.296 N 
ATOM      5  N   UNL     1      33.156 -20.028 -20.244  0.00  0.00    -0.238 N 
ATOM      6  C   UNL     1      34.415 -22.031 -17.559  0.00  0.00    +0.288 C 
ATOM      7  C   UNL     1      33.217 -22.480 -17.041  0.00  0.00    +0.215 C 
ATOM      8  C   UNL     1      32.010 -22.096 -17.610  0.00  0.00    +0.196 C 
ATOM      9  C   UNL     1      33.154 -20.888 -19.122  0.00  0.00    +0.207 C 
ATOM     10  C   UNL     1      31.499 -23.367 -15.983  0.00  0.00    +0.164 C 
ATOM     11  H   UNL     1      33.483 -23.743 -15.379  0.00  0.00    +0.126 HD
ATOM     12  H   UNL     1      29.991 -22.546 -17.139  0.00  0.00    +0.150 HD
ATOM     13  H   UNL     1      32.256 -19.810 -20.579  0.00  0.00    +0.166 HD
ENDROOT
BRANCH   5  14
ATOM     14  C   UNL     1      34.193 -19.423 -20.976  0.00  0.00    +0.058 C 
ATOM     15  C   UNL     1      33.973 -19.005 -22.290  0.00  0.00    +0.015 C 
ATOM     16  C   UNL     1      35.448 -19.236 -20.391  0.00  0.00    +0.015 C 
ATOM     17  C   UNL     1      35.002 -18.405 -23.017  0.00  0.00    +0.001 C 
ATOM     18  C   UNL     1      36.477 -18.636 -21.118  0.00  0.00    +0.001 C 
ATOM     19  C   UNL     1      36.254 -18.221 -22.430  0.00  0.00    +0.000 C 
ENDBRANCH   5  14
BRANCH   6  20
ATOM     20  O   UNL     1      35.637 -22.379 -17.037  0.00  0.00    -0.453 OA
BRANCH  20  21
ATOM     21  C   UNL     1      35.940 -21.902 -15.739  0.00  0.00    +0.208 C 
BRANCH  21  22
ATOM     22  C   UNL     1      36.340 -23.091 -14.868  0.00  0.00    +0.044 C 
ATOM     23  C   UNL     1      37.843 -23.377 -14.996  0.00  0.00    +0.004 C 
ATOM     24  C   UNL     1      35.954 -22.844 -13.403  0.00  0.00    +0.004 C 
ATOM     25  C   UNL     1      38.277 -24.528 -14.093  0.00  0.00    +0.000 C 
ATOM     26  C   UNL     1      36.393 -23.996 -12.502  0.00  0.00    +0.000 C 
ATOM     27  C   UNL     1      37.884 -24.282 -12.640  0.00  0.00    +0.000 C 
ENDBRANCH  21  22
ENDBRANCH  20  21
ENDBRANCH   6  20
TORSDOF 4
ENDMDL
MODEL 9
REMARK VINA RESULT:     -10.4      2.398      5.412
REMARK  Name = 1540
REMARK  4 active torsions:
REMARK  status: ('A' for Active; 'I' for Inactive)
REMARK    1  A    between atoms: N_5  and  C_14
REMARK    2  A    between atoms: C_6  and  O_20
REMARK    3  A    between atoms: O_20  and  C_21
REMARK    4  A    between atoms: C_21  and  C_22
REMARK                            x       y       z     vdW  Elec       q    Type
REMARK                         _______ _______ _______ _____ _____    ______ ____
ROOT
ATOM      1  N   UNL     1      34.384 -21.637 -18.056  0.00  0.00    -0.293 NA
ATOM      2  N   UNL     1      34.547 -23.728 -15.036  0.00  0.00    -0.266 NA
ATOM      3  N   UNL     1      36.541 -21.578 -16.919  0.00  0.00    -0.316 NA
ATOM      4  N   UNL     1      36.638 -22.965 -14.923  0.00  0.00    -0.296 N 
ATOM      5  N   UNL     1      36.159 -20.342 -18.867  0.00  0.00    -0.238 N 
ATOM      6  C   UNL     1      33.877 -22.494 -17.144  0.00  0.00    +0.288 C 
ATOM      7  C   UNL     1      34.698 -22.900 -16.111  0.00  0.00    +0.215 C 
ATOM      8  C   UNL     1      36.004 -22.438 -16.020  0.00  0.00    +0.196 C 
ATOM      9  C   UNL     1      35.667 -21.238 -17.890  0.00  0.00    +0.207 C 
ATOM     10  C   UNL     1      35.736 -23.735 -14.355  0.00  0.00    +0.164 C 
ATOM     11  H   UNL     1      33.734 -24.229 -14.794  0.00  0.00    +0.126 HD
ATOM     12  H   UNL     1      37.564 -22.802 -14.628  0.00  0.00    +0.150 HD
ATOM     13  H   UNL     1      37.093 -20.069 -18.721  0.00  0.00    +0.166 HD
ENDROOT
BRANCH   5  14
ATOM     14  C   UNL     1      35.572 -19.763 -20.007  0.00  0.00    +0.058 C 
ATOM     15  C   UNL     1      36.312 -18.894 -20.813  0.00  0.00    +0.015 C 
ATOM     16  C   UNL     1      34.246 -20.054 -20.339  0.00  0.00    +0.015 C 
ATOM     17  C   UNL     1      35.730 -18.320 -21.943  0.00  0.00    +0.001 C 
ATOM     18  C   UNL     1      33.665 -19.480 -21.470  0.00  0.00    +0.001 C 
ATOM     19  C   UNL     1      34.406 -18.613 -22.271  0.00  0.00    +0.000 C 
ENDBRANCH   5  14
BRANCH   6  20
ATOM     20  O   UNL     1      32.578 -22.918 -17.282  0.00  0.00    -0.453 OA
BRANCH  20  21
ATOM     21  C   UNL     1      31.623 -22.362 -16.397  0.00  0.00    +0.208 C 
BRANCH  21  22
ATOM     22  C   UNL     1      30.991 -23.496 -15.592  0.00  0.00    +0.044 C 
ATOM     23  C   UNL     1      31.257 -23.309 -14.092  0.00  0.00    +0.004 C 
ATOM     24  C   UNL     1      29.485 -23.587 -15.873  0.00  0.00    +0.004 C 
ATOM     25  C   UNL     1      30.590 -24.402 -13.261  0.00  0.00    +0.000 C 
ATOM     26  C   UNL     1      28.822 -24.680 -15.039  0.00  0.00    +0.000 C 
ATOM     27  C   UNL     1      29.095 -24.495 -13.550  0.00  0.00    +0.000 C 
ENDBRANCH  21  22
ENDBRANCH  20  21
ENDBRANCH   6  20
TORSDOF 4
ENDMDL
