MODEL 1
REMARK VINA RESULT:     -10.8      0.000      0.000
REMARK  Name = 57519748
REMARK  6 active torsions:
REMARK  status: ('A' for Active; 'I' for Inactive)
REMARK    1  A    between atoms: N_2  and  C_27
REMARK    2  A    between atoms: C_12  and  C_17
REMARK    3  A    between atoms: C_18  and  C_22
REMARK    4  A    between atoms: C_22  and  O_25
REMARK    5  A    between atoms: C_27  and  C_28
REMARK    6  A    between atoms: C_28  and  O_30
REMARK                            x       y       z     vdW  Elec       q    Type
REMARK                         _______ _______ _______ _____ _____    ______ ____
ROOT
ATOM      1  O   UNL     1      32.279 -24.364 -12.402  0.00  0.00    -0.246 OA
ATOM      2  N   UNL     1      33.233 -23.296 -14.302  0.00  0.00    -0.277 N 
ATOM      3  N   UNL     1      34.605 -24.014 -12.646  0.00  0.00    -0.276 N 
ATOM      4  N   UNL     1      37.308 -22.654 -14.785  0.00  0.00    -0.242 NA
ATOM      5  C   UNL     1      34.560 -22.975 -14.677  0.00  0.00    +0.083 A 
ATOM      6  C   UNL     1      35.384 -23.425 -13.648  0.00  0.00    +0.099 A 
ATOM      7  C   UNL     1      35.110 -22.343 -15.805  0.00  0.00    +0.035 C 
ATOM      8  C   UNL     1      33.243 -23.948 -13.030  0.00  0.00    +0.332 A 
ATOM      9  C   UNL     1      36.524 -22.211 -15.796  0.00  0.00    +0.083 C 
ATOM     10  C   UNL     1      34.390 -21.842 -16.915  0.00  0.00    +0.003 C 
ATOM     11  C   UNL     1      36.737 -23.255 -13.723  0.00  0.00    +0.118 C 
ATOM     12  C   UNL     1      35.042 -21.231 -17.984  0.00  0.00    +0.002 C 
ATOM     13  C   UNL     1      35.106 -24.592 -11.425  0.00  0.00    +0.135 C 
ATOM     14  C   UNL     1      37.144 -21.595 -16.878  0.00  0.00    +0.019 C 
ATOM     15  C   UNL     1      36.421 -21.107 -17.966  0.00  0.00    +0.002 C 
ENDROOT
BRANCH  12  17
ATOM     16  N   UNL     1      32.166 -20.556 -20.263  0.00  0.00    -0.243 NA
ATOM     17  C   UNL     1      34.284 -20.726 -19.109  0.00  0.00    +0.019 C 
ATOM     18  C   UNL     1      34.135 -19.480 -21.161  0.00  0.00    +0.021 C 
ATOM     19  C   UNL     1      34.889 -19.952 -20.093  0.00  0.00    +0.001 C 
ATOM     20  C   UNL     1      32.931 -20.997 -19.239  0.00  0.00    +0.099 C 
ATOM     21  C   UNL     1      32.789 -19.807 -21.199  0.00  0.00    +0.097 C 
BRANCH  18  22
ATOM     22  C   UNL     1      34.753 -18.649 -22.228  0.00  0.00    +0.109 C 
ATOM     23  C   UNL     1      36.282 -18.486 -22.035  0.00  0.00    +0.034 C 
ATOM     24  C   UNL     1      34.479 -19.210 -23.646  0.00  0.00    +0.034 C 
BRANCH  22  25
ATOM     25  O   UNL     1      34.222 -17.303 -22.239  0.00  0.00    -0.383 OA
ATOM     26  H   UNL     1      34.680 -16.779 -22.915  0.00  0.00    +0.211 HD
ENDBRANCH  22  25
ENDBRANCH  18  22
ENDBRANCH  12  17
BRANCH   2  27
ATOM     27  C   UNL     1      32.056 -23.010 -15.078  0.00  0.00    +0.140 C 
BRANCH  27  28
ATOM     28  C   UNL     1      30.785 -23.361 -14.313  0.00  0.00    +0.138 C 
ATOM     29  C   UNL     1      30.033 -24.500 -14.988  0.00  0.00    +0.034 C 
BRANCH  28  30
ATOM     30  O   UNL     1      29.942 -22.211 -14.282  0.00  0.00    -0.352 OA
ATOM     31  C   UNL     1      28.798 -22.387 -15.103  0.00  0.00    +0.174 C 
ENDBRANCH  28  30
ENDBRANCH  27  28
ENDBRANCH   2  27
TORSDOF 6
ENDMDL
MODEL 2
REMARK VINA RESULT:      -9.4      2.548      8.294
REMARK  Name = 57519748
REMARK  6 active torsions:
REMARK  status: ('A' for Active; 'I' for Inactive)
REMARK    1  A    between atoms: N_2  and  C_27
REMARK    2  A    between atoms: C_12  and  C_17
REMARK    3  A    between atoms: C_18  and  C_22
REMARK    4  A    between atoms: C_22  and  O_25
REMARK    5  A    between atoms: C_27  and  C_28
REMARK    6  A    between atoms: C_28  and  O_30
REMARK                            x       y       z     vdW  Elec       q    Type
REMARK                         _______ _______ _______ _____ _____    ______ ____
ROOT
ATOM      1  O   UNL     1      36.449 -20.130 -20.332  0.00  0.00    -0.246 OA
ATOM      2  N   UNL     1      35.446 -21.199 -18.458  0.00  0.00    -0.277 N 
ATOM      3  N   UNL     1      34.112 -20.423 -20.118  0.00  0.00    -0.276 N 
ATOM      4  N   UNL     1      31.349 -21.741 -18.030  0.00  0.00    -0.242 NA
ATOM      5  C   UNL     1      34.106 -21.490 -18.102  0.00  0.00    +0.083 A 
ATOM      6  C   UNL     1      33.306 -21.006 -19.135  0.00  0.00    +0.099 A 
ATOM      7  C   UNL     1      33.527 -22.124 -16.991  0.00  0.00    +0.035 C 
ATOM      8  C   UNL     1      35.467 -20.529 -19.720  0.00  0.00    +0.332 A 
ATOM      9  C   UNL     1      32.110 -22.219 -17.017  0.00  0.00    +0.083 C 
ATOM     10  C   UNL     1      34.221 -22.659 -15.879  0.00  0.00    +0.003 C 
ATOM     11  C   UNL     1      31.948 -21.141 -19.078  0.00  0.00    +0.118 C 
ATOM     12  C   UNL     1      33.541 -23.270 -14.827  0.00  0.00    +0.002 C 
ATOM     13  C   UNL     1      33.640 -19.813 -21.336  0.00  0.00    +0.135 C 
ATOM     14  C   UNL     1      31.461 -22.833 -15.951  0.00  0.00    +0.019 C 
ATOM     15  C   UNL     1      32.159 -23.357 -14.863  0.00  0.00    +0.002 C 
ENDROOT
BRANCH  12  17
ATOM     16  N   UNL     1      34.369 -24.271 -11.330  0.00  0.00    -0.243 NA
ATOM     17  C   UNL     1      34.273 -23.810 -13.701  0.00  0.00    +0.019 C 
ATOM     18  C   UNL     1      36.211 -24.886 -12.769  0.00  0.00    +0.021 C 
ATOM     19  C   UNL     1      35.532 -24.374 -13.869  0.00  0.00    +0.001 C 
ATOM     20  C   UNL     1      33.740 -23.783 -12.423  0.00  0.00    +0.099 C 
ATOM     21  C   UNL     1      35.590 -24.811 -11.532  0.00  0.00    +0.097 C 
BRANCH  18  22
ATOM     22  C   UNL     1      37.558 -25.497 -12.916  0.00  0.00    +0.109 C 
ATOM     23  C   UNL     1      37.631 -26.479 -14.112  0.00  0.00    +0.034 C 
ATOM     24  C   UNL     1      38.675 -24.434 -13.064  0.00  0.00    +0.034 C 
BRANCH  22  25
ATOM     25  O   UNL     1      37.925 -26.279 -11.754  0.00  0.00    -0.383 OA
ATOM     26  H   UNL     1      37.900 -25.716 -10.964  0.00  0.00    +0.211 HD
ENDBRANCH  22  25
ENDBRANCH  18  22
ENDBRANCH  12  17
BRANCH   2  27
ATOM     27  C   UNL     1      36.605 -21.526 -17.672  0.00  0.00    +0.140 C 
BRANCH  27  28
ATOM     28  C   UNL     1      36.776 -20.561 -16.503  0.00  0.00    +0.138 C 
ATOM     29  C   UNL     1      37.727 -19.427 -16.862  0.00  0.00    +0.034 C 
BRANCH  28  30
ATOM     30  O   UNL     1      37.317 -21.280 -15.397  0.00  0.00    -0.352 OA
ATOM     31  C   UNL     1      37.845 -22.533 -15.803  0.00  0.00    +0.174 C 
ENDBRANCH  28  30
ENDBRANCH  27  28
ENDBRANCH   2  27
TORSDOF 6
ENDMDL
MODEL 3
REMARK VINA RESULT:      -8.5     10.198     15.100
REMARK  Name = 57519748
REMARK  6 active torsions:
REMARK  status: ('A' for Active; 'I' for Inactive)
REMARK    1  A    between atoms: N_2  and  C_27
REMARK    2  A    between atoms: C_12  and  C_17
REMARK    3  A    between atoms: C_18  and  C_22
REMARK    4  A    between atoms: C_22  and  O_25
REMARK    5  A    between atoms: C_27  and  C_28
REMARK    6  A    between atoms: C_28  and  O_30
REMARK                            x       y       z     vdW  Elec       q    Type
REMARK                         _______ _______ _______ _____ _____    ______ ____
ROOT
ATOM      1  O   UNL     1      31.159  -4.588 -23.537  0.00  0.00    -0.246 OA
ATOM      2  N   UNL     1      31.492  -6.883 -23.008  0.00  0.00    -0.277 N 
ATOM      3  N   UNL     1      30.882  -5.457 -21.355  0.00  0.00    -0.276 N 
ATOM      4  N   UNL     1      31.020  -8.466 -19.196  0.00  0.00    -0.242 NA
ATOM      5  C   UNL     1      31.392  -7.633 -21.811  0.00  0.00    +0.083 A 
ATOM      6  C   UNL     1      31.017  -6.739 -20.811  0.00  0.00    +0.099 A 
ATOM      7  C   UNL     1      31.592  -8.991 -21.513  0.00  0.00    +0.035 C 
ATOM      8  C   UNL     1      31.175  -5.516 -22.739  0.00  0.00    +0.332 A 
ATOM      9  C   UNL     1      31.384  -9.350 -20.154  0.00  0.00    +0.083 C 
ATOM     10  C   UNL     1      31.972 -10.001 -22.429  0.00  0.00    +0.003 C 
ATOM     11  C   UNL     1      30.839  -7.172 -19.528  0.00  0.00    +0.118 C 
ATOM     12  C   UNL     1      32.141 -11.322 -22.021  0.00  0.00    +0.002 C 
ATOM     13  C   UNL     1      30.508  -4.272 -20.626  0.00  0.00    +0.135 C 
ATOM     14  C   UNL     1      31.562 -10.678 -19.779  0.00  0.00    +0.019 C 
ATOM     15  C   UNL     1      31.936 -11.662 -20.694  0.00  0.00    +0.002 C 
ENDROOT
BRANCH  12  17
ATOM     16  N   UNL     1      32.620 -13.084 -25.275  0.00  0.00    -0.243 NA
ATOM     17  C   UNL     1      32.530 -12.337 -22.977  0.00  0.00    +0.019 C 
ATOM     18  C   UNL     1      33.530 -14.459 -23.507  0.00  0.00    +0.021 C 
ATOM     19  C   UNL     1      33.167 -13.503 -22.566  0.00  0.00    +0.001 C 
ATOM     20  C   UNL     1      32.282 -12.177 -24.330  0.00  0.00    +0.099 C 
ATOM     21  C   UNL     1      33.237 -14.204 -24.838  0.00  0.00    +0.097 C 
BRANCH  18  22
ATOM     22  C   UNL     1      34.213 -15.715 -23.100  0.00  0.00    +0.109 C 
ATOM     23  C   UNL     1      34.161 -15.942 -21.568  0.00  0.00    +0.034 C 
ATOM     24  C   UNL     1      33.633 -16.961 -23.816  0.00  0.00    +0.034 C 
BRANCH  22  25
ATOM     25  O   UNL     1      35.620 -15.698 -23.438  0.00  0.00    -0.383 OA
ATOM     26  H   UNL     1      35.750 -16.122 -24.302  0.00  0.00    +0.211 HD
ENDBRANCH  22  25
ENDBRANCH  18  22
ENDBRANCH  12  17
BRANCH   2  27
ATOM     27  C   UNL     1      31.855  -7.414 -24.295  0.00  0.00    +0.140 C 
BRANCH  27  28
ATOM     28  C   UNL     1      33.321  -7.141 -24.616  0.00  0.00    +0.138 C 
ATOM     29  C   UNL     1      34.154  -7.051 -23.344  0.00  0.00    +0.034 C 
BRANCH  28  30
ATOM     30  O   UNL     1      33.410  -5.899 -25.311  0.00  0.00    -0.352 OA
ATOM     31  C   UNL     1      32.570  -5.886 -26.455  0.00  0.00    +0.174 C 
ENDBRANCH  28  30
ENDBRANCH  27  28
ENDBRANCH   2  27
TORSDOF 6
ENDMDL
MODEL 4
REMARK VINA RESULT:      -8.5     13.825     19.017
REMARK  Name = 57519748
REMARK  6 active torsions:
REMARK  status: ('A' for Active; 'I' for Inactive)
REMARK    1  A    between atoms: N_2  and  C_27
REMARK    2  A    between atoms: C_12  and  C_17
REMARK    3  A    between atoms: C_18  and  C_22
REMARK    4  A    between atoms: C_22  and  O_25
REMARK    5  A    between atoms: C_27  and  C_28
REMARK    6  A    between atoms: C_28  and  O_30
REMARK                            x       y       z     vdW  Elec       q    Type
REMARK                         _______ _______ _______ _____ _____    ______ ____
ROOT
ATOM      1  O   UNL     1      32.818  -4.461 -28.155  0.00  0.00    -0.246 OA
ATOM      2  N   UNL     1      32.166  -4.906 -25.911  0.00  0.00    -0.277 N 
ATOM      3  N   UNL     1      31.654  -2.893 -26.820  0.00  0.00    -0.276 N 
ATOM      4  N   UNL     1      30.121  -2.192 -23.520  0.00  0.00    -0.242 NA
ATOM      5  C   UNL     1      31.479  -4.154 -24.927  0.00  0.00    +0.083 A 
ATOM      6  C   UNL     1      31.174  -2.924 -25.507  0.00  0.00    +0.099 A 
ATOM      7  C   UNL     1      31.099  -4.430 -23.603  0.00  0.00    +0.035 C 
ATOM      8  C   UNL     1      32.284  -4.129 -27.105  0.00  0.00    +0.332 A 
ATOM      9  C   UNL     1      30.406  -3.381 -22.940  0.00  0.00    +0.083 C 
ATOM     10  C   UNL     1      31.344  -5.632 -22.897  0.00  0.00    +0.003 C 
ATOM     11  C   UNL     1      30.504  -1.971 -24.794  0.00  0.00    +0.118 C 
ATOM     12  C   UNL     1      30.919  -5.798 -21.581  0.00  0.00    +0.002 C 
ATOM     13  C   UNL     1      31.528  -1.786 -27.733  0.00  0.00    +0.135 C 
ATOM     14  C   UNL     1      29.997  -3.578 -21.625  0.00  0.00    +0.019 C 
ATOM     15  C   UNL     1      30.245  -4.769 -20.943  0.00  0.00    +0.002 C 
ENDROOT
BRANCH  12  17
ATOM     16  N   UNL     1      31.740  -8.163 -18.815  0.00  0.00    -0.243 NA
ATOM     17  C   UNL     1      31.181  -7.037 -20.880  0.00  0.00    +0.019 C 
ATOM     18  C   UNL     1      31.385  -9.433 -20.842  0.00  0.00    +0.021 C 
ATOM     19  C   UNL     1      31.130  -8.259 -21.541  0.00  0.00    +0.001 C 
ATOM     20  C   UNL     1      31.487  -7.043 -19.529  0.00  0.00    +0.099 C 
ATOM     21  C   UNL     1      31.682  -9.332 -19.492  0.00  0.00    +0.097 C 
BRANCH  18  22
ATOM     22  C   UNL     1      31.338 -10.755 -21.520  0.00  0.00    +0.109 C 
ATOM     23  C   UNL     1      32.127 -10.760 -22.853  0.00  0.00    +0.034 C 
ATOM     24  C   UNL     1      31.862 -11.900 -20.617  0.00  0.00    +0.034 C 
BRANCH  22  25
ATOM     25  O   UNL     1      29.986 -11.133 -21.872  0.00  0.00    -0.383 OA
ATOM     26  H   UNL     1      29.737 -11.935 -21.387  0.00  0.00    +0.211 HD
ENDBRANCH  22  25
ENDBRANCH  18  22
ENDBRANCH  12  17
BRANCH   2  27
ATOM     27  C   UNL     1      32.666  -6.243 -25.737  0.00  0.00    +0.140 C 
BRANCH  27  28
ATOM     28  C   UNL     1      34.119  -6.237 -25.272  0.00  0.00    +0.138 C 
ATOM     29  C   UNL     1      34.298  -7.085 -24.019  0.00  0.00    +0.034 C 
BRANCH  28  30
ATOM     30  O   UNL     1      34.495  -4.894 -24.973  0.00  0.00    -0.352 OA
ATOM     31  C   UNL     1      35.501  -4.430 -25.860  0.00  0.00    +0.174 C 
ENDBRANCH  28  30
ENDBRANCH  27  28
ENDBRANCH   2  27
TORSDOF 6
ENDMDL
MODEL 5
REMARK VINA RESULT:      -8.2     12.527     16.507
REMARK  Name = 57519748
REMARK  6 active torsions:
REMARK  status: ('A' for Active; 'I' for Inactive)
REMARK    1  A    between atoms: N_2  and  C_27
REMARK    2  A    between atoms: C_12  and  C_17
REMARK    3  A    between atoms: C_18  and  C_22
REMARK    4  A    between atoms: C_22  and  O_25
REMARK    5  A    between atoms: C_27  and  C_28
REMARK    6  A    between atoms: C_28  and  O_30
REMARK                            x       y       z     vdW  Elec       q    Type
REMARK                         _______ _______ _______ _____ _____    ______ ____
ROOT
ATOM      1  O   UNL     1      31.269 -11.429 -20.797  0.00  0.00    -0.246 OA
ATOM      2  N   UNL     1      31.767  -9.425 -21.978  0.00  0.00    -0.277 N 
ATOM      3  N   UNL     1      31.216  -9.293 -19.783  0.00  0.00    -0.276 N 
ATOM      4  N   UNL     1      31.692  -5.647 -20.251  0.00  0.00    -0.242 NA
ATOM      5  C   UNL     1      31.806  -8.058 -21.609  0.00  0.00    +0.083 A 
ATOM      6  C   UNL     1      31.465  -8.001 -20.259  0.00  0.00    +0.099 A 
ATOM      7  C   UNL     1      32.103  -6.883 -22.318  0.00  0.00    +0.035 C 
ATOM      8  C   UNL     1      31.399 -10.212 -20.844  0.00  0.00    +0.332 A 
ATOM      9  C   UNL     1      32.026  -5.683 -21.562  0.00  0.00    +0.083 C 
ATOM     10  C   UNL     1      32.463  -6.800 -23.685  0.00  0.00    +0.003 C 
ATOM     11  C   UNL     1      31.415  -6.800 -19.610  0.00  0.00    +0.118 C 
ATOM     12  C   UNL     1      32.738  -5.575 -24.288  0.00  0.00    +0.002 C 
ATOM     13  C   UNL     1      30.836  -9.630 -18.435  0.00  0.00    +0.135 C 
ATOM     14  C   UNL     1      32.306  -4.476 -22.194  0.00  0.00    +0.019 C 
ATOM     15  C   UNL     1      32.660  -4.411 -23.542  0.00  0.00    +0.002 C 
ENDROOT
BRANCH  12  17
ATOM     16  N   UNL     1      32.542  -5.990 -27.990  0.00  0.00    -0.243 NA
ATOM     17  C   UNL     1      33.104  -5.516 -25.687  0.00  0.00    +0.019 C 
ATOM     18  C   UNL     1      34.635  -4.912 -27.441  0.00  0.00    +0.021 C 
ATOM     19  C   UNL     1      34.311  -4.956 -26.090  0.00  0.00    +0.001 C 
ATOM     20  C   UNL     1      32.262  -6.015 -26.668  0.00  0.00    +0.099 C 
ATOM     21  C   UNL     1      33.723  -5.438 -28.343  0.00  0.00    +0.097 C 
BRANCH  18  22
ATOM     22  C   UNL     1      35.917  -4.319 -27.904  0.00  0.00    +0.109 C 
ATOM     23  C   UNL     1      36.739  -3.714 -26.738  0.00  0.00    +0.034 C 
ATOM     24  C   UNL     1      36.798  -5.339 -28.668  0.00  0.00    +0.034 C 
BRANCH  22  25
ATOM     25  O   UNL     1      35.703  -3.227 -28.830  0.00  0.00    -0.383 OA
ATOM     26  H   UNL     1      36.256  -2.472 -28.573  0.00  0.00    +0.211 HD
ENDBRANCH  22  25
ENDBRANCH  18  22
ENDBRANCH  12  17
BRANCH   2  27
ATOM     27  C   UNL     1      32.054  -9.941 -23.290  0.00  0.00    +0.140 C 
BRANCH  27  28
ATOM     28  C   UNL     1      33.431 -10.595 -23.341  0.00  0.00    +0.138 C 
ATOM     29  C   UNL     1      34.441  -9.694 -24.040  0.00  0.00    +0.034 C 
BRANCH  28  30
ATOM     30  O   UNL     1      33.326 -11.816 -24.070  0.00  0.00    -0.352 OA
ATOM     31  C   UNL     1      33.421 -12.941 -23.210  0.00  0.00    +0.174 C 
ENDBRANCH  28  30
ENDBRANCH  27  28
ENDBRANCH   2  27
TORSDOF 6
ENDMDL
MODEL 6
REMARK VINA RESULT:      -8.1      4.722     10.546
REMARK  Name = 57519748
REMARK  6 active torsions:
REMARK  status: ('A' for Active; 'I' for Inactive)
REMARK    1  A    between atoms: N_2  and  C_27
REMARK    2  A    between atoms: C_12  and  C_17
REMARK    3  A    between atoms: C_18  and  C_22
REMARK    4  A    between atoms: C_22  and  O_25
REMARK    5  A    between atoms: C_27  and  C_28
REMARK    6  A    between atoms: C_28  and  O_30
REMARK                            x       y       z     vdW  Elec       q    Type
REMARK                         _______ _______ _______ _____ _____    ______ ____
ROOT
ATOM      1  O   UNL     1      33.426 -11.220 -22.356  0.00  0.00    -0.246 OA
ATOM      2  N   UNL     1      33.764 -13.574 -22.364  0.00  0.00    -0.277 N 
ATOM      3  N   UNL     1      33.051 -12.565 -24.264  0.00  0.00    -0.276 N 
ATOM      4  N   UNL     1      33.123 -15.987 -25.685  0.00  0.00    -0.242 NA
ATOM      5  C   UNL     1      33.615 -14.579 -23.352  0.00  0.00    +0.083 A 
ATOM      6  C   UNL     1      33.178 -13.937 -24.508  0.00  0.00    +0.099 A 
ATOM      7  C   UNL     1      33.819 -15.968 -23.343  0.00  0.00    +0.035 C 
ATOM      8  C   UNL     1      33.414 -12.306 -22.921  0.00  0.00    +0.332 A 
ATOM      9  C   UNL     1      33.549 -16.629 -24.571  0.00  0.00    +0.083 C 
ATOM     10  C   UNL     1      34.260 -16.740 -22.241  0.00  0.00    +0.003 C 
ATOM     11  C   UNL     1      32.941 -14.652 -25.648  0.00  0.00    +0.118 C 
ATOM     12  C   UNL     1      34.429 -18.119 -22.346  0.00  0.00    +0.002 C 
ATOM     13  C   UNL     1      32.621 -11.579 -25.223  0.00  0.00    +0.135 C 
ATOM     14  C   UNL     1      33.727 -18.006 -24.642  0.00  0.00    +0.019 C 
ATOM     15  C   UNL     1      34.163 -18.754 -23.548  0.00  0.00    +0.002 C 
ENDROOT
BRANCH  12  17
ATOM     16  N   UNL     1      36.613 -19.354 -19.585  0.00  0.00    -0.243 NA
ATOM     17  C   UNL     1      34.881 -18.888 -21.206  0.00  0.00    +0.019 C 
ATOM     18  C   UNL     1      34.532 -20.584 -19.537  0.00  0.00    +0.021 C 
ATOM     19  C   UNL     1      34.073 -19.863 -20.632  0.00  0.00    +0.001 C 
ATOM     20  C   UNL     1      36.131 -18.673 -20.649  0.00  0.00    +0.099 C 
ATOM     21  C   UNL     1      35.799 -20.293 -19.055  0.00  0.00    +0.097 C 
BRANCH  18  22
ATOM     22  C   UNL     1      33.692 -21.632 -18.901  0.00  0.00    +0.109 C 
ATOM     23  C   UNL     1      34.206 -22.024 -17.493  0.00  0.00    +0.034 C 
ATOM     24  C   UNL     1      32.204 -21.213 -18.798  0.00  0.00    +0.034 C 
BRANCH  22  25
ATOM     25  O   UNL     1      33.692 -22.862 -19.665  0.00  0.00    -0.383 OA
ATOM     26  H   UNL     1      34.291 -22.771 -20.423  0.00  0.00    +0.211 HD
ENDBRANCH  22  25
ENDBRANCH  18  22
ENDBRANCH  12  17
BRANCH   2  27
ATOM     27  C   UNL     1      34.200 -13.796 -21.011  0.00  0.00    +0.140 C 
BRANCH  27  28
ATOM     28  C   UNL     1      33.040 -13.686 -20.028  0.00  0.00    +0.138 C 
ATOM     29  C   UNL     1      32.605 -15.061 -19.536  0.00  0.00    +0.034 C 
BRANCH  28  30
ATOM     30  O   UNL     1      31.939 -13.069 -20.691  0.00  0.00    -0.352 OA
ATOM     31  C   UNL     1      31.548 -11.870 -20.038  0.00  0.00    +0.174 C 
ENDBRANCH  28  30
ENDBRANCH  27  28
ENDBRANCH   2  27
TORSDOF 6
ENDMDL
MODEL 7
REMARK VINA RESULT:      -7.9      2.040      4.257
REMARK  Name = 57519748
REMARK  6 active torsions:
REMARK  status: ('A' for Active; 'I' for Inactive)
REMARK    1  A    between atoms: N_2  and  C_27
REMARK    2  A    between atoms: C_12  and  C_17
REMARK    3  A    between atoms: C_18  and  C_22
REMARK    4  A    between atoms: C_22  and  O_25
REMARK    5  A    between atoms: C_27  and  C_28
REMARK    6  A    between atoms: C_28  and  O_30
REMARK                            x       y       z     vdW  Elec       q    Type
REMARK                         _______ _______ _______ _____ _____    ______ ____
ROOT
ATOM      1  O   UNL     1      35.342 -24.666 -13.465  0.00  0.00    -0.246 OA
ATOM      2  N   UNL     1      34.630 -23.395 -15.346  0.00  0.00    -0.277 N 
ATOM      3  N   UNL     1      33.064 -24.274 -13.964  0.00  0.00    -0.276 N 
ATOM      4  N   UNL     1      30.645 -22.673 -16.271  0.00  0.00    -0.242 NA
ATOM      5  C   UNL     1      33.360 -23.025 -15.850  0.00  0.00    +0.083 A 
ATOM      6  C   UNL     1      32.414 -23.574 -14.987  0.00  0.00    +0.099 A 
ATOM      7  C   UNL     1      32.954 -22.272 -16.964  0.00  0.00    +0.035 C 
ATOM      8  C   UNL     1      34.462 -24.178 -14.163  0.00  0.00    +0.332 A 
ATOM      9  C   UNL     1      31.549 -22.130 -17.121  0.00  0.00    +0.083 C 
ATOM     10  C   UNL     1      33.806 -21.661 -17.915  0.00  0.00    +0.003 C 
ATOM     11  C   UNL     1      31.081 -23.388 -15.214  0.00  0.00    +0.118 C 
ATOM     12  C   UNL     1      33.291 -20.933 -18.986  0.00  0.00    +0.002 C 
ATOM     13  C   UNL     1      32.415 -24.976 -12.886  0.00  0.00    +0.135 C 
ATOM     14  C   UNL     1      31.067 -21.398 -18.201  0.00  0.00    +0.019 C 
ATOM     15  C   UNL     1      31.920 -20.801 -19.129  0.00  0.00    +0.002 C 
ENDROOT
BRANCH  12  17
ATOM     16  N   UNL     1      36.433 -19.685 -20.564  0.00  0.00    -0.243 NA
ATOM     17  C   UNL     1      34.183 -20.318 -19.946  0.00  0.00    +0.019 C 
ATOM     18  C   UNL     1      34.579 -19.200 -22.038  0.00  0.00    +0.021 C 
ATOM     19  C   UNL     1      33.699 -19.784 -21.135  0.00  0.00    +0.001 C 
ATOM     20  C   UNL     1      35.546 -20.244 -19.710  0.00  0.00    +0.099 C 
ATOM     21  C   UNL     1      35.925 -19.177 -21.708  0.00  0.00    +0.097 C 
BRANCH  18  22
ATOM     22  C   UNL     1      34.093 -18.621 -23.318  0.00  0.00    +0.109 C 
ATOM     23  C   UNL     1      34.534 -17.147 -23.501  0.00  0.00    +0.034 C 
ATOM     24  C   UNL     1      34.550 -19.443 -24.549  0.00  0.00    +0.034 C 
BRANCH  22  25
ATOM     25  O   UNL     1      32.647 -18.600 -23.386  0.00  0.00    -0.383 OA
ATOM     26  H   UNL     1      32.359 -17.843 -23.920  0.00  0.00    +0.211 HD
ENDBRANCH  22  25
ENDBRANCH  18  22
ENDBRANCH  12  17
BRANCH   2  27
ATOM     27  C   UNL     1      35.894 -23.038 -15.933  0.00  0.00    +0.140 C 
BRANCH  27  28
ATOM     28  C   UNL     1      36.515 -21.836 -15.229  0.00  0.00    +0.138 C 
ATOM     29  C   UNL     1      37.130 -20.869 -16.232  0.00  0.00    +0.034 C 
BRANCH  28  30
ATOM     30  O   UNL     1      37.541 -22.301 -14.355  0.00  0.00    -0.352 OA
ATOM     31  C   UNL     1      38.214 -23.425 -14.901  0.00  0.00    +0.174 C 
ENDBRANCH  28  30
ENDBRANCH  27  28
ENDBRANCH   2  27
TORSDOF 6
ENDMDL
