MODEL 1
REMARK VINA RESULT:     -11.0      0.000      0.000
REMARK  Name = 134780
REMARK  2 active torsions:
REMARK  status: ('A' for Active; 'I' for Inactive)
REMARK    1  A    between atoms: N_3  and  C_15
REMARK    2  A    between atoms: C_8  and  N_21
REMARK                            x       y       z     vdW  Elec       q    Type
REMARK                         _______ _______ _______ _____ _____    ______ ____
ROOT
ATOM      1  O   UNL     1      32.615 -19.122 -21.737  0.00  0.00    -0.269 OA
ATOM      2  O   UNL     1      37.073 -18.338 -20.760  0.00  0.00    -0.269 OA
ATOM      3  N   UNL     1      34.849 -18.416 -21.532  0.00  0.00    -0.216 N 
ATOM      4  C   UNL     1      33.732 -19.174 -21.254  0.00  0.00    +0.257 C 
ATOM      5  C   UNL     1      35.940 -18.782 -20.772  0.00  0.00    +0.255 C 
ATOM      6  C   UNL     1      34.141 -20.111 -20.208  0.00  0.00    +0.071 C 
ATOM      7  C   UNL     1      35.476 -19.875 -19.918  0.00  0.00    +0.060 C 
ATOM      8  C   UNL     1      33.415 -21.091 -19.562  0.00  0.00    +0.046 C 
ATOM      9  C   UNL     1      36.157 -20.605 -18.966  0.00  0.00    +0.005 C 
ATOM     10  C   UNL     1      34.085 -21.845 -18.593  0.00  0.00    +0.014 C 
ATOM     11  C   UNL     1      35.442 -21.605 -18.298  0.00  0.00    +0.001 C 
ENDROOT
BRANCH   3  15
ATOM     12  O   UNL     1      34.572 -15.860 -20.634  0.00  0.00    -0.273 OA
ATOM     13  O   UNL     1      33.084 -14.351 -24.722  0.00  0.00    -0.275 OA
ATOM     14  N   UNL     1      33.812 -15.153 -22.688  0.00  0.00    -0.254 N 
ATOM     15  C   UNL     1      34.874 -17.359 -22.507  0.00  0.00    +0.160 C 
ATOM     16  C   UNL     1      34.013 -17.700 -23.713  0.00  0.00    +0.039 C 
ATOM     17  C   UNL     1      34.044 -16.545 -24.698  0.00  0.00    +0.088 C 
ATOM     18  C   UNL     1      34.394 -16.087 -21.831  0.00  0.00    +0.247 C 
ATOM     19  C   UNL     1      33.582 -15.259 -24.056  0.00  0.00    +0.228 C 
ATOM     20  H   UNL     1      33.526 -14.309 -22.269  0.00  0.00    +0.158 HD
ENDBRANCH   3  15
BRANCH   8  21
ATOM     21  N   UNL     1      32.064 -21.340 -19.848  0.00  0.00    -0.357 N 
ATOM     22  H   UNL     1      31.814 -21.802 -20.681  0.00  0.00    +0.142 HD
ATOM     23  H   UNL     1      31.366 -21.053 -19.217  0.00  0.00    +0.142 HD
ENDBRANCH   8  21
TORSDOF 2
ENDMDL
MODEL 2
REMARK VINA RESULT:     -10.6      1.629      6.180
REMARK  Name = 134780
REMARK  2 active torsions:
REMARK  status: ('A' for Active; 'I' for Inactive)
REMARK    1  A    between atoms: N_3  and  C_15
REMARK    2  A    between atoms: C_8  and  N_21
REMARK                            x       y       z     vdW  Elec       q    Type
REMARK                         _______ _______ _______ _____ _____    ______ ____
ROOT
ATOM      1  O   UNL     1      34.794 -16.732 -20.264  0.00  0.00    -0.269 OA
ATOM      2  O   UNL     1      34.022 -19.107 -24.163  0.00  0.00    -0.269 OA
ATOM      3  N   UNL     1      34.494 -18.279 -22.008  0.00  0.00    -0.216 N 
ATOM      4  C   UNL     1      34.521 -17.038 -21.410  0.00  0.00    +0.257 C 
ATOM      5  C   UNL     1      34.139 -18.218 -23.340  0.00  0.00    +0.255 C 
ATOM      6  C   UNL     1      34.138 -16.088 -22.455  0.00  0.00    +0.071 C 
ATOM      7  C   UNL     1      33.908 -16.802 -23.621  0.00  0.00    +0.060 C 
ATOM      8  C   UNL     1      34.002 -14.716 -22.399  0.00  0.00    +0.046 C 
ATOM      9  C   UNL     1      33.529 -16.181 -24.794  0.00  0.00    +0.005 C 
ATOM     10  C   UNL     1      33.619 -14.066 -23.575  0.00  0.00    +0.014 C 
ATOM     11  C   UNL     1      33.385 -14.791 -24.761  0.00  0.00    +0.001 C 
ENDROOT
BRANCH   3  15
ATOM     12  O   UNL     1      32.413 -19.735 -21.027  0.00  0.00    -0.273 OA
ATOM     13  O   UNL     1      35.070 -21.844 -17.914  0.00  0.00    -0.275 OA
ATOM     14  N   UNL     1      33.772 -20.750 -19.472  0.00  0.00    -0.254 N 
ATOM     15  C   UNL     1      34.801 -19.505 -21.320  0.00  0.00    +0.160 C 
ATOM     16  C   UNL     1      35.954 -19.316 -20.346  0.00  0.00    +0.039 C 
ATOM     17  C   UNL     1      36.220 -20.623 -19.621  0.00  0.00    +0.088 C 
ATOM     18  C   UNL     1      33.545 -19.966 -20.603  0.00  0.00    +0.247 C 
ATOM     19  C   UNL     1      34.988 -21.119 -18.904  0.00  0.00    +0.228 C 
ATOM     20  H   UNL     1      32.967 -21.084 -19.015  0.00  0.00    +0.158 HD
ENDBRANCH   3  15
BRANCH   8  21
ATOM     21  N   UNL     1      34.233 -13.983 -21.224  0.00  0.00    -0.357 N 
ATOM     22  H   UNL     1      34.540 -13.049 -21.279  0.00  0.00    +0.142 HD
ATOM     23  H   UNL     1      34.089 -14.403 -20.346  0.00  0.00    +0.142 HD
ENDBRANCH   8  21
TORSDOF 2
ENDMDL
MODEL 3
REMARK VINA RESULT:     -10.6      5.591      9.303
REMARK  Name = 134780
REMARK  2 active torsions:
REMARK  status: ('A' for Active; 'I' for Inactive)
REMARK    1  A    between atoms: N_3  and  C_15
REMARK    2  A    between atoms: C_8  and  N_21
REMARK                            x       y       z     vdW  Elec       q    Type
REMARK                         _______ _______ _______ _____ _____    ______ ____
ROOT
ATOM      1  O   UNL     1      33.404 -23.301 -15.304  0.00  0.00    -0.269 OA
ATOM      2  O   UNL     1      37.614 -21.768 -16.474  0.00  0.00    -0.269 OA
ATOM      3  N   UNL     1      35.664 -22.693 -15.528  0.00  0.00    -0.216 N 
ATOM      4  C   UNL     1      34.340 -22.795 -15.896  0.00  0.00    +0.257 C 
ATOM      5  C   UNL     1      36.427 -22.037 -16.472  0.00  0.00    +0.255 C 
ATOM      6  C   UNL     1      34.244 -22.152 -17.206  0.00  0.00    +0.071 C 
ATOM      7  C   UNL     1      35.505 -21.693 -17.554  0.00  0.00    +0.060 C 
ATOM      8  C   UNL     1      33.150 -21.977 -18.030  0.00  0.00    +0.046 C 
ATOM      9  C   UNL     1      35.741 -21.035 -18.744  0.00  0.00    +0.005 C 
ATOM     10  C   UNL     1      33.365 -21.312 -19.241  0.00  0.00    +0.014 C 
ATOM     11  C   UNL     1      34.647 -20.846 -19.594  0.00  0.00    +0.001 C 
ENDROOT
BRANCH   3  15
ATOM     12  O   UNL     1      35.998 -25.388 -15.332  0.00  0.00    -0.273 OA
ATOM     13  O   UNL     1      35.851 -25.293 -10.731  0.00  0.00    -0.275 OA
ATOM     14  N   UNL     1      35.897 -25.298 -13.035  0.00  0.00    -0.254 N 
ATOM     15  C   UNL     1      36.194 -23.213 -14.295  0.00  0.00    +0.160 C 
ATOM     16  C   UNL     1      35.520 -22.572 -13.092  0.00  0.00    +0.039 C 
ATOM     17  C   UNL     1      36.085 -23.173 -11.818  0.00  0.00    +0.088 C 
ATOM     18  C   UNL     1      35.996 -24.718 -14.300  0.00  0.00    +0.247 C 
ATOM     19  C   UNL     1      35.916 -24.672 -11.792  0.00  0.00    +0.228 C 
ATOM     20  H   UNL     1      35.802 -26.278 -13.020  0.00  0.00    +0.158 HD
ENDBRANCH   3  15
BRANCH   8  21
ATOM     21  N   UNL     1      31.868 -22.435 -17.688  0.00  0.00    -0.357 N 
ATOM     22  H   UNL     1      31.655 -22.647 -16.751  0.00  0.00    +0.142 HD
ATOM     23  H   UNL     1      31.183 -22.546 -18.386  0.00  0.00    +0.142 HD
ENDBRANCH   8  21
TORSDOF 2
ENDMDL
MODEL 4
REMARK VINA RESULT:     -10.3      3.400      5.757
REMARK  Name = 134780
REMARK  2 active torsions:
REMARK  status: ('A' for Active; 'I' for Inactive)
REMARK    1  A    between atoms: N_3  and  C_15
REMARK    2  A    between atoms: C_8  and  N_21
REMARK                            x       y       z     vdW  Elec       q    Type
REMARK                         _______ _______ _______ _____ _____    ______ ____
ROOT
ATOM      1  O   UNL     1      34.312 -14.417 -20.526  0.00  0.00    -0.269 OA
ATOM      2  O   UNL     1      32.770 -13.788 -24.847  0.00  0.00    -0.269 OA
ATOM      3  N   UNL     1      33.464 -13.696 -22.597  0.00  0.00    -0.216 N 
ATOM      4  C   UNL     1      33.994 -14.587 -21.689  0.00  0.00    +0.257 C 
ATOM      5  C   UNL     1      33.229 -14.271 -23.829  0.00  0.00    +0.255 C 
ATOM      6  C   UNL     1      34.122 -15.855 -22.408  0.00  0.00    +0.071 C 
ATOM      7  C   UNL     1      33.659 -15.663 -23.701  0.00  0.00    +0.060 C 
ATOM      8  C   UNL     1      34.598 -17.075 -21.976  0.00  0.00    +0.046 C 
ATOM      9  C   UNL     1      33.648 -16.683 -24.632  0.00  0.00    +0.005 C 
ATOM     10  C   UNL     1      34.597 -18.123 -22.901  0.00  0.00    +0.014 C 
ATOM     11  C   UNL     1      34.127 -17.929 -24.216  0.00  0.00    +0.001 C 
ENDROOT
BRANCH   3  15
ATOM     12  O   UNL     1      31.400 -13.164 -20.902  0.00  0.00    -0.273 OA
ATOM     13  O   UNL     1      30.871  -8.891 -22.534  0.00  0.00    -0.275 OA
ATOM     14  N   UNL     1      31.156 -11.044 -21.762  0.00  0.00    -0.254 N 
ATOM     15  C   UNL     1      33.186 -12.317 -22.295  0.00  0.00    +0.160 C 
ATOM     16  C   UNL     1      33.205 -11.462 -23.552  0.00  0.00    +0.039 C 
ATOM     17  C   UNL     1      32.875 -10.025 -23.189  0.00  0.00    +0.088 C 
ATOM     18  C   UNL     1      31.834 -12.253 -21.606  0.00  0.00    +0.247 C 
ATOM     19  C   UNL     1      31.540  -9.924 -22.492  0.00  0.00    +0.228 C 
ATOM     20  H   UNL     1      30.293 -10.975 -21.293  0.00  0.00    +0.158 HD
ENDBRANCH   3  15
BRANCH   8  21
ATOM     21  N   UNL     1      35.068 -17.281 -20.670  0.00  0.00    -0.357 N 
ATOM     22  H   UNL     1      35.554 -16.563 -20.203  0.00  0.00    +0.142 HD
ATOM     23  H   UNL     1      34.913 -18.142 -20.221  0.00  0.00    +0.142 HD
ENDBRANCH   8  21
TORSDOF 2
ENDMDL
MODEL 5
REMARK VINA RESULT:     -10.2      7.258     10.134
REMARK  Name = 134780
REMARK  2 active torsions:
REMARK  status: ('A' for Active; 'I' for Inactive)
REMARK    1  A    between atoms: N_3  and  C_15
REMARK    2  A    between atoms: C_8  and  N_21
REMARK                            x       y       z     vdW  Elec       q    Type
REMARK                         _______ _______ _______ _____ _____    ______ ____
ROOT
ATOM      1  O   UNL     1      34.308 -22.747 -16.923  0.00  0.00    -0.269 OA
ATOM      2  O   UNL     1      33.430 -24.134 -12.593  0.00  0.00    -0.269 OA
ATOM      3  N   UNL     1      34.281 -23.515 -14.701  0.00  0.00    -0.216 N 
ATOM      4  C   UNL     1      33.752 -23.028 -15.877  0.00  0.00    +0.257 C 
ATOM      5  C   UNL     1      33.321 -23.716 -13.731  0.00  0.00    +0.255 C 
ATOM      6  C   UNL     1      32.315 -22.894 -15.637  0.00  0.00    +0.071 C 
ATOM      7  C   UNL     1      32.055 -23.310 -14.340  0.00  0.00    +0.060 C 
ATOM      8  C   UNL     1      31.314 -22.449 -16.476  0.00  0.00    +0.046 C 
ATOM      9  C   UNL     1      30.780 -23.304 -13.813  0.00  0.00    +0.005 C 
ATOM     10  C   UNL     1      30.014 -22.434 -15.963  0.00  0.00    +0.014 C 
ATOM     11  C   UNL     1      29.749 -22.857 -14.646  0.00  0.00    +0.001 C 
ENDROOT
BRANCH   3  15
ATOM     12  O   UNL     1      35.236 -25.922 -15.541  0.00  0.00    -0.273 OA
ATOM     13  O   UNL     1      38.830 -25.747 -12.667  0.00  0.00    -0.275 OA
ATOM     14  N   UNL     1      37.006 -25.805 -14.074  0.00  0.00    -0.254 N 
ATOM     15  C   UNL     1      35.681 -23.783 -14.506  0.00  0.00    +0.160 C 
ATOM     16  C   UNL     1      36.131 -23.379 -13.111  0.00  0.00    +0.039 C 
ATOM     17  C   UNL     1      37.603 -23.710 -12.940  0.00  0.00    +0.088 C 
ATOM     18  C   UNL     1      35.912 -25.264 -14.750  0.00  0.00    +0.247 C 
ATOM     19  C   UNL     1      37.872 -25.175 -13.186  0.00  0.00    +0.228 C 
ATOM     20  H   UNL     1      37.188 -26.756 -14.249  0.00  0.00    +0.158 HD
ENDBRANCH   3  15
BRANCH   8  21
ATOM     21  N   UNL     1      31.565 -22.026 -17.791  0.00  0.00    -0.357 N 
ATOM     22  H   UNL     1      32.037 -21.177 -17.953  0.00  0.00    +0.142 HD
ATOM     23  H   UNL     1      31.269 -22.577 -18.550  0.00  0.00    +0.142 HD
ENDBRANCH   8  21
TORSDOF 2
ENDMDL
MODEL 6
REMARK VINA RESULT:     -10.1      5.577      9.504
REMARK  Name = 134780
REMARK  2 active torsions:
REMARK  status: ('A' for Active; 'I' for Inactive)
REMARK    1  A    between atoms: N_3  and  C_15
REMARK    2  A    between atoms: C_8  and  N_21
REMARK                            x       y       z     vdW  Elec       q    Type
REMARK                         _______ _______ _______ _____ _____    ______ ____
ROOT
ATOM      1  O   UNL     1      37.081 -21.764 -16.754  0.00  0.00    -0.269 OA
ATOM      2  O   UNL     1      33.116 -23.553 -15.169  0.00  0.00    -0.269 OA
ATOM      3  N   UNL     1      35.303 -22.801 -15.619  0.00  0.00    -0.216 N 
ATOM      4  C   UNL     1      35.915 -22.091 -16.629  0.00  0.00    +0.257 C 
ATOM      5  C   UNL     1      33.953 -22.979 -15.840  0.00  0.00    +0.255 C 
ATOM      6  C   UNL     1      34.856 -21.773 -17.587  0.00  0.00    +0.071 C 
ATOM      7  C   UNL     1      33.670 -22.310 -17.110  0.00  0.00    +0.060 C 
ATOM      8  C   UNL     1      34.917 -21.076 -18.776  0.00  0.00    +0.046 C 
ATOM      9  C   UNL     1      32.481 -22.179 -17.797  0.00  0.00    +0.005 C 
ATOM     10  C   UNL     1      33.723 -20.930 -19.489  0.00  0.00    +0.014 C 
ATOM     11  C   UNL     1      32.518 -21.476 -19.005  0.00  0.00    +0.001 C 
ENDROOT
BRANCH   3  15
ATOM     12  O   UNL     1      35.798 -25.476 -15.502  0.00  0.00    -0.273 OA
ATOM     13  O   UNL     1      36.167 -25.429 -10.912  0.00  0.00    -0.275 OA
ATOM     14  N   UNL     1      35.953 -25.412 -13.207  0.00  0.00    -0.254 N 
ATOM     15  C   UNL     1      35.994 -23.303 -14.462  0.00  0.00    +0.160 C 
ATOM     16  C   UNL     1      35.428 -22.710 -13.181  0.00  0.00    +0.039 C 
ATOM     17  C   UNL     1      36.164 -23.290 -11.988  0.00  0.00    +0.088 C 
ATOM     18  C   UNL     1      35.877 -24.816 -14.466  0.00  0.00    +0.247 C 
ATOM     19  C   UNL     1      36.078 -24.797 -11.965  0.00  0.00    +0.228 C 
ATOM     20  H   UNL     1      35.912 -26.395 -13.196  0.00  0.00    +0.158 HD
ENDBRANCH   3  15
BRANCH   8  21
ATOM     21  N   UNL     1      36.111 -20.528 -19.269  0.00  0.00    -0.357 N 
ATOM     22  H   UNL     1      36.749 -21.097 -19.757  0.00  0.00    +0.142 HD
ATOM     23  H   UNL     1      36.312 -19.575 -19.126  0.00  0.00    +0.142 HD
ENDBRANCH   8  21
TORSDOF 2
ENDMDL
MODEL 7
REMARK VINA RESULT:     -10.1      1.785      6.430
REMARK  Name = 134780
REMARK  2 active torsions:
REMARK  status: ('A' for Active; 'I' for Inactive)
REMARK    1  A    between atoms: N_3  and  C_15
REMARK    2  A    between atoms: C_8  and  N_21
REMARK                            x       y       z     vdW  Elec       q    Type
REMARK                         _______ _______ _______ _____ _____    ______ ____
ROOT
ATOM      1  O   UNL     1      34.451 -15.640 -20.686  0.00  0.00    -0.269 OA
ATOM      2  O   UNL     1      34.218 -17.283 -25.009  0.00  0.00    -0.269 OA
ATOM      3  N   UNL     1      34.489 -16.832 -22.712  0.00  0.00    -0.216 N 
ATOM      4  C   UNL     1      34.259 -15.756 -21.883  0.00  0.00    +0.257 C 
ATOM      5  C   UNL     1      34.145 -16.573 -24.023  0.00  0.00    +0.255 C 
ATOM      6  C   UNL     1      33.706 -14.708 -22.740  0.00  0.00    +0.071 C 
ATOM      7  C   UNL     1      33.637 -15.202 -24.033  0.00  0.00    +0.060 C 
ATOM      8  C   UNL     1      33.296 -13.428 -22.424  0.00  0.00    +0.046 C 
ATOM      9  C   UNL     1      33.156 -14.443 -25.081  0.00  0.00    +0.005 C 
ATOM     10  C   UNL     1      32.804 -12.641 -23.469  0.00  0.00    +0.014 C 
ATOM     11  C   UNL     1      32.735 -13.143 -24.784  0.00  0.00    +0.001 C 
ENDROOT
BRANCH   3  15
ATOM     12  O   UNL     1      32.780 -18.943 -22.512  0.00  0.00    -0.273 OA
ATOM     13  O   UNL     1      35.468 -21.113 -19.468  0.00  0.00    -0.275 OA
ATOM     14  N   UNL     1      34.143 -19.983 -20.977  0.00  0.00    -0.254 N 
ATOM     15  C   UNL     1      35.028 -18.088 -22.262  0.00  0.00    +0.160 C 
ATOM     16  C   UNL     1      35.938 -17.897 -21.059  0.00  0.00    +0.039 C 
ATOM     17  C   UNL     1      36.456 -19.248 -20.599  0.00  0.00    +0.088 C 
ATOM     18  C   UNL     1      33.864 -19.005 -21.931  0.00  0.00    +0.247 C 
ATOM     19  C   UNL     1      35.324 -20.191 -20.271  0.00  0.00    +0.228 C 
ATOM     20  H   UNL     1      33.408 -20.606 -20.776  0.00  0.00    +0.158 HD
ENDBRANCH   3  15
BRANCH   8  21
ATOM     21  N   UNL     1      33.362 -12.917 -21.118  0.00  0.00    -0.357 N 
ATOM     22  H   UNL     1      33.272 -11.949 -20.964  0.00  0.00    +0.142 HD
ATOM     23  H   UNL     1      33.498 -13.526 -20.358  0.00  0.00    +0.142 HD
ENDBRANCH   8  21
TORSDOF 2
ENDMDL
MODEL 8
REMARK VINA RESULT:      -9.9      7.574     10.214
REMARK  Name = 134780
REMARK  2 active torsions:
REMARK  status: ('A' for Active; 'I' for Inactive)
REMARK    1  A    between atoms: N_3  and  C_15
REMARK    2  A    between atoms: C_8  and  N_21
REMARK                            x       y       z     vdW  Elec       q    Type
REMARK                         _______ _______ _______ _____ _____    ______ ____
ROOT
ATOM      1  O   UNL     1      33.276 -24.126 -12.701  0.00  0.00    -0.269 OA
ATOM      2  O   UNL     1      34.309 -22.665 -16.972  0.00  0.00    -0.269 OA
ATOM      3  N   UNL     1      34.201 -23.478 -14.763  0.00  0.00    -0.216 N 
ATOM      4  C   UNL     1      33.203 -23.699 -13.839  0.00  0.00    +0.257 C 
ATOM      5  C   UNL     1      33.719 -22.976 -15.954  0.00  0.00    +0.255 C 
ATOM      6  C   UNL     1      31.958 -23.311 -14.502  0.00  0.00    +0.071 C 
ATOM      7  C   UNL     1      32.270 -22.873 -15.780  0.00  0.00    +0.060 C 
ATOM      8  C   UNL     1      30.660 -23.333 -14.034  0.00  0.00    +0.046 C 
ATOM      9  C   UNL     1      31.301 -22.435 -16.659  0.00  0.00    +0.005 C 
ATOM     10  C   UNL     1      29.661 -22.893 -14.908  0.00  0.00    +0.014 C 
ATOM     11  C   UNL     1      29.978 -22.448 -16.207  0.00  0.00    +0.001 C 
ENDROOT
BRANCH   3  15
ATOM     12  O   UNL     1      35.188 -25.895 -15.537  0.00  0.00    -0.273 OA
ATOM     13  O   UNL     1      38.675 -25.679 -12.539  0.00  0.00    -0.275 OA
ATOM     14  N   UNL     1      36.903 -25.756 -14.010  0.00  0.00    -0.254 N 
ATOM     15  C   UNL     1      35.593 -23.742 -14.514  0.00  0.00    +0.160 C 
ATOM     16  C   UNL     1      35.992 -23.319 -13.109  0.00  0.00    +0.039 C 
ATOM     17  C   UNL     1      37.456 -23.646 -12.881  0.00  0.00    +0.088 C 
ATOM     18  C   UNL     1      35.834 -25.226 -14.731  0.00  0.00    +0.247 C 
ATOM     19  C   UNL     1      37.736 -25.114 -13.099  0.00  0.00    +0.228 C 
ATOM     20  H   UNL     1      37.092 -26.709 -14.165  0.00  0.00    +0.158 HD
ENDBRANCH   3  15
BRANCH   8  21
ATOM     21  N   UNL     1      30.332 -23.773 -12.742  0.00  0.00    -0.357 N 
ATOM     22  H   UNL     1      29.388 -23.868 -12.479  0.00  0.00    +0.142 HD
ATOM     23  H   UNL     1      31.045 -23.985 -12.099  0.00  0.00    +0.142 HD
ENDBRANCH   8  21
TORSDOF 2
ENDMDL
MODEL 9
REMARK VINA RESULT:      -9.5      3.557      5.577
REMARK  Name = 134780
REMARK  2 active torsions:
REMARK  status: ('A' for Active; 'I' for Inactive)
REMARK    1  A    between atoms: N_3  and  C_15
REMARK    2  A    between atoms: C_8  and  N_21
REMARK                            x       y       z     vdW  Elec       q    Type
REMARK                         _______ _______ _______ _____ _____    ______ ____
ROOT
ATOM      1  O   UNL     1      32.892 -13.951 -24.410  0.00  0.00    -0.269 OA
ATOM      2  O   UNL     1      34.257 -14.083 -19.988  0.00  0.00    -0.269 OA
ATOM      3  N   UNL     1      33.446 -13.616 -22.150  0.00  0.00    -0.216 N 
ATOM      4  C   UNL     1      33.332 -14.312 -23.334  0.00  0.00    +0.257 C 
ATOM      5  C   UNL     1      34.007 -14.374 -21.142  0.00  0.00    +0.255 C 
ATOM      6  C   UNL     1      33.860 -15.649 -23.059  0.00  0.00    +0.071 C 
ATOM      7  C   UNL     1      34.269 -15.685 -21.735  0.00  0.00    +0.060 C 
ATOM      8  C   UNL     1      33.980 -16.743 -23.891  0.00  0.00    +0.046 C 
ATOM      9  C   UNL     1      34.818 -16.818 -21.171  0.00  0.00    +0.005 C 
ATOM     10  C   UNL     1      34.533 -17.903 -23.341  0.00  0.00    +0.014 C 
ATOM     11  C   UNL     1      34.949 -17.940 -21.995  0.00  0.00    +0.001 C 
ENDROOT
BRANCH   3  15
ATOM     12  O   UNL     1      31.306 -13.139 -20.536  0.00  0.00    -0.273 OA
ATOM     13  O   UNL     1      30.390  -9.112 -22.571  0.00  0.00    -0.275 OA
ATOM     14  N   UNL     1      30.871 -11.143 -21.595  0.00  0.00    -0.254 N 
ATOM     15  C   UNL     1      33.027 -12.250 -21.982  0.00  0.00    +0.160 C 
ATOM     16  C   UNL     1      32.988 -11.518 -23.314  0.00  0.00    +0.039 C 
ATOM     17  C   UNL     1      32.510 -10.095 -23.093  0.00  0.00    +0.088 C 
ATOM     18  C   UNL     1      31.662 -12.258 -21.318  0.00  0.00    +0.247 C 
ATOM     19  C   UNL     1      31.158 -10.063 -22.424  0.00  0.00    +0.228 C 
ATOM     20  H   UNL     1      29.996 -11.118 -21.144  0.00  0.00    +0.158 HD
ENDBRANCH   3  15
BRANCH   8  21
ATOM     21  N   UNL     1      33.570 -16.718 -25.233  0.00  0.00    -0.357 N 
ATOM     22  H   UNL     1      33.847 -17.437 -25.846  0.00  0.00    +0.142 HD
ATOM     23  H   UNL     1      33.008 -15.981 -25.562  0.00  0.00    +0.142 HD
ENDBRANCH   8  21
TORSDOF 2
ENDMDL
