MODEL 1
REMARK VINA RESULT:     -11.8      0.000      0.000
REMARK  Name = 25271556
REMARK  1 active torsions:
REMARK  status: ('A' for Active; 'I' for Inactive)
REMARK    1  A    between atoms: C_6  and  C_18
REMARK                            x       y       z     vdW  Elec       q    Type
REMARK                         _______ _______ _______ _____ _____    ______ ____
ROOT
ATOM      1  N   UNL     1      33.140 -15.030 -25.482  0.00  0.00    -0.332 NA
ATOM      2  N   UNL     1      33.227 -13.190 -23.928  0.00  0.00    -0.313 NA
ATOM      3  N   UNL     1      33.820 -13.497 -21.705  0.00  0.00    -0.332 N 
ATOM      4  N   UNL     1      32.624 -12.846 -26.166  0.00  0.00    -0.283 N 
ATOM      5  C   UNL     1      34.152 -16.330 -22.192  0.00  0.00    -0.016 C 
ATOM      6  C   UNL     1      34.297 -17.683 -22.482  0.00  0.00    -0.008 C 
ATOM      7  C   UNL     1      33.762 -15.432 -23.201  0.00  0.00    +0.067 C 
ATOM      8  C   UNL     1      33.513 -15.879 -24.509  0.00  0.00    +0.130 C 
ATOM      9  C   UNL     1      34.053 -18.137 -23.773  0.00  0.00    -0.019 C 
ATOM     10  C   UNL     1      33.665 -17.239 -24.771  0.00  0.00    +0.086 C 
ATOM     11  C   UNL     1      34.430 -15.909 -20.778  0.00  0.00    +0.031 C 
ATOM     12  C   UNL     1      33.600 -14.069 -22.978  0.00  0.00    +0.193 C 
ATOM     13  C   UNL     1      33.017 -13.732 -25.139  0.00  0.00    +0.197 C 
ATOM     14  H   UNL     1      33.698 -12.530 -21.571  0.00  0.00    +0.145 HD
ATOM     15  H   UNL     1      34.094 -14.068 -20.950  0.00  0.00    +0.145 HD
ATOM     16  H   UNL     1      32.456 -13.187 -27.073  0.00  0.00    +0.156 HD
ATOM     17  H   UNL     1      32.518 -11.886 -25.974  0.00  0.00    +0.156 HD
ENDROOT
BRANCH   6  18
ATOM     18  C   UNL     1      34.697 -18.645 -21.473  0.00  0.00    -0.001 C 
ATOM     19  C   UNL     1      36.027 -18.709 -21.059  0.00  0.00    -0.000 C 
ATOM     20  C   UNL     1      33.751 -19.507 -20.917  0.00  0.00    -0.000 C 
ATOM     21  C   UNL     1      36.412 -19.634 -20.088  0.00  0.00    -0.000 C 
ATOM     22  C   UNL     1      34.136 -20.432 -19.945  0.00  0.00    -0.000 C 
ATOM     23  C   UNL     1      35.466 -20.495 -19.531  0.00  0.00    -0.000 C 
ENDBRANCH   6  18
TORSDOF 1
ENDMDL
MODEL 2
REMARK VINA RESULT:     -11.4      5.090      7.949
REMARK  Name = 25271556
REMARK  1 active torsions:
REMARK  status: ('A' for Active; 'I' for Inactive)
REMARK    1  A    between atoms: C_6  and  C_18
REMARK                            x       y       z     vdW  Elec       q    Type
REMARK                         _______ _______ _______ _____ _____    ______ ____
ROOT
ATOM      1  N   UNL     1      35.219 -22.469 -17.028  0.00  0.00    -0.332 NA
ATOM      2  N   UNL     1      32.837 -22.771 -16.827  0.00  0.00    -0.313 NA
ATOM      3  N   UNL     1      31.346 -21.697 -18.246  0.00  0.00    -0.332 N 
ATOM      4  N   UNL     1      34.313 -23.869 -15.378  0.00  0.00    -0.283 N 
ATOM      5  C   UNL     1      33.564 -20.447 -19.619  0.00  0.00    -0.016 C 
ATOM      6  C   UNL     1      34.668 -19.873 -20.244  0.00  0.00    -0.008 C 
ATOM      7  C   UNL     1      33.746 -21.323 -18.535  0.00  0.00    +0.067 C 
ATOM      8  C   UNL     1      35.033 -21.633 -18.065  0.00  0.00    +0.130 C 
ATOM      9  C   UNL     1      35.947 -20.173 -19.787  0.00  0.00    -0.019 C 
ATOM     10  C   UNL     1      36.119 -21.044 -18.707  0.00  0.00    +0.086 C 
ATOM     11  C   UNL     1      32.215 -20.080 -20.164  0.00  0.00    +0.031 C 
ATOM     12  C   UNL     1      32.687 -21.929 -17.868  0.00  0.00    +0.193 C 
ATOM     13  C   UNL     1      34.111 -22.992 -16.466  0.00  0.00    +0.197 C 
ATOM     14  H   UNL     1      30.613 -22.138 -17.759  0.00  0.00    +0.145 HD
ATOM     15  H   UNL     1      31.145 -21.093 -18.998  0.00  0.00    +0.145 HD
ATOM     16  H   UNL     1      35.227 -24.068 -15.069  0.00  0.00    +0.156 HD
ATOM     17  H   UNL     1      33.541 -24.282 -14.927  0.00  0.00    +0.156 HD
ENDROOT
BRANCH   6  18
ATOM     18  C   UNL     1      34.529 -18.965 -21.366  0.00  0.00    -0.001 C 
ATOM     19  C   UNL     1      34.084 -19.443 -22.598  0.00  0.00    -0.000 C 
ATOM     20  C   UNL     1      34.839 -17.614 -21.212  0.00  0.00    -0.000 C 
ATOM     21  C   UNL     1      33.950 -18.569 -23.678  0.00  0.00    -0.000 C 
ATOM     22  C   UNL     1      34.703 -16.740 -22.291  0.00  0.00    -0.000 C 
ATOM     23  C   UNL     1      34.259 -17.217 -23.524  0.00  0.00    -0.000 C 
ENDBRANCH   6  18
TORSDOF 1
ENDMDL
MODEL 3
REMARK VINA RESULT:     -10.7      3.139      6.958
REMARK  Name = 25271556
REMARK  1 active torsions:
REMARK  status: ('A' for Active; 'I' for Inactive)
REMARK    1  A    between atoms: C_6  and  C_18
REMARK                            x       y       z     vdW  Elec       q    Type
REMARK                         _______ _______ _______ _____ _____    ______ ____
ROOT
ATOM      1  N   UNL     1      34.737 -16.532 -20.949  0.00  0.00    -0.332 NA
ATOM      2  N   UNL     1      34.772 -17.117 -23.287  0.00  0.00    -0.313 NA
ATOM      3  N   UNL     1      33.905 -15.703 -24.911  0.00  0.00    -0.332 N 
ATOM      4  N   UNL     1      35.654 -18.567 -21.672  0.00  0.00    -0.283 N 
ATOM      5  C   UNL     1      33.192 -13.793 -22.860  0.00  0.00    -0.016 C 
ATOM      6  C   UNL     1      32.871 -12.910 -21.832  0.00  0.00    -0.008 C 
ATOM      7  C   UNL     1      33.821 -15.015 -22.565  0.00  0.00    +0.067 C 
ATOM      8  C   UNL     1      34.135 -15.366 -21.243  0.00  0.00    +0.130 C 
ATOM      9  C   UNL     1      33.178 -13.246 -20.519  0.00  0.00    -0.019 C 
ATOM     10  C   UNL     1      33.803 -14.464 -20.234  0.00  0.00    +0.086 C 
ATOM     11  C   UNL     1      32.833 -13.366 -24.253  0.00  0.00    +0.031 C 
ATOM     12  C   UNL     1      34.169 -15.940 -23.544  0.00  0.00    +0.193 C 
ATOM     13  C   UNL     1      35.022 -17.344 -21.987  0.00  0.00    +0.197 C 
ATOM     14  H   UNL     1      34.160 -16.373 -25.586  0.00  0.00    +0.145 HD
ATOM     15  H   UNL     1      33.465 -14.867 -25.190  0.00  0.00    +0.145 HD
ATOM     16  H   UNL     1      35.862 -18.787 -20.736  0.00  0.00    +0.156 HD
ATOM     17  H   UNL     1      35.886 -19.200 -22.389  0.00  0.00    +0.156 HD
ENDROOT
BRANCH   6  18
ATOM     18  C   UNL     1      32.222 -11.639 -22.088  0.00  0.00    -0.001 C 
ATOM     19  C   UNL     1      31.018 -11.331 -21.455  0.00  0.00    -0.000 C 
ATOM     20  C   UNL     1      32.802 -10.724 -22.968  0.00  0.00    -0.000 C 
ATOM     21  C   UNL     1      30.393 -10.108 -21.702  0.00  0.00    -0.000 C 
ATOM     22  C   UNL     1      32.178  -9.501 -23.213  0.00  0.00    -0.000 C 
ATOM     23  C   UNL     1      30.973  -9.192 -22.580  0.00  0.00    -0.000 C 
ENDBRANCH   6  18
TORSDOF 1
ENDMDL
MODEL 4
REMARK VINA RESULT:     -10.6      1.338      2.743
REMARK  Name = 25271556
REMARK  1 active torsions:
REMARK  status: ('A' for Active; 'I' for Inactive)
REMARK    1  A    between atoms: C_6  and  C_18
REMARK                            x       y       z     vdW  Elec       q    Type
REMARK                         _______ _______ _______ _____ _____    ______ ____
ROOT
ATOM      1  N   UNL     1      32.993 -12.154 -22.068  0.00  0.00    -0.332 NA
ATOM      2  N   UNL     1      32.763 -12.541 -24.435  0.00  0.00    -0.313 NA
ATOM      3  N   UNL     1      33.256 -14.598 -25.390  0.00  0.00    -0.332 N 
ATOM      4  N   UNL     1      32.257 -10.452 -23.504  0.00  0.00    -0.283 N 
ATOM      5  C   UNL     1      33.960 -15.632 -22.782  0.00  0.00    -0.016 C 
ATOM      6  C   UNL     1      34.285 -16.078 -21.504  0.00  0.00    -0.008 C 
ATOM      7  C   UNL     1      33.524 -14.310 -22.976  0.00  0.00    +0.067 C 
ATOM      8  C   UNL     1      33.409 -13.421 -21.895  0.00  0.00    +0.130 C 
ATOM      9  C   UNL     1      34.176 -15.207 -20.426  0.00  0.00    -0.019 C 
ATOM     10  C   UNL     1      33.742 -13.893 -20.627  0.00  0.00    +0.086 C 
ATOM     11  C   UNL     1      34.101 -16.625 -23.899  0.00  0.00    +0.031 C 
ATOM     12  C   UNL     1      33.182 -13.803 -24.225  0.00  0.00    +0.193 C 
ATOM     13  C   UNL     1      32.693 -11.783 -23.329  0.00  0.00    +0.197 C 
ATOM     14  H   UNL     1      33.010 -14.217 -26.264  0.00  0.00    +0.145 HD
ATOM     15  H   UNL     1      33.554 -15.535 -25.328  0.00  0.00    +0.145 HD
ATOM     16  H   UNL     1      32.187  -9.850 -22.729  0.00  0.00    +0.156 HD
ATOM     17  H   UNL     1      32.024 -10.124 -24.403  0.00  0.00    +0.156 HD
ENDROOT
BRANCH   6  18
ATOM     18  C   UNL     1      34.739 -17.433 -21.256  0.00  0.00    -0.001 C 
ATOM     19  C   UNL     1      36.101 -17.731 -21.301  0.00  0.00    -0.000 C 
ATOM     20  C   UNL     1      33.814 -18.437 -20.973  0.00  0.00    -0.000 C 
ATOM     21  C   UNL     1      36.537 -19.034 -21.063  0.00  0.00    -0.000 C 
ATOM     22  C   UNL     1      34.250 -19.741 -20.734  0.00  0.00    -0.000 C 
ATOM     23  C   UNL     1      35.612 -20.039 -20.779  0.00  0.00    -0.000 C 
ENDBRANCH   6  18
TORSDOF 1
ENDMDL
MODEL 5
REMARK VINA RESULT:     -10.2      6.537      9.355
REMARK  Name = 25271556
REMARK  1 active torsions:
REMARK  status: ('A' for Active; 'I' for Inactive)
REMARK    1  A    between atoms: C_6  and  C_18
REMARK                            x       y       z     vdW  Elec       q    Type
REMARK                         _______ _______ _______ _____ _____    ______ ____
ROOT
ATOM      1  N   UNL     1      34.118 -21.091 -18.890  0.00  0.00    -0.332 NA
ATOM      2  N   UNL     1      31.992 -21.966 -18.171  0.00  0.00    -0.313 NA
ATOM      3  N   UNL     1      31.773 -23.181 -16.206  0.00  0.00    -0.332 N 
ATOM      4  N   UNL     1      32.178 -20.745 -20.162  0.00  0.00    -0.283 N 
ATOM      5  C   UNL     1      34.607 -22.878 -15.711  0.00  0.00    -0.016 C 
ATOM      6  C   UNL     1      35.975 -22.701 -15.522  0.00  0.00    -0.008 C 
ATOM      7  C   UNL     1      33.978 -22.336 -16.845  0.00  0.00    +0.067 C 
ATOM      8  C   UNL     1      34.710 -21.614 -17.801  0.00  0.00    +0.130 C 
ATOM      9  C   UNL     1      36.709 -21.987 -16.462  0.00  0.00    -0.019 C 
ATOM     10  C   UNL     1      36.077 -21.453 -17.588  0.00  0.00    +0.086 C 
ATOM     11  C   UNL     1      33.876 -23.659 -14.658  0.00  0.00    +0.031 C 
ATOM     12  C   UNL     1      32.616 -22.476 -17.092  0.00  0.00    +0.193 C 
ATOM     13  C   UNL     1      32.792 -21.296 -19.016  0.00  0.00    +0.197 C 
ATOM     14  H   UNL     1      30.812 -23.268 -16.402  0.00  0.00    +0.145 HD
ATOM     15  H   UNL     1      32.147 -23.588 -15.390  0.00  0.00    +0.145 HD
ATOM     16  H   UNL     1      32.716 -20.244 -20.816  0.00  0.00    +0.156 HD
ATOM     17  H   UNL     1      31.211 -20.863 -20.307  0.00  0.00    +0.156 HD
ENDROOT
BRANCH   6  18
ATOM     18  C   UNL     1      36.666 -23.242 -14.368  0.00  0.00    -0.001 C 
ATOM     19  C   UNL     1      36.565 -22.602 -13.132  0.00  0.00    -0.000 C 
ATOM     20  C   UNL     1      37.431 -24.401 -14.492  0.00  0.00    -0.000 C 
ATOM     21  C   UNL     1      37.230 -23.122 -12.021  0.00  0.00    -0.000 C 
ATOM     22  C   UNL     1      38.095 -24.922 -13.381  0.00  0.00    -0.000 C 
ATOM     23  C   UNL     1      37.995 -24.282 -12.146  0.00  0.00    -0.000 C 
ENDBRANCH   6  18
TORSDOF 1
ENDMDL
MODEL 6
REMARK VINA RESULT:     -10.1      5.237      7.802
REMARK  Name = 25271556
REMARK  1 active torsions:
REMARK  status: ('A' for Active; 'I' for Inactive)
REMARK    1  A    between atoms: C_6  and  C_18
REMARK                            x       y       z     vdW  Elec       q    Type
REMARK                         _______ _______ _______ _____ _____    ______ ____
ROOT
ATOM      1  N   UNL     1      32.563 -22.419 -17.402  0.00  0.00    -0.332 NA
ATOM      2  N   UNL     1      34.869 -22.641 -16.736  0.00  0.00    -0.313 NA
ATOM      3  N   UNL     1      36.570 -21.502 -17.829  0.00  0.00    -0.332 N 
ATOM      4  N   UNL     1      33.175 -23.806 -15.612  0.00  0.00    -0.283 N 
ATOM      5  C   UNL     1      34.623 -20.313 -19.607  0.00  0.00    -0.016 C 
ATOM      6  C   UNL     1      33.644 -19.769 -20.435  0.00  0.00    -0.008 C 
ATOM      7  C   UNL     1      34.262 -21.206 -18.584  0.00  0.00    +0.067 C 
ATOM      8  C   UNL     1      32.920 -21.565 -18.378  0.00  0.00    +0.130 C 
ATOM      9  C   UNL     1      32.312 -20.117 -20.240  0.00  0.00    -0.019 C 
ATOM     10  C   UNL     1      31.962 -21.008 -19.221  0.00  0.00    +0.086 C 
ATOM     11  C   UNL     1      36.040 -19.894 -19.873  0.00  0.00    +0.031 C 
ATOM     12  C   UNL     1      35.190 -21.783 -17.723  0.00  0.00    +0.193 C 
ATOM     13  C   UNL     1      33.557 -22.911 -16.635  0.00  0.00    +0.197 C 
ATOM     14  H   UNL     1      37.208 -21.923 -17.209  0.00  0.00    +0.145 HD
ATOM     15  H   UNL     1      36.895 -20.884 -18.525  0.00  0.00    +0.145 HD
ATOM     16  H   UNL     1      32.227 -24.041 -15.492  0.00  0.00    +0.156 HD
ATOM     17  H   UNL     1      33.858 -24.198 -15.020  0.00  0.00    +0.156 HD
ENDROOT
BRANCH   6  18
ATOM     18  C   UNL     1      33.969 -18.844 -21.503  0.00  0.00    -0.001 C 
ATOM     19  C   UNL     1      33.652 -19.164 -22.823  0.00  0.00    -0.000 C 
ATOM     20  C   UNL     1      34.600 -17.635 -21.210  0.00  0.00    -0.000 C 
ATOM     21  C   UNL     1      33.965 -18.273 -23.850  0.00  0.00    -0.000 C 
ATOM     22  C   UNL     1      34.912 -16.744 -22.237  0.00  0.00    -0.000 C 
ATOM     23  C   UNL     1      34.595 -17.063 -23.558  0.00  0.00    -0.000 C 
ENDBRANCH   6  18
TORSDOF 1
ENDMDL
MODEL 7
REMARK VINA RESULT:     -10.0      6.520      9.224
REMARK  Name = 25271556
REMARK  1 active torsions:
REMARK  status: ('A' for Active; 'I' for Inactive)
REMARK    1  A    between atoms: C_6  and  C_18
REMARK                            x       y       z     vdW  Elec       q    Type
REMARK                         _______ _______ _______ _____ _____    ______ ____
ROOT
ATOM      1  N   UNL     1      32.355 -22.066 -18.131  0.00  0.00    -0.332 NA
ATOM      2  N   UNL     1      34.089 -20.886 -19.317  0.00  0.00    -0.313 NA
ATOM      3  N   UNL     1      36.262 -20.773 -18.508  0.00  0.00    -0.332 N 
ATOM      4  N   UNL     1      31.906 -20.979 -20.161  0.00  0.00    -0.283 N 
ATOM      5  C   UNL     1      35.483 -22.352 -16.214  0.00  0.00    -0.016 C 
ATOM      6  C   UNL     1      35.054 -23.115 -15.131  0.00  0.00    -0.008 C 
ATOM      7  C   UNL     1      34.576 -21.997 -17.227  0.00  0.00    +0.067 C 
ATOM      8  C   UNL     1      33.232 -22.400 -17.167  0.00  0.00    +0.130 C 
ATOM      9  C   UNL     1      33.725 -23.520 -15.061  0.00  0.00    -0.019 C 
ATOM     10  C   UNL     1      32.829 -23.161 -16.073  0.00  0.00    +0.086 C 
ATOM     11  C   UNL     1      36.929 -21.950 -16.225  0.00  0.00    +0.031 C 
ATOM     12  C   UNL     1      34.940 -21.238 -18.334  0.00  0.00    +0.193 C 
ATOM     13  C   UNL     1      32.832 -21.326 -19.153  0.00  0.00    +0.197 C 
ATOM     14  H   UNL     1      36.496 -20.237 -19.300  0.00  0.00    +0.145 HD
ATOM     15  H   UNL     1      36.950 -20.984 -17.836  0.00  0.00    +0.145 HD
ATOM     16  H   UNL     1      30.969 -21.275 -20.092  0.00  0.00    +0.156 HD
ATOM     17  H   UNL     1      32.196 -20.440 -20.932  0.00  0.00    +0.156 HD
ENDROOT
BRANCH   6  18
ATOM     18  C   UNL     1      35.954 -23.505 -14.063  0.00  0.00    -0.001 C 
ATOM     19  C   UNL     1      36.706 -24.674 -14.177  0.00  0.00    -0.000 C 
ATOM     20  C   UNL     1      36.067 -22.712 -12.921  0.00  0.00    -0.000 C 
ATOM     21  C   UNL     1      37.572 -25.049 -13.150  0.00  0.00    -0.000 C 
ATOM     22  C   UNL     1      36.933 -23.087 -11.894  0.00  0.00    -0.000 C 
ATOM     23  C   UNL     1      37.686 -24.255 -12.008  0.00  0.00    -0.000 C 
ENDBRANCH   6  18
TORSDOF 1
ENDMDL
MODEL 8
REMARK VINA RESULT:      -9.9      7.884     10.757
REMARK  Name = 25271556
REMARK  1 active torsions:
REMARK  status: ('A' for Active; 'I' for Inactive)
REMARK    1  A    between atoms: C_6  and  C_18
REMARK                            x       y       z     vdW  Elec       q    Type
REMARK                         _______ _______ _______ _____ _____    ______ ____
ROOT
ATOM      1  N   UNL     1      37.538 -23.385 -13.742  0.00  0.00    -0.332 NA
ATOM      2  N   UNL     1      35.536 -24.418 -12.887  0.00  0.00    -0.313 NA
ATOM      3  N   UNL     1      33.508 -24.259 -14.004  0.00  0.00    -0.332 N 
ATOM      4  N   UNL     1      37.567 -24.597 -11.734  0.00  0.00    -0.283 N 
ATOM      5  C   UNL     1      34.776 -22.679 -16.069  0.00  0.00    -0.016 C 
ATOM      6  C   UNL     1      35.438 -21.925 -17.034  0.00  0.00    -0.008 C 
ATOM      7  C   UNL     1      35.482 -23.173 -14.958  0.00  0.00    +0.067 C 
ATOM      8  C   UNL     1      36.853 -22.918 -14.801  0.00  0.00    +0.130 C 
ATOM      9  C   UNL     1      36.796 -21.665 -16.889  0.00  0.00    -0.019 C 
ATOM     10  C   UNL     1      37.489 -22.159 -15.780  0.00  0.00    +0.086 C 
ATOM     11  C   UNL     1      33.311 -22.921 -16.289  0.00  0.00    +0.031 C 
ATOM     12  C   UNL     1      34.881 -23.934 -13.960  0.00  0.00    +0.193 C 
ATOM     13  C   UNL     1      36.842 -24.109 -12.843  0.00  0.00    +0.197 C 
ATOM     14  H   UNL     1      33.105 -24.798 -13.286  0.00  0.00    +0.145 HD
ATOM     15  H   UNL     1      32.952 -23.944 -14.754  0.00  0.00    +0.145 HD
ATOM     16  H   UNL     1      38.528 -24.401 -11.649  0.00  0.00    +0.156 HD
ATOM     17  H   UNL     1      37.111 -25.132 -11.044  0.00  0.00    +0.156 HD
ENDROOT
BRANCH   6  18
ATOM     18  C   UNL     1      34.751 -21.395 -18.196  0.00  0.00    -0.001 C 
ATOM     19  C   UNL     1      35.467 -20.706 -19.175  0.00  0.00    -0.000 C 
ATOM     20  C   UNL     1      33.375 -21.574 -18.336  0.00  0.00    -0.000 C 
ATOM     21  C   UNL     1      34.807 -20.196 -20.293  0.00  0.00    -0.000 C 
ATOM     22  C   UNL     1      32.715 -21.065 -19.454  0.00  0.00    -0.000 C 
ATOM     23  C   UNL     1      33.431 -20.376 -20.433  0.00  0.00    -0.000 C 
ENDBRANCH   6  18
TORSDOF 1
ENDMDL
MODEL 9
REMARK VINA RESULT:      -9.8      8.767     10.767
REMARK  Name = 25271556
REMARK  1 active torsions:
REMARK  status: ('A' for Active; 'I' for Inactive)
REMARK    1  A    between atoms: C_6  and  C_18
REMARK                            x       y       z     vdW  Elec       q    Type
REMARK                         _______ _______ _______ _____ _____    ______ ____
ROOT
ATOM      1  N   UNL     1      29.270 -23.009 -14.562  0.00  0.00    -0.332 NA
ATOM      2  N   UNL     1      29.458 -22.081 -16.778  0.00  0.00    -0.313 NA
ATOM      3  N   UNL     1      31.509 -21.880 -17.847  0.00  0.00    -0.332 N 
ATOM      4  N   UNL     1      27.373 -22.268 -15.726  0.00  0.00    -0.283 N 
ATOM      5  C   UNL     1      32.817 -23.038 -15.542  0.00  0.00    -0.016 C 
ATOM      6  C   UNL     1      33.395 -23.599 -14.406  0.00  0.00    -0.008 C 
ATOM      7  C   UNL     1      31.427 -22.837 -15.598  0.00  0.00    +0.067 C 
ATOM      8  C   UNL     1      30.602 -23.196 -14.520  0.00  0.00    +0.130 C 
ATOM      9  C   UNL     1      32.587 -23.959 -13.333  0.00  0.00    -0.019 C 
ATOM     10  C   UNL     1      31.205 -23.755 -13.396  0.00  0.00    +0.086 C 
ATOM     11  C   UNL     1      33.747 -22.673 -16.662  0.00  0.00    +0.031 C 
ATOM     12  C   UNL     1      30.788 -22.282 -16.701  0.00  0.00    +0.193 C 
ATOM     13  C   UNL     1      28.772 -22.461 -15.689  0.00  0.00    +0.197 C 
ATOM     14  H   UNL     1      31.035 -21.489 -18.616  0.00  0.00    +0.145 HD
ATOM     15  H   UNL     1      32.487 -21.990 -17.877  0.00  0.00    +0.145 HD
ATOM     16  H   UNL     1      26.819 -22.528 -14.956  0.00  0.00    +0.156 HD
ATOM     17  H   UNL     1      26.952 -21.871 -16.523  0.00  0.00    +0.156 HD
ENDROOT
BRANCH   6  18
ATOM     18  C   UNL     1      34.823 -23.825 -14.304  0.00  0.00    -0.001 C 
ATOM     19  C   UNL     1      35.372 -25.032 -14.736  0.00  0.00    -0.000 C 
ATOM     20  C   UNL     1      35.650 -22.833 -13.774  0.00  0.00    -0.000 C 
ATOM     21  C   UNL     1      36.746 -25.249 -14.637  0.00  0.00    -0.000 C 
ATOM     22  C   UNL     1      37.025 -23.050 -13.677  0.00  0.00    -0.000 C 
ATOM     23  C   UNL     1      37.573 -24.257 -14.108  0.00  0.00    -0.000 C 
ENDBRANCH   6  18
TORSDOF 1
ENDMDL
