MODEL 1
REMARK VINA RESULT:     -10.9      0.000      0.000
REMARK  Name = 11683556
REMARK  4 active torsions:
REMARK  status: ('A' for Active; 'I' for Inactive)
REMARK    1  A    between atoms: C_1  and  C_10
REMARK    2  A    between atoms: C_3  and  O_28
REMARK    3  A    between atoms: C_4  and  N_15
REMARK    4  A    between atoms: N_16  and  C_22
REMARK                            x       y       z     vdW  Elec       q    Type
REMARK                         _______ _______ _______ _____ _____    ______ ____
ROOT
ATOM      1  C   UNL     1      34.994 -23.873 -14.693  0.00  0.00    +0.051 C 
ATOM      2  C   UNL     1      35.517 -23.121 -15.745  0.00  0.00    +0.019 C 
ATOM      3  C   UNL     1      33.615 -23.926 -14.492  0.00  0.00    +0.140 C 
ATOM      4  C   UNL     1      34.661 -22.422 -16.596  0.00  0.00    +0.052 C 
ATOM      5  C   UNL     1      32.759 -23.227 -15.343  0.00  0.00    +0.038 C 
ATOM      6  C   UNL     1      33.282 -22.475 -16.395  0.00  0.00    +0.018 C 
ENDROOT
BRANCH   1  10
ATOM      7 BR   UNL     1      36.122 -22.739 -11.546  0.00  0.00    -0.046 Br
ATOM      8  N   UNL     1      36.424 -25.810 -14.127  0.00  0.00    -0.209 N 
ATOM      9  N   UNL     1      37.242 -26.301 -13.180  0.00  0.00    -0.176 NA
ATOM     10  C   UNL     1      35.897 -24.589 -13.823  0.00  0.00    +0.080 C 
ATOM     11  C   UNL     1      36.405 -24.259 -12.589  0.00  0.00    +0.070 C 
ATOM     12  C   UNL     1      36.195 -26.589 -15.322  0.00  0.00    +0.140 C 
ATOM     13  C   UNL     1      37.225 -25.350 -12.243  0.00  0.00    +0.126 C 
ENDBRANCH   1  10
BRANCH   4  15
ATOM     14  O   UNL     1      33.268 -20.956 -18.793  0.00  0.00    -0.252 OA
ATOM     15  N   UNL     1      35.183 -21.669 -17.648  0.00  0.00    -0.268 N 
ATOM     16  N   UNL     1      35.404 -20.350 -19.531  0.00  0.00    -0.266 N 
ATOM     17  C   UNL     1      34.489 -20.985 -18.675  0.00  0.00    +0.308 C 
ATOM     18  H   UNL     1      36.165 -21.604 -17.680  0.00  0.00    +0.156 HD
ATOM     19  H   UNL     1      36.356 -20.464 -19.307  0.00  0.00    +0.156 HD
BRANCH  16  22
ATOM     20  F   UNL     1      37.122 -18.326 -20.342  0.00  0.00    -0.203 F 
ATOM     21  F   UNL     1      34.306 -17.294 -24.001  0.00  0.00    -0.204 F 
ATOM     22  C   UNL     1      35.125 -19.567 -20.677  0.00  0.00    +0.079 C 
ATOM     23  C   UNL     1      36.008 -18.566 -21.047  0.00  0.00    +0.156 C 
ATOM     24  C   UNL     1      33.972 -19.818 -21.402  0.00  0.00    +0.019 C 
ATOM     25  C   UNL     1      35.730 -17.795 -22.175  0.00  0.00    +0.061 C 
ATOM     26  C   UNL     1      33.694 -19.047 -22.530  0.00  0.00    +0.031 C 
ATOM     27  C   UNL     1      34.574 -18.034 -22.917  0.00  0.00    +0.142 C 
ENDBRANCH  16  22
ENDBRANCH   4  15
BRANCH   3  28
ATOM     28  O   UNL     1      33.077 -24.653 -13.471  0.00  0.00    -0.471 OA
ATOM     29  C   UNL     1      31.657 -24.652 -13.356  0.00  0.00    +0.252 C 
ENDBRANCH   3  28
TORSDOF 4
ENDMDL
MODEL 2
REMARK VINA RESULT:     -10.5      1.781      2.272
REMARK  Name = 11683556
REMARK  4 active torsions:
REMARK  status: ('A' for Active; 'I' for Inactive)
REMARK    1  A    between atoms: C_1  and  C_10
REMARK    2  A    between atoms: C_3  and  O_28
REMARK    3  A    between atoms: C_4  and  N_15
REMARK    4  A    between atoms: N_16  and  C_22
REMARK                            x       y       z     vdW  Elec       q    Type
REMARK                         _______ _______ _______ _____ _____    ______ ____
ROOT
ATOM      1  C   UNL     1      35.644 -24.244 -14.058  0.00  0.00    +0.051 C 
ATOM      2  C   UNL     1      35.358 -23.686 -15.304  0.00  0.00    +0.019 C 
ATOM      3  C   UNL     1      34.692 -24.201 -13.040  0.00  0.00    +0.140 C 
ATOM      4  C   UNL     1      34.119 -23.087 -15.532  0.00  0.00    +0.052 C 
ATOM      5  C   UNL     1      33.453 -23.602 -13.268  0.00  0.00    +0.038 C 
ATOM      6  C   UNL     1      33.167 -23.044 -14.514  0.00  0.00    +0.018 C 
ENDROOT
BRANCH   1  10
ATOM      7 BR   UNL     1      38.193 -22.962 -11.978  0.00  0.00    -0.046 Br
ATOM      8  N   UNL     1      37.314 -26.030 -14.427  0.00  0.00    -0.209 N 
ATOM      9  N   UNL     1      38.553 -26.428 -14.091  0.00  0.00    -0.176 NA
ATOM     10  C   UNL     1      36.933 -24.859 -13.841  0.00  0.00    +0.080 C 
ATOM     11  C   UNL     1      37.996 -24.465 -13.066  0.00  0.00    +0.070 C 
ATOM     12  C   UNL     1      36.543 -26.845 -15.338  0.00  0.00    +0.140 C 
ATOM     13  C   UNL     1      38.964 -25.469 -13.259  0.00  0.00    +0.126 C 
ENDBRANCH   1  10
BRANCH   4  15
ATOM     14  O   UNL     1      35.708 -21.192 -17.206  0.00  0.00    -0.252 OA
ATOM     15  N   UNL     1      33.832 -22.528 -16.778  0.00  0.00    -0.268 N 
ATOM     16  N   UNL     1      33.949 -21.319 -18.742  0.00  0.00    -0.266 N 
ATOM     17  C   UNL     1      34.613 -21.630 -17.545  0.00  0.00    +0.308 C 
ATOM     18  H   UNL     1      32.972 -22.795 -17.178  0.00  0.00    +0.156 HD
ATOM     19  H   UNL     1      33.073 -21.749 -18.875  0.00  0.00    +0.156 HD
BRANCH  16  22
ATOM     20  F   UNL     1      32.154 -20.255 -20.573  0.00  0.00    -0.203 F 
ATOM     21  F   UNL     1      35.652 -17.977 -22.798  0.00  0.00    -0.204 F 
ATOM     22  C   UNL     1      34.383 -20.462 -19.781  0.00  0.00    +0.079 C 
ATOM     23  C   UNL     1      33.455 -19.952 -20.675  0.00  0.00    +0.156 C 
ATOM     24  C   UNL     1      35.729 -20.151 -19.883  0.00  0.00    +0.019 C 
ATOM     25  C   UNL     1      33.886 -19.110 -21.699  0.00  0.00    +0.061 C 
ATOM     26  C   UNL     1      36.160 -19.308 -20.907  0.00  0.00    +0.031 C 
ATOM     27  C   UNL     1      35.238 -18.787 -21.816  0.00  0.00    +0.142 C 
ENDBRANCH  16  22
ENDBRANCH   4  15
BRANCH   3  28
ATOM     28  O   UNL     1      34.945 -24.738 -11.812  0.00  0.00    -0.471 OA
ATOM     29  C   UNL     1      35.086 -23.828 -10.724  0.00  0.00    +0.252 C 
ENDBRANCH   3  28
TORSDOF 4
ENDMDL
MODEL 3
REMARK VINA RESULT:     -10.1      9.871     14.992
REMARK  Name = 11683556
REMARK  4 active torsions:
REMARK  status: ('A' for Active; 'I' for Inactive)
REMARK    1  A    between atoms: C_1  and  C_10
REMARK    2  A    between atoms: C_3  and  O_28
REMARK    3  A    between atoms: C_4  and  N_15
REMARK    4  A    between atoms: N_16  and  C_22
REMARK                            x       y       z     vdW  Elec       q    Type
REMARK                         _______ _______ _______ _____ _____    ______ ____
ROOT
ATOM      1  C   UNL     1      32.145  -8.300 -22.760  0.00  0.00    +0.051 C 
ATOM      2  C   UNL     1      32.637  -9.504 -23.263  0.00  0.00    +0.019 C 
ATOM      3  C   UNL     1      31.342  -8.297 -21.619  0.00  0.00    +0.140 C 
ATOM      4  C   UNL     1      32.328 -10.706 -22.624  0.00  0.00    +0.052 C 
ATOM      5  C   UNL     1      31.033  -9.499 -20.981  0.00  0.00    +0.038 C 
ATOM      6  C   UNL     1      31.525 -10.703 -21.484  0.00  0.00    +0.018 C 
ENDROOT
BRANCH   1  10
ATOM      7 BR   UNL     1      30.455  -6.998 -25.572  0.00  0.00    -0.046 Br
ATOM      8  N   UNL     1      33.499  -6.251 -23.051  0.00  0.00    -0.209 N 
ATOM      9  N   UNL     1      33.636  -5.154 -23.814  0.00  0.00    -0.176 NA
ATOM     10  C   UNL     1      32.476  -7.067 -23.435  0.00  0.00    +0.080 C 
ATOM     11  C   UNL     1      31.902  -6.460 -24.526  0.00  0.00    +0.070 C 
ATOM     12  C   UNL     1      34.411  -6.451 -21.947  0.00  0.00    +0.140 C 
ATOM     13  C   UNL     1      32.658  -5.287 -24.713  0.00  0.00    +0.126 C 
ENDBRANCH   1  10
BRANCH   4  15
ATOM     14  O   UNL     1      32.895 -13.287 -21.233  0.00  0.00    -0.252 OA
ATOM     15  N   UNL     1      32.819 -11.911 -23.127  0.00  0.00    -0.268 N 
ATOM     16  N   UNL     1      33.566 -14.087 -23.326  0.00  0.00    -0.266 N 
ATOM     17  C   UNL     1      33.076 -13.119 -22.435  0.00  0.00    +0.308 C 
ATOM     18  H   UNL     1      33.013 -11.923 -24.093  0.00  0.00    +0.156 HD
ATOM     19  H   UNL     1      33.659 -13.804 -24.264  0.00  0.00    +0.156 HD
BRANCH  16  22
ATOM     20  F   UNL     1      33.187 -16.118 -25.180  0.00  0.00    -0.203 F 
ATOM     21  F   UNL     1      35.043 -19.291 -22.202  0.00  0.00    -0.204 F 
ATOM     22  C   UNL     1      33.945 -15.421 -23.040  0.00  0.00    +0.079 C 
ATOM     23  C   UNL     1      33.738 -16.405 -23.993  0.00  0.00    +0.156 C 
ATOM     24  C   UNL     1      34.514 -15.713 -21.812  0.00  0.00    +0.019 C 
ATOM     25  C   UNL     1      34.110 -17.719 -23.707  0.00  0.00    +0.061 C 
ATOM     26  C   UNL     1      34.887 -17.026 -21.527  0.00  0.00    +0.031 C 
ATOM     27  C   UNL     1      34.685 -18.030 -22.475  0.00  0.00    +0.142 C 
ENDBRANCH  16  22
ENDBRANCH   4  15
BRANCH   3  28
ATOM     28  O   UNL     1      30.847  -7.135 -21.106  0.00  0.00    -0.471 OA
ATOM     29  C   UNL     1      31.405  -6.682 -19.875  0.00  0.00    +0.252 C 
ENDBRANCH   3  28
TORSDOF 4
ENDMDL
MODEL 4
REMARK VINA RESULT:     -10.0      2.121      3.081
REMARK  Name = 11683556
REMARK  4 active torsions:
REMARK  status: ('A' for Active; 'I' for Inactive)
REMARK    1  A    between atoms: C_1  and  C_10
REMARK    2  A    between atoms: C_3  and  O_28
REMARK    3  A    between atoms: C_4  and  N_15
REMARK    4  A    between atoms: N_16  and  C_22
REMARK                            x       y       z     vdW  Elec       q    Type
REMARK                         _______ _______ _______ _____ _____    ______ ____
ROOT
ATOM      1  C   UNL     1      35.956 -23.130 -14.390  0.00  0.00    +0.051 C 
ATOM      2  C   UNL     1      35.803 -22.126 -15.346  0.00  0.00    +0.019 C 
ATOM      3  C   UNL     1      37.148 -23.849 -14.319  0.00  0.00    +0.140 C 
ATOM      4  C   UNL     1      36.842 -21.841 -16.231  0.00  0.00    +0.052 C 
ATOM      5  C   UNL     1      38.188 -23.564 -15.204  0.00  0.00    +0.038 C 
ATOM      6  C   UNL     1      38.035 -22.560 -16.161  0.00  0.00    +0.018 C 
ENDROOT
BRANCH   1  10
ATOM      7 BR   UNL     1      36.180 -23.107 -10.867  0.00  0.00    -0.046 Br
ATOM      8  N   UNL     1      33.605 -23.720 -13.896  0.00  0.00    -0.209 N 
ATOM      9  N   UNL     1      32.743 -23.945 -12.890  0.00  0.00    -0.176 NA
ATOM     10  C   UNL     1      34.868 -23.410 -13.482  0.00  0.00    +0.080 C 
ATOM     11  C   UNL     1      34.828 -23.433 -12.109  0.00  0.00    +0.070 C 
ATOM     12  C   UNL     1      33.131 -23.825 -15.257  0.00  0.00    +0.140 C 
ATOM     13  C   UNL     1      33.495 -23.767 -11.801  0.00  0.00    +0.126 C 
ENDBRANCH   1  10
BRANCH   4  15
ATOM     14  O   UNL     1      35.431 -21.887 -18.862  0.00  0.00    -0.252 OA
ATOM     15  N   UNL     1      36.689 -20.838 -17.189  0.00  0.00    -0.268 N 
ATOM     16  N   UNL     1      36.101 -19.658 -19.085  0.00  0.00    -0.266 N 
ATOM     17  C   UNL     1      36.010 -20.896 -18.430  0.00  0.00    +0.308 C 
ATOM     18  H   UNL     1      37.110 -19.973 -16.973  0.00  0.00    +0.156 HD
ATOM     19  H   UNL     1      36.600 -18.954 -18.611  0.00  0.00    +0.156 HD
BRANCH  16  22
ATOM     20  F   UNL     1      33.439 -20.150 -19.703  0.00  0.00    -0.203 F 
ATOM     21  F   UNL     1      34.005 -18.250 -23.999  0.00  0.00    -0.204 F 
ATOM     22  C   UNL     1      35.562 -19.297 -20.343  0.00  0.00    +0.079 C 
ATOM     23  C   UNL     1      34.228 -19.561 -20.612  0.00  0.00    +0.156 C 
ATOM     24  C   UNL     1      36.380 -18.688 -21.279  0.00  0.00    +0.019 C 
ATOM     25  C   UNL     1      33.701 -19.206 -21.853  0.00  0.00    +0.061 C 
ATOM     26  C   UNL     1      35.853 -18.333 -22.520  0.00  0.00    +0.031 C 
ATOM     27  C   UNL     1      34.511 -18.592 -22.807  0.00  0.00    +0.142 C 
ENDBRANCH  16  22
ENDBRANCH   4  15
BRANCH   3  28
ATOM     28  O   UNL     1      37.326 -24.835 -13.394  0.00  0.00    -0.471 OA
ATOM     29  C   UNL     1      37.166 -26.178 -13.842  0.00  0.00    +0.252 C 
ENDBRANCH   3  28
TORSDOF 4
ENDMDL
MODEL 5
REMARK VINA RESULT:      -9.8      9.827     15.040
REMARK  Name = 11683556
REMARK  4 active torsions:
REMARK  status: ('A' for Active; 'I' for Inactive)
REMARK    1  A    between atoms: C_1  and  C_10
REMARK    2  A    between atoms: C_3  and  O_28
REMARK    3  A    between atoms: C_4  and  N_15
REMARK    4  A    between atoms: N_16  and  C_22
REMARK                            x       y       z     vdW  Elec       q    Type
REMARK                         _______ _______ _______ _____ _____    ______ ____
ROOT
ATOM      1  C   UNL     1      31.835  -8.330 -22.826  0.00  0.00    +0.051 C 
ATOM      2  C   UNL     1      32.229  -9.578 -23.311  0.00  0.00    +0.019 C 
ATOM      3  C   UNL     1      31.253  -8.225 -21.563  0.00  0.00    +0.140 C 
ATOM      4  C   UNL     1      32.041 -10.720 -22.532  0.00  0.00    +0.052 C 
ATOM      5  C   UNL     1      31.065  -9.368 -20.785  0.00  0.00    +0.038 C 
ATOM      6  C   UNL     1      31.459 -10.615 -21.269  0.00  0.00    +0.018 C 
ENDROOT
BRANCH   1  10
ATOM      7 BR   UNL     1      34.736  -6.318 -22.828  0.00  0.00    -0.046 Br
ATOM      8  N   UNL     1      31.111  -6.693 -24.533  0.00  0.00    -0.209 N 
ATOM      9  N   UNL     1      31.500  -5.591 -25.196  0.00  0.00    -0.176 NA
ATOM     10  C   UNL     1      32.038  -7.160 -23.647  0.00  0.00    +0.080 C 
ATOM     11  C   UNL     1      33.108  -6.303 -23.739  0.00  0.00    +0.070 C 
ATOM     12  C   UNL     1      29.807  -7.251 -24.809  0.00  0.00    +0.140 C 
ATOM     13  C   UNL     1      32.720  -5.358 -24.708  0.00  0.00    +0.126 C 
ENDBRANCH   1  10
BRANCH   4  15
ATOM     14  O   UNL     1      33.285 -13.034 -21.114  0.00  0.00    -0.252 OA
ATOM     15  N   UNL     1      32.433 -11.968 -23.017  0.00  0.00    -0.268 N 
ATOM     16  N   UNL     1      33.258 -14.119 -23.185  0.00  0.00    -0.266 N 
ATOM     17  C   UNL     1      33.022 -13.045 -22.312  0.00  0.00    +0.308 C 
ATOM     18  H   UNL     1      32.280 -12.120 -23.978  0.00  0.00    +0.156 HD
ATOM     19  H   UNL     1      32.992 -13.979 -24.123  0.00  0.00    +0.156 HD
BRANCH  16  22
ATOM     20  F   UNL     1      33.330 -16.155 -25.071  0.00  0.00    -0.203 F 
ATOM     21  F   UNL     1      35.491 -19.030 -21.998  0.00  0.00    -0.204 F 
ATOM     22  C   UNL     1      33.830 -15.377 -22.883  0.00  0.00    +0.079 C 
ATOM     23  C   UNL     1      33.846 -16.368 -23.853  0.00  0.00    +0.156 C 
ATOM     24  C   UNL     1      34.363 -15.593 -21.624  0.00  0.00    +0.019 C 
ATOM     25  C   UNL     1      34.409 -17.607 -23.552  0.00  0.00    +0.061 C 
ATOM     26  C   UNL     1      34.926 -16.832 -21.322  0.00  0.00    +0.031 C 
ATOM     27  C   UNL     1      34.950 -17.841 -22.288  0.00  0.00    +0.142 C 
ENDBRANCH  16  22
ENDBRANCH   4  15
BRANCH   3  28
ATOM     28  O   UNL     1      30.859  -7.019 -21.064  0.00  0.00    -0.471 OA
ATOM     29  C   UNL     1      31.656  -6.458 -20.024  0.00  0.00    +0.252 C 
ENDBRANCH   3  28
TORSDOF 4
ENDMDL
MODEL 6
REMARK VINA RESULT:      -9.7      2.143      3.155
REMARK  Name = 11683556
REMARK  4 active torsions:
REMARK  status: ('A' for Active; 'I' for Inactive)
REMARK    1  A    between atoms: C_1  and  C_10
REMARK    2  A    between atoms: C_3  and  O_28
REMARK    3  A    between atoms: C_4  and  N_15
REMARK    4  A    between atoms: N_16  and  C_22
REMARK                            x       y       z     vdW  Elec       q    Type
REMARK                         _______ _______ _______ _____ _____    ______ ____
ROOT
ATOM      1  C   UNL     1      35.463 -22.951 -14.870  0.00  0.00    +0.051 C 
ATOM      2  C   UNL     1      35.403 -21.994 -15.883  0.00  0.00    +0.019 C 
ATOM      3  C   UNL     1      36.673 -23.575 -14.571  0.00  0.00    +0.140 C 
ATOM      4  C   UNL     1      36.555 -21.660 -16.596  0.00  0.00    +0.052 C 
ATOM      5  C   UNL     1      37.825 -23.241 -15.284  0.00  0.00    +0.038 C 
ATOM      6  C   UNL     1      37.766 -22.284 -16.297  0.00  0.00    +0.018 C 
ENDROOT
BRANCH   1  10
ATOM      7 BR   UNL     1      32.289 -23.491 -16.318  0.00  0.00    -0.046 Br
ATOM      8  N   UNL     1      34.216 -23.429 -12.788  0.00  0.00    -0.209 N 
ATOM      9  N   UNL     1      32.998 -23.740 -12.313  0.00  0.00    -0.176 NA
ATOM     10  C   UNL     1      34.260 -23.283 -14.143  0.00  0.00    +0.080 C 
ATOM     11  C   UNL     1      32.980 -23.515 -14.586  0.00  0.00    +0.070 C 
ATOM     12  C   UNL     1      35.313 -23.286 -11.857  0.00  0.00    +0.140 C 
ATOM     13  C   UNL     1      32.247 -23.791 -13.415  0.00  0.00    +0.126 C 
ENDBRANCH   1  10
BRANCH   4  15
ATOM     14  O   UNL     1      34.897 -21.582 -19.078  0.00  0.00    -0.252 OA
ATOM     15  N   UNL     1      36.496 -20.703 -17.610  0.00  0.00    -0.268 N 
ATOM     16  N   UNL     1      35.948 -19.542 -19.529  0.00  0.00    -0.266 N 
ATOM     17  C   UNL     1      35.694 -20.699 -18.776  0.00  0.00    +0.308 C 
ATOM     18  H   UNL     1      37.091 -19.926 -17.499  0.00  0.00    +0.156 HD
ATOM     19  H   UNL     1      36.617 -18.923 -19.158  0.00  0.00    +0.156 HD
BRANCH  16  22
ATOM     20  F   UNL     1      37.350 -18.016 -21.378  0.00  0.00    -0.203 F 
ATOM     21  F   UNL     1      33.646 -18.036 -24.321  0.00  0.00    -0.204 F 
ATOM     22  C   UNL     1      35.360 -19.156 -20.758  0.00  0.00    +0.079 C 
ATOM     23  C   UNL     1      36.094 -18.394 -21.653  0.00  0.00    +0.156 C 
ATOM     24  C   UNL     1      34.062 -19.548 -21.038  0.00  0.00    +0.019 C 
ATOM     25  C   UNL     1      35.511 -18.014 -22.861  0.00  0.00    +0.061 C 
ATOM     26  C   UNL     1      33.480 -19.168 -22.247  0.00  0.00    +0.031 C 
ATOM     27  C   UNL     1      34.205 -18.401 -23.160  0.00  0.00    +0.142 C 
ENDBRANCH  16  22
ENDBRANCH   4  15
BRANCH   3  28
ATOM     28  O   UNL     1      36.761 -24.514 -13.586  0.00  0.00    -0.471 OA
ATOM     29  C   UNL     1      37.168 -25.823 -13.975  0.00  0.00    +0.252 C 
ENDBRANCH   3  28
TORSDOF 4
ENDMDL
MODEL 7
REMARK VINA RESULT:      -9.3      6.444     10.056
REMARK  Name = 11683556
REMARK  4 active torsions:
REMARK  status: ('A' for Active; 'I' for Inactive)
REMARK    1  A    between atoms: C_1  and  C_10
REMARK    2  A    between atoms: C_3  and  O_28
REMARK    3  A    between atoms: C_4  and  N_15
REMARK    4  A    between atoms: N_16  and  C_22
REMARK                            x       y       z     vdW  Elec       q    Type
REMARK                         _______ _______ _______ _____ _____    ______ ____
ROOT
ATOM      1  C   UNL     1      34.314 -17.759 -22.451  0.00  0.00    +0.051 C 
ATOM      2  C   UNL     1      34.379 -16.390 -22.189  0.00  0.00    +0.019 C 
ATOM      3  C   UNL     1      33.848 -18.210 -23.686  0.00  0.00    +0.140 C 
ATOM      4  C   UNL     1      33.979 -15.474 -23.162  0.00  0.00    +0.052 C 
ATOM      5  C   UNL     1      33.448 -17.294 -24.658  0.00  0.00    +0.038 C 
ATOM      6  C   UNL     1      33.513 -15.925 -24.396  0.00  0.00    +0.018 C 
ENDROOT
BRANCH   1  10
ATOM      7 BR   UNL     1      32.159 -19.836 -20.580  0.00  0.00    -0.046 Br
ATOM      8  N   UNL     1      36.035 -18.878 -21.072  0.00  0.00    -0.209 N 
ATOM      9  N   UNL     1      36.206 -19.792 -20.103  0.00  0.00    -0.176 NA
ATOM     10  C   UNL     1      34.732 -18.691 -21.431  0.00  0.00    +0.080 C 
ATOM     11  C   UNL     1      34.001 -19.545 -20.642  0.00  0.00    +0.070 C 
ATOM     12  C   UNL     1      37.197 -18.209 -21.613  0.00  0.00    +0.140 C 
ATOM     13  C   UNL     1      34.960 -20.197 -19.845  0.00  0.00    +0.126 C 
ENDBRANCH   1  10
BRANCH   4  15
ATOM     14  O   UNL     1      31.848 -13.386 -23.286  0.00  0.00    -0.252 OA
ATOM     15  N   UNL     1      34.043 -14.104 -22.900  0.00  0.00    -0.268 N 
ATOM     16  N   UNL     1      33.506 -11.875 -22.624  0.00  0.00    -0.266 N 
ATOM     17  C   UNL     1      33.007 -13.142 -22.969  0.00  0.00    +0.308 C 
ATOM     18  H   UNL     1      34.927 -13.762 -22.631  0.00  0.00    +0.156 HD
ATOM     19  H   UNL     1      34.462 -11.836 -22.392  0.00  0.00    +0.156 HD
BRANCH  16  22
ATOM     20  F   UNL     1      31.345 -11.533 -20.915  0.00  0.00    -0.203 F 
ATOM     21  F   UNL     1      30.762  -7.085 -22.415  0.00  0.00    -0.204 F 
ATOM     22  C   UNL     1      32.802 -10.649 -22.568  0.00  0.00    +0.079 C 
ATOM     23  C   UNL     1      31.728 -10.519 -21.702  0.00  0.00    +0.156 C 
ATOM     24  C   UNL     1      33.202  -9.603 -23.383  0.00  0.00    +0.019 C 
ATOM     25  C   UNL     1      31.036  -9.310 -21.651  0.00  0.00    +0.061 C 
ATOM     26  C   UNL     1      32.510  -8.393 -23.332  0.00  0.00    +0.031 C 
ATOM     27  C   UNL     1      31.426  -8.246 -22.464  0.00  0.00    +0.142 C 
ENDBRANCH  16  22
ENDBRANCH   4  15
BRANCH   3  28
ATOM     28  O   UNL     1      33.774 -19.542 -23.969  0.00  0.00    -0.471 OA
ATOM     29  C   UNL     1      34.852 -20.107 -24.711  0.00  0.00    +0.252 C 
ENDBRANCH   3  28
TORSDOF 4
ENDMDL
MODEL 8
REMARK VINA RESULT:      -9.2     13.545     18.655
REMARK  Name = 11683556
REMARK  4 active torsions:
REMARK  status: ('A' for Active; 'I' for Inactive)
REMARK    1  A    between atoms: C_1  and  C_10
REMARK    2  A    between atoms: C_3  and  O_28
REMARK    3  A    between atoms: C_4  and  N_15
REMARK    4  A    between atoms: N_16  and  C_22
REMARK                            x       y       z     vdW  Elec       q    Type
REMARK                         _______ _______ _______ _____ _____    ______ ____
ROOT
ATOM      1  C   UNL     1      31.463  -4.240 -24.034  0.00  0.00    +0.051 C 
ATOM      2  C   UNL     1      31.534  -5.629 -24.137  0.00  0.00    +0.019 C 
ATOM      3  C   UNL     1      30.866  -3.653 -22.919  0.00  0.00    +0.140 C 
ATOM      4  C   UNL     1      31.009  -6.431 -23.124  0.00  0.00    +0.052 C 
ATOM      5  C   UNL     1      30.341  -4.456 -21.906  0.00  0.00    +0.038 C 
ATOM      6  C   UNL     1      30.412  -5.845 -22.009  0.00  0.00    +0.018 C 
ENDROOT
BRANCH   1  10
ATOM      7 BR   UNL     1      29.690  -1.786 -25.849  0.00  0.00    -0.046 Br
ATOM      8  N   UNL     1      33.306  -3.517 -25.518  0.00  0.00    -0.209 N 
ATOM      9  N   UNL     1      33.612  -2.670 -26.515  0.00  0.00    -0.176 NA
ATOM     10  C   UNL     1      32.012  -3.426 -25.094  0.00  0.00    +0.080 C 
ATOM     11  C   UNL     1      31.433  -2.449 -25.867  0.00  0.00    +0.070 C 
ATOM     12  C   UNL     1      34.331  -4.404 -25.016  0.00  0.00    +0.140 C 
ATOM     13  C   UNL     1      32.464  -2.019 -26.723  0.00  0.00    +0.126 C 
ENDBRANCH   1  10
BRANCH   4  15
ATOM     14  O   UNL     1      32.415  -8.424 -21.401  0.00  0.00    -0.252 OA
ATOM     15  N   UNL     1      31.078  -7.821 -23.227  0.00  0.00    -0.268 N 
ATOM     16  N   UNL     1      31.565 -10.048 -22.854  0.00  0.00    -0.266 N 
ATOM     17  C   UNL     1      31.757  -8.737 -22.388  0.00  0.00    +0.308 C 
ATOM     18  H   UNL     1      30.590  -8.218 -23.985  0.00  0.00    +0.156 HD
ATOM     19  H   UNL     1      31.010 -10.142 -23.662  0.00  0.00    +0.156 HD
BRANCH  16  22
ATOM     20  F   UNL     1      33.723 -11.359 -24.008  0.00  0.00    -0.203 F 
ATOM     21  F   UNL     1      33.534 -14.741 -20.706  0.00  0.00    -0.204 F 
ATOM     22  C   UNL     1      32.072 -11.249 -22.304  0.00  0.00    +0.079 C 
ATOM     23  C   UNL     1      33.150 -11.873 -22.912  0.00  0.00    +0.156 C 
ATOM     24  C   UNL     1      31.477 -11.778 -21.171  0.00  0.00    +0.019 C 
ATOM     25  C   UNL     1      33.645 -13.059 -22.369  0.00  0.00    +0.061 C 
ATOM     26  C   UNL     1      31.973 -12.963 -20.628  0.00  0.00    +0.031 C 
ATOM     27  C   UNL     1      33.058 -13.604 -21.228  0.00  0.00    +0.142 C 
ENDBRANCH  16  22
ENDBRANCH   4  15
BRANCH   3  28
ATOM     28  O   UNL     1      30.783  -2.298 -22.792  0.00  0.00    -0.471 OA
ATOM     29  C   UNL     1      29.704  -1.786 -22.015  0.00  0.00    +0.252 C 
ENDBRANCH   3  28
TORSDOF 4
ENDMDL
MODEL 9
REMARK VINA RESULT:      -9.1      5.221      9.881
REMARK  Name = 11683556
REMARK  4 active torsions:
REMARK  status: ('A' for Active; 'I' for Inactive)
REMARK    1  A    between atoms: C_1  and  C_10
REMARK    2  A    between atoms: C_3  and  O_28
REMARK    3  A    between atoms: C_4  and  N_15
REMARK    4  A    between atoms: N_16  and  C_22
REMARK                            x       y       z     vdW  Elec       q    Type
REMARK                         _______ _______ _______ _____ _____    ______ ____
ROOT
ATOM      1  C   UNL     1      34.235 -18.993 -21.686  0.00  0.00    +0.051 C 
ATOM      2  C   UNL     1      33.163 -19.441 -20.915  0.00  0.00    +0.019 C 
ATOM      3  C   UNL     1      35.523 -19.462 -21.427  0.00  0.00    +0.140 C 
ATOM      4  C   UNL     1      33.377 -20.358 -19.886  0.00  0.00    +0.052 C 
ATOM      5  C   UNL     1      35.738 -20.379 -20.398  0.00  0.00    +0.038 C 
ATOM      6  C   UNL     1      34.665 -20.827 -19.627  0.00  0.00    +0.018 C 
ENDROOT
BRANCH   1  10
ATOM      7 BR   UNL     1      34.207 -15.483 -21.313  0.00  0.00    -0.046 Br
ATOM      8  N   UNL     1      33.744 -18.406 -24.038  0.00  0.00    -0.209 N 
ATOM      9  N   UNL     1      33.545 -17.366 -24.866  0.00  0.00    -0.176 NA
ATOM     10  C   UNL     1      33.993 -18.043 -22.746  0.00  0.00    +0.080 C 
ATOM     11  C   UNL     1      33.955 -16.670 -22.729  0.00  0.00    +0.070 C 
ATOM     12  C   UNL     1      33.676 -19.747 -24.573  0.00  0.00    +0.140 C 
ATOM     13  C   UNL     1      33.676 -16.309 -24.061  0.00  0.00    +0.126 C 
ENDBRANCH   1  10
BRANCH   4  15
ATOM     14  O   UNL     1      33.341 -22.112 -17.470  0.00  0.00    -0.252 OA
ATOM     15  N   UNL     1      32.304 -20.806 -19.114  0.00  0.00    -0.268 N 
ATOM     16  N   UNL     1      31.018 -21.843 -17.501  0.00  0.00    -0.266 N 
ATOM     17  C   UNL     1      32.326 -21.640 -17.971  0.00  0.00    +0.308 C 
ATOM     18  H   UNL     1      31.414 -20.501 -19.404  0.00  0.00    +0.156 HD
ATOM     19  H   UNL     1      30.302 -21.396 -18.009  0.00  0.00    +0.156 HD
BRANCH  16  22
ATOM     20  F   UNL     1      28.326 -22.268 -16.970  0.00  0.00    -0.203 F 
ATOM     21  F   UNL     1      29.404 -24.836 -13.146  0.00  0.00    -0.204 F 
ATOM     22  C   UNL     1      30.603 -22.610 -16.386  0.00  0.00    +0.079 C 
ATOM     23  C   UNL     1      29.249 -22.798 -16.156  0.00  0.00    +0.156 C 
ATOM     24  C   UNL     1      31.560 -23.156 -15.548  0.00  0.00    +0.019 C 
ATOM     25  C   UNL     1      28.843 -23.553 -15.057  0.00  0.00    +0.061 C 
ATOM     26  C   UNL     1      31.154 -23.911 -14.448  0.00  0.00    +0.031 C 
ATOM     27  C   UNL     1      29.794 -24.110 -14.202  0.00  0.00    +0.142 C 
ENDBRANCH  16  22
ENDBRANCH   4  15
BRANCH   3  28
ATOM     28  O   UNL     1      36.590 -19.041 -22.164  0.00  0.00    -0.471 OA
ATOM     29  C   UNL     1      37.303 -17.905 -21.681  0.00  0.00    +0.252 C 
ENDBRANCH   3  28
TORSDOF 4
ENDMDL
