MODEL 1
REMARK VINA RESULT:     -13.5      0.000      0.000
REMARK  Name = 11224409
REMARK  8 active torsions:
REMARK  status: ('A' for Active; 'I' for Inactive)
REMARK    1  A    between atoms: C_2  and  N_10
REMARK    2  A    between atoms: C_5  and  C_20
REMARK    3  A    between atoms: C_11  and  C_14
REMARK    4  A    between atoms: C_14  and  N_16
REMARK    5  A    between atoms: C_21  and  C_26
REMARK    6  A    between atoms: C_26  and  N_27
REMARK    7  A    between atoms: N_27  and  C_30
REMARK    8  A    between atoms: C_30  and  C_34
REMARK                            x       y       z     vdW  Elec       q    Type
REMARK                         _______ _______ _______ _____ _____    ______ ____
ROOT
ATOM      1  F   UNL     1      32.972 -22.153 -18.132  0.00  0.00    -0.204 F 
ATOM      2  C   UNL     1      35.645 -22.830 -15.764  0.00  0.00    +0.059 C 
ATOM      3  C   UNL     1      34.398 -22.864 -16.390  0.00  0.00    +0.045 C 
ATOM      4  C   UNL     1      36.668 -22.042 -16.290  0.00  0.00    +0.015 C 
ATOM      5  C   UNL     1      35.199 -21.322 -18.068  0.00  0.00    +0.028 C 
ATOM      6  C   UNL     1      34.176 -22.109 -17.542  0.00  0.00    +0.141 C 
ATOM      7  C   UNL     1      36.446 -21.287 -17.443  0.00  0.00    +0.004 C 
ENDROOT
BRANCH   2  10
ATOM      8  O   UNL     1      36.177 -25.330 -13.171  0.00  0.00    -0.434 OA
ATOM      9  O   UNL     1      35.827 -25.839 -15.353  0.00  0.00    -0.226 OA
ATOM     10  N   UNL     1      35.872 -23.600 -14.588  0.00  0.00    -0.221 N 
ATOM     11  C   UNL     1      36.482 -24.146 -12.423  0.00  0.00    +0.210 C 
ATOM     12  C   UNL     1      35.947 -23.015 -13.276  0.00  0.00    +0.147 C 
ATOM     13  C   UNL     1      35.952 -24.987 -14.485  0.00  0.00    +0.409 C 
BRANCH  11  14
ATOM     14  C   UNL     1      37.987 -24.074 -12.208  0.00  0.00    +0.135 C 
BRANCH  14  16
ATOM     15  O   UNL     1      40.260 -23.954 -14.012  0.00  0.00    -0.275 OA
ATOM     16  N   UNL     1      38.654 -25.173 -12.844  0.00  0.00    -0.301 N 
ATOM     17  C   UNL     1      39.741 -25.022 -13.699  0.00  0.00    +0.223 C 
ATOM     18  C   UNL     1      40.264 -26.339 -14.207  0.00  0.00    +0.095 C 
ATOM     19  H   UNL     1      38.324 -26.083 -12.666  0.00  0.00    +0.150 HD
ENDBRANCH  14  16
ENDBRANCH  11  14
ENDBRANCH   2  10
BRANCH   5  20
ATOM     20  C   UNL     1      34.972 -20.537 -19.262  0.00  0.00    +0.002 C 
ATOM     21  C   UNL     1      34.536 -19.026 -21.566  0.00  0.00    -0.044 C 
ATOM     22  C   UNL     1      36.036 -19.871 -19.871  0.00  0.00    -0.000 C 
ATOM     23  C   UNL     1      33.690 -20.447 -19.806  0.00  0.00    -0.000 C 
ATOM     24  C   UNL     1      35.818 -19.116 -21.024  0.00  0.00    -0.006 C 
ATOM     25  C   UNL     1      33.472 -19.692 -20.957  0.00  0.00    -0.006 C 
BRANCH  21  26
ATOM     26  C   UNL     1      34.304 -18.219 -22.799  0.00  0.00    -0.054 C 
BRANCH  26  27
ATOM     27  N   UNL     1      35.178 -17.047 -22.872  0.00  0.00    +0.390 N 
ATOM     28  H   UNL     1      35.496 -16.926 -23.833  0.00  0.00    -0.083 HD
ATOM     29  H   UNL     1      35.973 -17.192 -22.251  0.00  0.00    -0.083 HD
BRANCH  27  30
ATOM     30  C   UNL     1      34.467 -15.850 -22.450  0.00  0.00    -0.031 C 
BRANCH  30  34
ATOM     31  N   UNL     1      33.071 -14.052 -23.420  0.00  0.00    -0.170 NA
ATOM     32  N   UNL     1      32.672 -13.795 -24.675  0.00  0.00    -0.157 N 
ATOM     33  N   UNL     1      33.062 -14.626 -25.656  0.00  0.00    -0.162 NA
ATOM     34  C   UNL     1      33.793 -15.161 -23.606  0.00  0.00    +0.077 C 
ATOM     35  C   UNL     1      33.787 -15.510 -24.964  0.00  0.00    +0.133 C 
ATOM     36  H   UNL     1      32.106 -13.014 -24.874  0.00  0.00    +0.197 HD
ENDBRANCH  30  34
ENDBRANCH  27  30
ENDBRANCH  26  27
ENDBRANCH  21  26
ENDBRANCH   5  20
TORSDOF 8
ENDMDL
MODEL 2
REMARK VINA RESULT:     -13.0      7.829     13.730
REMARK  Name = 11224409
REMARK  8 active torsions:
REMARK  status: ('A' for Active; 'I' for Inactive)
REMARK    1  A    between atoms: C_2  and  N_10
REMARK    2  A    between atoms: C_5  and  C_20
REMARK    3  A    between atoms: C_11  and  C_14
REMARK    4  A    between atoms: C_14  and  N_16
REMARK    5  A    between atoms: C_21  and  C_26
REMARK    6  A    between atoms: C_26  and  N_27
REMARK    7  A    between atoms: N_27  and  C_30
REMARK    8  A    between atoms: C_30  and  C_34
REMARK                            x       y       z     vdW  Elec       q    Type
REMARK                         _______ _______ _______ _____ _____    ______ ____
ROOT
ATOM      1  F   UNL     1      31.784 -13.447 -20.274  0.00  0.00    -0.204 F 
ATOM      2  C   UNL     1      31.960 -10.345 -22.160  0.00  0.00    +0.059 C 
ATOM      3  C   UNL     1      31.604 -11.275 -21.183  0.00  0.00    +0.045 C 
ATOM      4  C   UNL     1      32.847 -10.705 -23.175  0.00  0.00    +0.015 C 
ATOM      5  C   UNL     1      33.022 -12.924 -22.235  0.00  0.00    +0.028 C 
ATOM      6  C   UNL     1      32.135 -12.564 -21.221  0.00  0.00    +0.141 C 
ATOM      7  C   UNL     1      33.378 -11.994 -23.213  0.00  0.00    +0.004 C 
ENDROOT
BRANCH   2  10
ATOM      8  O   UNL     1      30.797  -6.974 -21.425  0.00  0.00    -0.434 OA
ATOM      9  O   UNL     1      31.880  -8.285 -19.924  0.00  0.00    -0.226 OA
ATOM     10  N   UNL     1      31.417  -9.029 -22.122  0.00  0.00    -0.221 N 
ATOM     11  C   UNL     1      30.560  -7.002 -22.839  0.00  0.00    +0.210 C 
ATOM     12  C   UNL     1      30.657  -8.468 -23.206  0.00  0.00    +0.147 C 
ATOM     13  C   UNL     1      31.431  -8.138 -21.052  0.00  0.00    +0.409 C 
BRANCH  11  14
ATOM     14  C   UNL     1      31.608  -6.140 -23.530  0.00  0.00    +0.135 C 
BRANCH  14  16
ATOM     15  O   UNL     1      34.250  -6.370 -22.347  0.00  0.00    -0.275 OA
ATOM     16  N   UNL     1      32.705  -6.934 -23.998  0.00  0.00    -0.301 N 
ATOM     17  C   UNL     1      33.943  -6.985 -23.366  0.00  0.00    +0.223 C 
ATOM     18  C   UNL     1      34.907  -7.915 -24.052  0.00  0.00    +0.095 C 
ATOM     19  H   UNL     1      32.576  -7.473 -24.813  0.00  0.00    +0.150 HD
ENDBRANCH  14  16
ENDBRANCH  11  14
ENDBRANCH   2  10
BRANCH   5  20
ATOM     20  C   UNL     1      33.575 -14.260 -22.279  0.00  0.00    +0.002 C 
ATOM     21  C   UNL     1      34.639 -16.837 -22.362  0.00  0.00    -0.044 C 
ATOM     22  C   UNL     1      33.984 -14.884 -21.100  0.00  0.00    -0.000 C 
ATOM     23  C   UNL     1      33.698 -14.926 -23.499  0.00  0.00    -0.000 C 
ATOM     24  C   UNL     1      34.515 -16.173 -21.142  0.00  0.00    -0.006 C 
ATOM     25  C   UNL     1      34.231 -16.213 -23.541  0.00  0.00    -0.006 C 
BRANCH  21  26
ATOM     26  C   UNL     1      35.207 -18.216 -22.406  0.00  0.00    -0.054 C 
BRANCH  26  27
ATOM     27  N   UNL     1      34.299 -19.212 -21.835  0.00  0.00    +0.390 N 
ATOM     28  H   UNL     1      34.166 -19.968 -22.507  0.00  0.00    -0.083 HD
ATOM     29  H   UNL     1      33.408 -18.763 -21.627  0.00  0.00    -0.083 HD
BRANCH  27  30
ATOM     30  C   UNL     1      34.846 -19.760 -20.604  0.00  0.00    -0.031 C 
BRANCH  30  34
ATOM     31  N   UNL     1      32.540 -20.254 -19.854  0.00  0.00    -0.170 NA
ATOM     32  N   UNL     1      32.025 -21.238 -19.099  0.00  0.00    -0.157 N 
ATOM     33  N   UNL     1      32.856 -22.178 -18.618  0.00  0.00    -0.162 NA
ATOM     34  C   UNL     1      33.833 -20.591 -19.862  0.00  0.00    +0.077 C 
ATOM     35  C   UNL     1      34.025 -21.759 -19.111  0.00  0.00    +0.133 C 
ATOM     36  H   UNL     1      31.061 -21.270 -18.903  0.00  0.00    +0.197 HD
ENDBRANCH  30  34
ENDBRANCH  27  30
ENDBRANCH  26  27
ENDBRANCH  21  26
ENDBRANCH   5  20
TORSDOF 8
ENDMDL
MODEL 3
REMARK VINA RESULT:     -12.9      8.794     14.861
REMARK  Name = 11224409
REMARK  8 active torsions:
REMARK  status: ('A' for Active; 'I' for Inactive)
REMARK    1  A    between atoms: C_2  and  N_10
REMARK    2  A    between atoms: C_5  and  C_20
REMARK    3  A    between atoms: C_11  and  C_14
REMARK    4  A    between atoms: C_14  and  N_16
REMARK    5  A    between atoms: C_21  and  C_26
REMARK    6  A    between atoms: C_26  and  N_27
REMARK    7  A    between atoms: N_27  and  C_30
REMARK    8  A    between atoms: C_30  and  C_34
REMARK                            x       y       z     vdW  Elec       q    Type
REMARK                         _______ _______ _______ _____ _____    ______ ____
ROOT
ATOM      1  F   UNL     1      31.457 -13.092 -20.556  0.00  0.00    -0.204 F 
ATOM      2  C   UNL     1      31.854  -9.930 -22.304  0.00  0.00    +0.059 C 
ATOM      3  C   UNL     1      31.388 -10.890 -21.404  0.00  0.00    +0.045 C 
ATOM      4  C   UNL     1      32.847 -10.263 -23.226  0.00  0.00    +0.015 C 
ATOM      5  C   UNL     1      32.908 -12.513 -22.349  0.00  0.00    +0.028 C 
ATOM      6  C   UNL     1      31.915 -12.181 -21.427  0.00  0.00    +0.141 C 
ATOM      7  C   UNL     1      33.375 -11.554 -23.248  0.00  0.00    +0.004 C 
ENDROOT
BRANCH   2  10
ATOM      8  O   UNL     1      30.744  -6.530 -21.625  0.00  0.00    -0.434 OA
ATOM      9  O   UNL     1      31.926  -7.783 -20.150  0.00  0.00    -0.226 OA
ATOM     10  N   UNL     1      31.316  -8.613 -22.281  0.00  0.00    -0.221 N 
ATOM     11  C   UNL     1      30.412  -6.613 -23.018  0.00  0.00    +0.210 C 
ATOM     12  C   UNL     1      30.483  -8.092 -23.332  0.00  0.00    +0.147 C 
ATOM     13  C   UNL     1      31.401  -7.680 -21.250  0.00  0.00    +0.409 C 
BRANCH  11  14
ATOM     14  C   UNL     1      31.410  -5.782 -23.811  0.00  0.00    +0.135 C 
BRANCH  14  16
ATOM     15  O   UNL     1      29.942  -3.333 -24.340  0.00  0.00    -0.275 OA
ATOM     16  N   UNL     1      31.612  -4.498 -23.207  0.00  0.00    -0.301 N 
ATOM     17  C   UNL     1      30.858  -3.372 -23.523  0.00  0.00    +0.223 C 
ATOM     18  C   UNL     1      31.262  -2.162 -22.723  0.00  0.00    +0.095 C 
ATOM     19  H   UNL     1      32.324  -4.408 -22.533  0.00  0.00    +0.150 HD
ENDBRANCH  14  16
ENDBRANCH  11  14
ENDBRANCH   2  10
BRANCH   5  20
ATOM     20  C   UNL     1      33.457 -13.852 -22.376  0.00  0.00    +0.002 C 
ATOM     21  C   UNL     1      34.514 -16.432 -22.429  0.00  0.00    -0.044 C 
ATOM     22  C   UNL     1      33.833 -14.475 -21.187  0.00  0.00    -0.000 C 
ATOM     23  C   UNL     1      33.610 -14.519 -23.592  0.00  0.00    -0.000 C 
ATOM     24  C   UNL     1      34.361 -15.766 -21.213  0.00  0.00    -0.006 C 
ATOM     25  C   UNL     1      34.139 -15.808 -23.619  0.00  0.00    -0.006 C 
BRANCH  21  26
ATOM     26  C   UNL     1      35.079 -17.813 -22.456  0.00  0.00    -0.054 C 
BRANCH  26  27
ATOM     27  N   UNL     1      35.212 -18.388 -21.116  0.00  0.00    +0.390 N 
ATOM     28  H   UNL     1      35.046 -17.660 -20.421  0.00  0.00    -0.083 HD
ATOM     29  H   UNL     1      36.153 -18.766 -21.014  0.00  0.00    -0.083 HD
BRANCH  27  30
ATOM     30  C   UNL     1      34.252 -19.463 -20.921  0.00  0.00    -0.031 C 
BRANCH  30  34
ATOM     31  N   UNL     1      35.891 -20.314 -19.274  0.00  0.00    -0.170 NA
ATOM     32  N   UNL     1      35.832 -21.301 -18.366  0.00  0.00    -0.157 N 
ATOM     33  N   UNL     1      34.699 -22.016 -18.269  0.00  0.00    -0.162 NA
ATOM     34  C   UNL     1      34.674 -20.397 -19.818  0.00  0.00    +0.077 C 
ATOM     35  C   UNL     1      33.950 -21.431 -19.208  0.00  0.00    +0.133 C 
ATOM     36  H   UNL     1      36.602 -21.498 -17.785  0.00  0.00    +0.197 HD
ENDBRANCH  30  34
ENDBRANCH  27  30
ENDBRANCH  26  27
ENDBRANCH  21  26
ENDBRANCH   5  20
TORSDOF 8
ENDMDL
MODEL 4
REMARK VINA RESULT:     -12.9      8.909     14.995
REMARK  Name = 11224409
REMARK  8 active torsions:
REMARK  status: ('A' for Active; 'I' for Inactive)
REMARK    1  A    between atoms: C_2  and  N_10
REMARK    2  A    between atoms: C_5  and  C_20
REMARK    3  A    between atoms: C_11  and  C_14
REMARK    4  A    between atoms: C_14  and  N_16
REMARK    5  A    between atoms: C_21  and  C_26
REMARK    6  A    between atoms: C_26  and  N_27
REMARK    7  A    between atoms: N_27  and  C_30
REMARK    8  A    between atoms: C_30  and  C_34
REMARK                            x       y       z     vdW  Elec       q    Type
REMARK                         _______ _______ _______ _____ _____    ______ ____
ROOT
ATOM      1  F   UNL     1      30.884 -11.837 -21.135  0.00  0.00    -0.204 F 
ATOM      2  C   UNL     1      31.681  -8.399 -22.008  0.00  0.00    +0.059 C 
ATOM      3  C   UNL     1      31.075  -9.498 -21.397  0.00  0.00    +0.045 C 
ATOM      4  C   UNL     1      32.687  -8.596 -22.954  0.00  0.00    +0.015 C 
ATOM      5  C   UNL     1      32.482 -10.987 -22.678  0.00  0.00    +0.028 C 
ATOM      6  C   UNL     1      31.476 -10.791 -21.732  0.00  0.00    +0.141 C 
ATOM      7  C   UNL     1      33.088  -9.889 -23.289  0.00  0.00    +0.004 C 
ENDROOT
BRANCH   2  10
ATOM      8  O   UNL     1      30.969  -5.136 -20.558  0.00  0.00    -0.434 OA
ATOM      9  O   UNL     1      32.186  -6.738 -19.511  0.00  0.00    -0.226 OA
ATOM     10  N   UNL     1      31.272  -7.080 -21.666  0.00  0.00    -0.221 N 
ATOM     11  C   UNL     1      30.480  -4.916 -21.888  0.00  0.00    +0.210 C 
ATOM     12  C   UNL     1      30.380  -6.303 -22.486  0.00  0.00    +0.147 C 
ATOM     13  C   UNL     1      31.556  -6.380 -20.495  0.00  0.00    +0.409 C 
BRANCH  11  14
ATOM     14  C   UNL     1      31.457  -4.013 -22.628  0.00  0.00    +0.135 C 
BRANCH  14  16
ATOM     15  O   UNL     1      33.943  -5.180 -23.570  0.00  0.00    -0.275 OA
ATOM     16  N   UNL     1      31.740  -4.519 -23.939  0.00  0.00    -0.301 N 
ATOM     17  C   UNL     1      32.966  -5.064 -24.305  0.00  0.00    +0.223 C 
ATOM     18  C   UNL     1      32.984  -5.540 -25.733  0.00  0.00    +0.095 C 
ATOM     19  H   UNL     1      31.027  -4.477 -24.617  0.00  0.00    +0.150 HD
ENDBRANCH  14  16
ENDBRANCH  11  14
ENDBRANCH   2  10
BRANCH   5  20
ATOM     20  C   UNL     1      32.900 -12.327 -23.029  0.00  0.00    +0.002 C 
ATOM     21  C   UNL     1      33.709 -14.909 -23.706  0.00  0.00    -0.044 C 
ATOM     22  C   UNL     1      32.646 -12.825 -24.306  0.00  0.00    -0.000 C 
ATOM     23  C   UNL     1      33.560 -13.120 -22.090  0.00  0.00    -0.000 C 
ATOM     24  C   UNL     1      33.051 -14.116 -24.645  0.00  0.00    -0.006 C 
ATOM     25  C   UNL     1      33.964 -14.411 -22.428  0.00  0.00    -0.006 C 
BRANCH  21  26
ATOM     26  C   UNL     1      34.143 -16.289 -24.069  0.00  0.00    -0.054 C 
BRANCH  26  27
ATOM     27  N   UNL     1      34.966 -16.908 -23.028  0.00  0.00    +0.390 N 
ATOM     28  H   UNL     1      35.100 -16.242 -22.267  0.00  0.00    -0.083 HD
ATOM     29  H   UNL     1      35.865 -17.168 -23.433  0.00  0.00    -0.083 HD
BRANCH  27  30
ATOM     30  C   UNL     1      34.323 -18.104 -22.509  0.00  0.00    -0.031 C 
BRANCH  30  34
ATOM     31  N   UNL     1      36.221 -18.134 -20.921  0.00  0.00    -0.170 NA
ATOM     32  N   UNL     1      36.554 -18.971 -19.925  0.00  0.00    -0.157 N 
ATOM     33  N   UNL     1      35.755 -20.022 -19.676  0.00  0.00    -0.162 NA
ATOM     34  C   UNL     1      35.093 -18.700 -21.360  0.00  0.00    +0.077 C 
ATOM     35  C   UNL     1      34.810 -19.847 -20.604  0.00  0.00    +0.133 C 
ATOM     36  H   UNL     1      37.366 -18.818 -19.390  0.00  0.00    +0.197 HD
ENDBRANCH  30  34
ENDBRANCH  27  30
ENDBRANCH  26  27
ENDBRANCH  21  26
ENDBRANCH   5  20
TORSDOF 8
ENDMDL
MODEL 5
REMARK VINA RESULT:     -12.7      3.166      4.917
REMARK  Name = 11224409
REMARK  8 active torsions:
REMARK  status: ('A' for Active; 'I' for Inactive)
REMARK    1  A    between atoms: C_2  and  N_10
REMARK    2  A    between atoms: C_5  and  C_20
REMARK    3  A    between atoms: C_11  and  C_14
REMARK    4  A    between atoms: C_14  and  N_16
REMARK    5  A    between atoms: C_21  and  C_26
REMARK    6  A    between atoms: C_26  and  N_27
REMARK    7  A    between atoms: N_27  and  C_30
REMARK    8  A    between atoms: C_30  and  C_34
REMARK                            x       y       z     vdW  Elec       q    Type
REMARK                         _______ _______ _______ _____ _____    ______ ____
ROOT
ATOM      1  F   UNL     1      36.587 -19.408 -20.512  0.00  0.00    -0.204 F 
ATOM      2  C   UNL     1      34.221 -21.338 -18.539  0.00  0.00    +0.059 C 
ATOM      3  C   UNL     1      35.426 -20.822 -19.020  0.00  0.00    +0.045 C 
ATOM      4  C   UNL     1      33.013 -20.925 -19.101  0.00  0.00    +0.015 C 
ATOM      5  C   UNL     1      34.213 -19.482 -20.622  0.00  0.00    +0.028 C 
ATOM      6  C   UNL     1      35.421 -19.895 -20.061  0.00  0.00    +0.141 C 
ATOM      7  C   UNL     1      33.008 -19.996 -20.142  0.00  0.00    +0.004 C 
ENDROOT
BRANCH   2  10
ATOM      8  O   UNL     1      34.845 -23.510 -15.684  0.00  0.00    -0.434 OA
ATOM      9  O   UNL     1      36.318 -21.951 -16.422  0.00  0.00    -0.226 OA
ATOM     10  N   UNL     1      34.226 -22.286 -17.477  0.00  0.00    -0.221 N 
ATOM     11  C   UNL     1      33.465 -23.819 -15.919  0.00  0.00    +0.210 C 
ATOM     12  C   UNL     1      33.185 -23.262 -17.299  0.00  0.00    +0.147 C 
ATOM     13  C   UNL     1      35.231 -22.499 -16.536  0.00  0.00    +0.409 C 
BRANCH  11  14
ATOM     14  C   UNL     1      32.623 -23.170 -14.829  0.00  0.00    +0.135 C 
BRANCH  14  16
ATOM     15  O   UNL     1      31.349 -24.745 -12.748  0.00  0.00    -0.275 OA
ATOM     16  N   UNL     1      31.288 -23.690 -14.825  0.00  0.00    -0.301 N 
ATOM     17  C   UNL     1      30.757 -24.440 -13.780  0.00  0.00    +0.223 C 
ATOM     18  C   UNL     1      29.326 -24.840 -14.023  0.00  0.00    +0.095 C 
ATOM     19  H   UNL     1      30.716 -23.509 -15.606  0.00  0.00    +0.150 HD
ENDBRANCH  14  16
ENDBRANCH  11  14
ENDBRANCH   2  10
BRANCH   5  20
ATOM     20  C   UNL     1      34.203 -18.519 -21.703  0.00  0.00    +0.002 C 
ATOM     21  C   UNL     1      34.182 -16.663 -23.785  0.00  0.00    -0.044 C 
ATOM     22  C   UNL     1      33.796 -18.908 -22.979  0.00  0.00    -0.000 C 
ATOM     23  C   UNL     1      34.600 -17.202 -21.468  0.00  0.00    -0.000 C 
ATOM     24  C   UNL     1      33.785 -17.979 -24.020  0.00  0.00    -0.006 C 
ATOM     25  C   UNL     1      34.590 -16.275 -22.509  0.00  0.00    -0.006 C 
BRANCH  21  26
ATOM     26  C   UNL     1      34.170 -15.671 -24.899  0.00  0.00    -0.054 C 
BRANCH  26  27
ATOM     27  N   UNL     1      32.884 -14.982 -25.018  0.00  0.00    +0.390 N 
ATOM     28  H   UNL     1      32.327 -15.165 -24.184  0.00  0.00    -0.083 HD
ATOM     29  H   UNL     1      32.402 -15.329 -25.847  0.00  0.00    -0.083 HD
BRANCH  27  30
ATOM     30  C   UNL     1      33.081 -13.548 -25.157  0.00  0.00    -0.031 C 
BRANCH  30  34
ATOM     31  N   UNL     1      32.811 -11.479 -23.826  0.00  0.00    -0.170 NA
ATOM     32  N   UNL     1      32.481 -11.266 -22.542  0.00  0.00    -0.157 N 
ATOM     33  N   UNL     1      32.233 -12.329 -21.759  0.00  0.00    -0.162 NA
ATOM     34  C   UNL     1      32.772 -12.814 -23.879  0.00  0.00    +0.077 C 
ATOM     35  C   UNL     1      32.422 -13.330 -22.623  0.00  0.00    +0.133 C 
ATOM     36  H   UNL     1      32.422 -10.352 -22.183  0.00  0.00    +0.197 HD
ENDBRANCH  30  34
ENDBRANCH  27  30
ENDBRANCH  26  27
ENDBRANCH  21  26
ENDBRANCH   5  20
TORSDOF 8
ENDMDL
MODEL 6
REMARK VINA RESULT:     -12.3      2.151      3.760
REMARK  Name = 11224409
REMARK  8 active torsions:
REMARK  status: ('A' for Active; 'I' for Inactive)
REMARK    1  A    between atoms: C_2  and  N_10
REMARK    2  A    between atoms: C_5  and  C_20
REMARK    3  A    between atoms: C_11  and  C_14
REMARK    4  A    between atoms: C_14  and  N_16
REMARK    5  A    between atoms: C_21  and  C_26
REMARK    6  A    between atoms: C_26  and  N_27
REMARK    7  A    between atoms: N_27  and  C_30
REMARK    8  A    between atoms: C_30  and  C_34
REMARK                            x       y       z     vdW  Elec       q    Type
REMARK                         _______ _______ _______ _____ _____    ______ ____
ROOT
ATOM      1  F   UNL     1      32.756 -21.365 -19.401  0.00  0.00    -0.204 F 
ATOM      2  C   UNL     1      35.258 -22.223 -16.907  0.00  0.00    +0.059 C 
ATOM      3  C   UNL     1      34.049 -22.186 -17.604  0.00  0.00    +0.045 C 
ATOM      4  C   UNL     1      36.341 -21.463 -17.350  0.00  0.00    +0.015 C 
ATOM      5  C   UNL     1      35.007 -20.630 -19.184  0.00  0.00    +0.028 C 
ATOM      6  C   UNL     1      33.924 -21.389 -18.742  0.00  0.00    +0.141 C 
ATOM      7  C   UNL     1      36.216 -20.667 -18.489  0.00  0.00    +0.004 C 
ENDROOT
BRANCH   2  10
ATOM      8  O   UNL     1      36.199 -24.028 -13.889  0.00  0.00    -0.434 OA
ATOM      9  O   UNL     1      37.559 -22.552 -14.946  0.00  0.00    -0.226 OA
ATOM     10  N   UNL     1      35.385 -23.036 -15.746  0.00  0.00    -0.221 N 
ATOM     11  C   UNL     1      34.810 -24.379 -13.951  0.00  0.00    +0.210 C 
ATOM     12  C   UNL     1      34.389 -23.996 -15.353  0.00  0.00    +0.147 C 
ATOM     13  C   UNL     1      36.479 -23.123 -14.887  0.00  0.00    +0.409 C 
BRANCH  11  14
ATOM     14  C   UNL     1      34.061 -23.614 -12.869  0.00  0.00    +0.135 C 
BRANCH  14  16
ATOM     15  O   UNL     1      31.332 -24.603 -12.803  0.00  0.00    -0.275 OA
ATOM     16  N   UNL     1      32.891 -22.978 -13.399  0.00  0.00    -0.301 N 
ATOM     17  C   UNL     1      31.615 -23.527 -13.323  0.00  0.00    +0.223 C 
ATOM     18  C   UNL     1      30.565 -22.640 -13.937  0.00  0.00    +0.095 C 
ATOM     19  H   UNL     1      32.997 -22.105 -13.843  0.00  0.00    +0.150 HD
ENDBRANCH  14  16
ENDBRANCH  11  14
ENDBRANCH   2  10
BRANCH   5  20
ATOM     20  C   UNL     1      34.882 -19.802 -20.364  0.00  0.00    +0.002 C 
ATOM     21  C   UNL     1      34.639 -18.204 -22.638  0.00  0.00    -0.044 C 
ATOM     22  C   UNL     1      33.695 -19.806 -21.096  0.00  0.00    -0.000 C 
ATOM     23  C   UNL     1      35.948 -18.998 -20.769  0.00  0.00    -0.000 C 
ATOM     24  C   UNL     1      33.573 -19.007 -22.233  0.00  0.00    -0.006 C 
ATOM     25  C   UNL     1      35.827 -18.200 -21.906  0.00  0.00    -0.006 C 
BRANCH  21  26
ATOM     26  C   UNL     1      34.509 -17.349 -23.853  0.00  0.00    -0.054 C 
BRANCH  26  27
ATOM     27  N   UNL     1      34.790 -15.939 -23.577  0.00  0.00    +0.390 N 
ATOM     28  H   UNL     1      35.623 -15.656 -24.093  0.00  0.00    -0.083 HD
ATOM     29  H   UNL     1      34.940 -15.825 -22.574  0.00  0.00    -0.083 HD
BRANCH  27  30
ATOM     30  C   UNL     1      33.671 -15.103 -23.980  0.00  0.00    -0.031 C 
BRANCH  30  34
ATOM     31  N   UNL     1      33.694 -14.263 -21.652  0.00  0.00    -0.170 NA
ATOM     32  N   UNL     1      33.182 -13.161 -21.083  0.00  0.00    -0.157 N 
ATOM     33  N   UNL     1      32.510 -12.293 -21.858  0.00  0.00    -0.162 NA
ATOM     34  C   UNL     1      33.317 -14.091 -22.923  0.00  0.00    +0.077 C 
ATOM     35  C   UNL     1      32.598 -12.895 -23.047  0.00  0.00    +0.133 C 
ATOM     36  H   UNL     1      33.295 -12.993 -20.120  0.00  0.00    +0.197 HD
ENDBRANCH  30  34
ENDBRANCH  27  30
ENDBRANCH  26  27
ENDBRANCH  21  26
ENDBRANCH   5  20
TORSDOF 8
ENDMDL
MODEL 7
REMARK VINA RESULT:     -11.8      2.018      3.546
REMARK  Name = 11224409
REMARK  8 active torsions:
REMARK  status: ('A' for Active; 'I' for Inactive)
REMARK    1  A    between atoms: C_2  and  N_10
REMARK    2  A    between atoms: C_5  and  C_20
REMARK    3  A    between atoms: C_11  and  C_14
REMARK    4  A    between atoms: C_14  and  N_16
REMARK    5  A    between atoms: C_21  and  C_26
REMARK    6  A    between atoms: C_26  and  N_27
REMARK    7  A    between atoms: N_27  and  C_30
REMARK    8  A    between atoms: C_30  and  C_34
REMARK                            x       y       z     vdW  Elec       q    Type
REMARK                         _______ _______ _______ _____ _____    ______ ____
ROOT
ATOM      1  F   UNL     1      36.596 -19.572 -20.254  0.00  0.00    -0.204 F 
ATOM      2  C   UNL     1      34.197 -21.478 -18.299  0.00  0.00    +0.059 C 
ATOM      3  C   UNL     1      35.409 -20.972 -18.768  0.00  0.00    +0.045 C 
ATOM      4  C   UNL     1      32.997 -21.060 -18.876  0.00  0.00    +0.015 C 
ATOM      5  C   UNL     1      34.223 -19.632 -20.390  0.00  0.00    +0.028 C 
ATOM      6  C   UNL     1      35.422 -20.049 -19.814  0.00  0.00    +0.141 C 
ATOM      7  C   UNL     1      33.010 -20.136 -19.921  0.00  0.00    +0.004 C 
ENDROOT
BRANCH   2  10
ATOM      8  O   UNL     1      33.835 -24.284 -16.007  0.00  0.00    -0.434 OA
ATOM      9  O   UNL     1      33.050 -24.291 -18.135  0.00  0.00    -0.226 OA
ATOM     10  N   UNL     1      34.184 -22.420 -17.232  0.00  0.00    -0.221 N 
ATOM     11  C   UNL     1      34.723 -23.463 -15.237  0.00  0.00    +0.210 C 
ATOM     12  C   UNL     1      34.661 -22.109 -15.912  0.00  0.00    +0.147 C 
ATOM     13  C   UNL     1      33.642 -23.703 -17.241  0.00  0.00    +0.409 C 
BRANCH  11  14
ATOM     14  C   UNL     1      36.113 -24.083 -15.263  0.00  0.00    +0.135 C 
BRANCH  14  16
ATOM     15  O   UNL     1      36.747 -26.654 -14.070  0.00  0.00    -0.275 OA
ATOM     16  N   UNL     1      36.594 -24.333 -13.936  0.00  0.00    -0.301 N 
ATOM     17  C   UNL     1      36.873 -25.604 -13.445  0.00  0.00    +0.223 C 
ATOM     18  C   UNL     1      37.387 -25.578 -12.031  0.00  0.00    +0.095 C 
ATOM     19  H   UNL     1      36.734 -23.562 -13.339  0.00  0.00    +0.150 HD
ENDBRANCH  14  16
ENDBRANCH  11  14
ENDBRANCH   2  10
BRANCH   5  20
ATOM     20  C   UNL     1      34.231 -18.674 -21.476  0.00  0.00    +0.002 C 
ATOM     21  C   UNL     1      34.250 -16.830 -23.568  0.00  0.00    -0.044 C 
ATOM     22  C   UNL     1      34.713 -17.383 -21.263  0.00  0.00    -0.000 C 
ATOM     23  C   UNL     1      33.759 -19.043 -22.736  0.00  0.00    -0.000 C 
ATOM     24  C   UNL     1      34.723 -16.461 -22.309  0.00  0.00    -0.006 C 
ATOM     25  C   UNL     1      33.767 -18.121 -23.782  0.00  0.00    -0.006 C 
BRANCH  21  26
ATOM     26  C   UNL     1      34.261 -15.843 -24.687  0.00  0.00    -0.054 C 
BRANCH  26  27
ATOM     27  N   UNL     1      33.245 -14.801 -24.522  0.00  0.00    +0.390 N 
ATOM     28  H   UNL     1      32.456 -15.182 -23.999  0.00  0.00    -0.083 HD
ATOM     29  H   UNL     1      32.941 -14.492 -25.445  0.00  0.00    -0.083 HD
BRANCH  27  30
ATOM     30  C   UNL     1      33.790 -13.662 -23.803  0.00  0.00    -0.031 C 
BRANCH  30  34
ATOM     31  N   UNL     1      31.747 -12.586 -22.912  0.00  0.00    -0.170 NA
ATOM     32  N   UNL     1      31.291 -12.405 -21.662  0.00  0.00    -0.157 N 
ATOM     33  N   UNL     1      32.028 -12.867 -20.638  0.00  0.00    -0.162 NA
ATOM     34  C   UNL     1      32.893 -13.231 -22.673  0.00  0.00    +0.077 C 
ATOM     35  C   UNL     1      33.064 -13.400 -21.292  0.00  0.00    +0.133 C 
ATOM     36  H   UNL     1      30.437 -11.944 -21.500  0.00  0.00    +0.197 HD
ENDBRANCH  30  34
ENDBRANCH  27  30
ENDBRANCH  26  27
ENDBRANCH  21  26
ENDBRANCH   5  20
TORSDOF 8
ENDMDL
MODEL 8
REMARK VINA RESULT:     -11.8      5.783      9.020
REMARK  Name = 11224409
REMARK  8 active torsions:
REMARK  status: ('A' for Active; 'I' for Inactive)
REMARK    1  A    between atoms: C_2  and  N_10
REMARK    2  A    between atoms: C_5  and  C_20
REMARK    3  A    between atoms: C_11  and  C_14
REMARK    4  A    between atoms: C_14  and  N_16
REMARK    5  A    between atoms: C_21  and  C_26
REMARK    6  A    between atoms: C_26  and  N_27
REMARK    7  A    between atoms: N_27  and  C_30
REMARK    8  A    between atoms: C_30  and  C_34
REMARK                            x       y       z     vdW  Elec       q    Type
REMARK                         _______ _______ _______ _____ _____    ______ ____
ROOT
ATOM      1  F   UNL     1      33.611 -14.707 -24.509  0.00  0.00    -0.204 F 
ATOM      2  C   UNL     1      34.441 -16.814 -21.666  0.00  0.00    +0.059 C 
ATOM      3  C   UNL     1      34.242 -16.393 -22.981  0.00  0.00    +0.045 C 
ATOM      4  C   UNL     1      34.194 -15.937 -20.609  0.00  0.00    +0.015 C 
ATOM      5  C   UNL     1      33.550 -14.221 -22.182  0.00  0.00    +0.028 C 
ATOM      6  C   UNL     1      33.796 -15.096 -23.239  0.00  0.00    +0.141 C 
ATOM      7  C   UNL     1      33.749 -14.640 -20.867  0.00  0.00    +0.004 C 
ENDROOT
BRANCH   2  10
ATOM      8  O   UNL     1      36.206 -19.907 -20.909  0.00  0.00    -0.434 OA
ATOM      9  O   UNL     1      37.207 -17.872 -20.975  0.00  0.00    -0.226 OA
ATOM     10  N   UNL     1      34.895 -18.137 -21.403  0.00  0.00    -0.221 N 
ATOM     11  C   UNL     1      34.858 -20.394 -20.889  0.00  0.00    +0.210 C 
ATOM     12  C   UNL     1      34.052 -19.293 -21.547  0.00  0.00    +0.147 C 
ATOM     13  C   UNL     1      36.189 -18.541 -21.081  0.00  0.00    +0.409 C 
BRANCH  11  14
ATOM     14  C   UNL     1      34.450 -20.654 -19.446  0.00  0.00    +0.135 C 
BRANCH  14  16
ATOM     15  O   UNL     1      34.728 -22.299 -17.069  0.00  0.00    -0.275 OA
ATOM     16  N   UNL     1      35.599 -20.771 -18.597  0.00  0.00    -0.301 N 
ATOM     17  C   UNL     1      35.644 -21.588 -17.472  0.00  0.00    +0.223 C 
ATOM     18  C   UNL     1      36.978 -21.540 -16.775  0.00  0.00    +0.095 C 
ATOM     19  H   UNL     1      36.400 -20.243 -18.822  0.00  0.00    +0.150 HD
ENDBRANCH  14  16
ENDBRANCH  11  14
ENDBRANCH   2  10
BRANCH   5  20
ATOM     20  C   UNL     1      33.087 -12.875 -22.445  0.00  0.00    +0.002 C 
ATOM     21  C   UNL     1      32.197 -10.280 -22.949  0.00  0.00    -0.044 C 
ATOM     22  C   UNL     1      31.952 -12.389 -21.797  0.00  0.00    -0.000 C 
ATOM     23  C   UNL     1      33.778 -12.063 -23.345  0.00  0.00    -0.000 C 
ATOM     24  C   UNL     1      31.507 -11.091 -22.048  0.00  0.00    -0.006 C 
ATOM     25  C   UNL     1      33.332 -10.766 -23.598  0.00  0.00    -0.006 C 
BRANCH  21  26
ATOM     26  C   UNL     1      31.721  -8.892 -23.218  0.00  0.00    -0.054 C 
BRANCH  26  27
ATOM     27  N   UNL     1      32.486  -7.887 -22.477  0.00  0.00    +0.390 N 
ATOM     28  H   UNL     1      32.604  -7.059 -23.061  0.00  0.00    -0.083 HD
ATOM     29  H   UNL     1      33.394  -8.280 -22.234  0.00  0.00    -0.083 HD
BRANCH  27  30
ATOM     30  C   UNL     1      31.794  -7.513 -21.254  0.00  0.00    -0.031 C 
BRANCH  30  34
ATOM     31  N   UNL     1      31.394  -5.193 -20.493  0.00  0.00    -0.170 NA
ATOM     32  N   UNL     1      30.617  -4.206 -20.967  0.00  0.00    -0.157 N 
ATOM     33  N   UNL     1      29.879  -4.442 -22.064  0.00  0.00    -0.162 NA
ATOM     34  C   UNL     1      31.134  -6.164 -21.373  0.00  0.00    +0.077 C 
ATOM     35  C   UNL     1      30.214  -5.709 -22.326  0.00  0.00    +0.133 C 
ATOM     36  H   UNL     1      30.587  -3.330 -20.519  0.00  0.00    +0.197 HD
ENDBRANCH  30  34
ENDBRANCH  27  30
ENDBRANCH  26  27
ENDBRANCH  21  26
ENDBRANCH   5  20
TORSDOF 8
ENDMDL
MODEL 9
REMARK VINA RESULT:     -11.8      6.294     12.535
REMARK  Name = 11224409
REMARK  8 active torsions:
REMARK  status: ('A' for Active; 'I' for Inactive)
REMARK    1  A    between atoms: C_2  and  N_10
REMARK    2  A    between atoms: C_5  and  C_20
REMARK    3  A    between atoms: C_11  and  C_14
REMARK    4  A    between atoms: C_14  and  N_16
REMARK    5  A    between atoms: C_21  and  C_26
REMARK    6  A    between atoms: C_26  and  N_27
REMARK    7  A    between atoms: N_27  and  C_30
REMARK    8  A    between atoms: C_30  and  C_34
REMARK                            x       y       z     vdW  Elec       q    Type
REMARK                         _______ _______ _______ _____ _____    ______ ____
ROOT
ATOM      1  F   UNL     1      34.564 -17.285 -23.883  0.00  0.00    -0.204 F 
ATOM      2  C   UNL     1      33.693 -13.960 -22.701  0.00  0.00    +0.059 C 
ATOM      3  C   UNL     1      33.961 -15.025 -23.562  0.00  0.00    +0.045 C 
ATOM      4  C   UNL     1      33.774 -14.143 -21.320  0.00  0.00    +0.015 C 
ATOM      5  C   UNL     1      34.390 -16.454 -21.662  0.00  0.00    +0.028 C 
ATOM      6  C   UNL     1      34.310 -16.271 -23.042  0.00  0.00    +0.141 C 
ATOM      7  C   UNL     1      34.122 -15.390 -20.800  0.00  0.00    +0.004 C 
ENDROOT
BRANCH   2  10
ATOM      8  O   UNL     1      32.624 -11.052 -24.614  0.00  0.00    -0.434 OA
ATOM      9  O   UNL     1      32.600 -13.170 -25.427  0.00  0.00    -0.226 OA
ATOM     10  N   UNL     1      33.337 -12.688 -23.231  0.00  0.00    -0.221 N 
ATOM     11  C   UNL     1      32.779 -10.443 -23.325  0.00  0.00    +0.210 C 
ATOM     12  C   UNL     1      33.569 -11.457 -22.524  0.00  0.00    +0.147 C 
ATOM     13  C   UNL     1      32.830 -12.409 -24.498  0.00  0.00    +0.409 C 
BRANCH  11  14
ATOM     14  C   UNL     1      31.400 -10.163 -22.745  0.00  0.00    +0.135 C 
BRANCH  14  16
ATOM     15  O   UNL     1      31.156  -8.073 -20.744  0.00  0.00    -0.275 OA
ATOM     16  N   UNL     1      31.396 -10.318 -21.320  0.00  0.00    -0.301 N 
ATOM     17  C   UNL     1      31.274  -9.255 -20.431  0.00  0.00    +0.223 C 
ATOM     18  C   UNL     1      31.274  -9.700 -18.993  0.00  0.00    +0.095 C 
ATOM     19  H   UNL     1      31.485 -11.226 -20.951  0.00  0.00    +0.150 HD
ENDBRANCH  14  16
ENDBRANCH  11  14
ENDBRANCH   2  10
BRANCH   5  20
ATOM     20  C   UNL     1      34.751 -17.746 -21.119  0.00  0.00    +0.002 C 
ATOM     21  C   UNL     1      35.448 -20.236 -20.074  0.00  0.00    -0.044 C 
ATOM     22  C   UNL     1      33.762 -18.690 -20.848  0.00  0.00    -0.000 C 
ATOM     23  C   UNL     1      36.090 -18.047 -20.867  0.00  0.00    -0.000 C 
ATOM     24  C   UNL     1      34.110 -19.936 -20.326  0.00  0.00    -0.006 C 
ATOM     25  C   UNL     1      36.439 -19.291 -20.344  0.00  0.00    -0.006 C 
BRANCH  21  26
ATOM     26  C   UNL     1      35.821 -21.568 -19.516  0.00  0.00    -0.054 C 
BRANCH  26  27
ATOM     27  N   UNL     1      35.404 -21.725 -18.121  0.00  0.00    +0.390 N 
ATOM     28  H   UNL     1      35.179 -22.705 -17.947  0.00  0.00    -0.083 HD
ATOM     29  H   UNL     1      34.587 -21.139 -17.955  0.00  0.00    -0.083 HD
BRANCH  27  30
ATOM     30  C   UNL     1      36.467 -21.313 -17.218  0.00  0.00    -0.031 C 
BRANCH  30  34
ATOM     31  N   UNL     1      37.505 -22.528 -15.329  0.00  0.00    -0.170 NA
ATOM     32  N   UNL     1      36.993 -23.078 -14.217  0.00  0.00    -0.157 N 
ATOM     33  N   UNL     1      35.668 -22.999 -14.014  0.00  0.00    -0.162 NA
ATOM     34  C   UNL     1      36.400 -22.043 -15.903  0.00  0.00    +0.077 C 
ATOM     35  C   UNL     1      35.285 -22.329 -15.104  0.00  0.00    +0.133 C 
ATOM     36  H   UNL     1      37.576 -23.531 -13.565  0.00  0.00    +0.197 HD
ENDBRANCH  30  34
ENDBRANCH  27  30
ENDBRANCH  26  27
ENDBRANCH  21  26
ENDBRANCH   5  20
TORSDOF 8
ENDMDL
