MODEL 1
REMARK VINA RESULT:     -13.5      0.000      0.000
REMARK  Name = 5326868
REMARK  6 active torsions:
REMARK  status: ('A' for Active; 'I' for Inactive)
REMARK    1  A    between atoms: C_2  and  C_28
REMARK    2  A    between atoms: C_7  and  N_12
REMARK    3  A    between atoms: C_13  and  C_18
REMARK    4  A    between atoms: C_16  and  N_23
REMARK    5  A    between atoms: C_28  and  C_29
REMARK    6  A    between atoms: C_29  and  C_31
REMARK                            x       y       z     vdW  Elec       q    Type
REMARK                         _______ _______ _______ _____ _____    ______ ____
ROOT
ATOM      1  N   UNL     1      34.082 -16.186 -24.508  0.00  0.00    -0.312 N 
ATOM      2  C   UNL     1      34.152 -15.205 -22.517  0.00  0.00    -0.006 C 
ATOM      3  C   UNL     1      34.243 -16.612 -22.324  0.00  0.00    +0.012 C 
ATOM      4  C   UNL     1      34.196 -17.204 -23.588  0.00  0.00    +0.048 C 
ATOM      5  C   UNL     1      34.055 -14.974 -23.870  0.00  0.00    +0.058 C 
ATOM      6  C   UNL     1      34.358 -17.442 -21.190  0.00  0.00    +0.016 C 
ATOM      7  C   UNL     1      34.425 -18.829 -21.364  0.00  0.00    +0.051 C 
ATOM      8  C   UNL     1      34.260 -18.589 -23.777  0.00  0.00    +0.016 C 
ATOM      9  C   UNL     1      34.377 -19.392 -22.638  0.00  0.00    +0.016 C 
ATOM     10  H   UNL     1      34.028 -16.311 -25.482  0.00  0.00    +0.152 HD
ENDROOT
BRANCH   7  12
ATOM     11  O   UNL     1      32.464 -20.762 -20.178  0.00  0.00    -0.270 OA
ATOM     12  N   UNL     1      34.539 -19.658 -20.246  0.00  0.00    -0.280 N 
ATOM     13  C   UNL     1      33.587 -20.547 -19.732  0.00  0.00    +0.250 C 
ATOM     14  H   UNL     1      35.393 -19.612 -19.760  0.00  0.00    +0.155 HD
BRANCH  13  18
ATOM     15  F   UNL     1      37.014 -22.110 -16.701  0.00  0.00    -0.204 F 
ATOM     16  C   UNL     1      33.404 -22.541 -16.565  0.00  0.00    +0.050 C 
ATOM     17  C   UNL     1      33.020 -21.857 -17.719  0.00  0.00    +0.019 C 
ATOM     18  C   UNL     1      33.995 -21.277 -18.503  0.00  0.00    +0.057 C 
ATOM     19  C   UNL     1      34.753 -22.626 -16.221  0.00  0.00    +0.044 C 
ATOM     20  C   UNL     1      35.335 -21.346 -18.185  0.00  0.00    +0.034 C 
ATOM     21  C   UNL     1      35.719 -22.029 -17.032  0.00  0.00    +0.142 C 
BRANCH  16  23
ATOM     22  O   UNL     1      30.492 -24.106 -13.966  0.00  0.00    -0.350 OA
ATOM     23  N   UNL     1      32.436 -23.139 -15.751  0.00  0.00    -0.303 N 
ATOM     24  C   UNL     1      31.013 -22.871 -15.990  0.00  0.00    +0.123 C 
ATOM     25  C   UNL     1      32.791 -23.438 -14.357  0.00  0.00    +0.123 C 
ATOM     26  C   UNL     1      30.169 -23.968 -15.349  0.00  0.00    +0.164 C 
ATOM     27  C   UNL     1      31.854 -24.506 -13.806  0.00  0.00    +0.164 C 
ENDBRANCH  16  23
ENDBRANCH  13  18
ENDBRANCH   7  12
BRANCH   2  28
ATOM     28  C   UNL     1      34.161 -14.171 -21.463  0.00  0.00    +0.032 C 
BRANCH  28  29
ATOM     29  C   UNL     1      32.764 -13.798 -20.920  0.00  0.00    +0.031 C 
BRANCH  29  31
ATOM     30  N   UNL     1      31.426  -9.935 -22.207  0.00  0.00    -0.242 NA
ATOM     31  C   UNL     1      32.293 -12.439 -21.373  0.00  0.00    -0.019 C 
ATOM     32  C   UNL     1      31.464 -11.698 -20.553  0.00  0.00    +0.016 C 
ATOM     33  C   UNL     1      32.697 -11.954 -22.602  0.00  0.00    +0.016 C 
ATOM     34  C   UNL     1      31.060 -10.456 -21.014  0.00  0.00    +0.099 C 
ATOM     35  C   UNL     1      32.237 -10.700 -22.972  0.00  0.00    +0.099 C 
ENDBRANCH  29  31
ENDBRANCH  28  29
ENDBRANCH   2  28
TORSDOF 6
ENDMDL
MODEL 2
REMARK VINA RESULT:     -13.3      2.158      2.882
REMARK  Name = 5326868
REMARK  6 active torsions:
REMARK  status: ('A' for Active; 'I' for Inactive)
REMARK    1  A    between atoms: C_2  and  C_28
REMARK    2  A    between atoms: C_7  and  N_12
REMARK    3  A    between atoms: C_13  and  C_18
REMARK    4  A    between atoms: C_16  and  N_23
REMARK    5  A    between atoms: C_28  and  C_29
REMARK    6  A    between atoms: C_29  and  C_31
REMARK                            x       y       z     vdW  Elec       q    Type
REMARK                         _______ _______ _______ _____ _____    ______ ____
ROOT
ATOM      1  N   UNL     1      34.558 -15.924 -24.242  0.00  0.00    -0.312 N 
ATOM      2  C   UNL     1      34.238 -15.026 -22.237  0.00  0.00    -0.006 C 
ATOM      3  C   UNL     1      34.255 -16.441 -22.093  0.00  0.00    +0.012 C 
ATOM      4  C   UNL     1      34.457 -16.980 -23.365  0.00  0.00    +0.048 C 
ATOM      5  C   UNL     1      34.426 -14.739 -23.570  0.00  0.00    +0.058 C 
ATOM      6  C   UNL     1      34.117 -17.318 -20.998  0.00  0.00    +0.016 C 
ATOM      7  C   UNL     1      34.187 -18.699 -21.217  0.00  0.00    +0.051 C 
ATOM      8  C   UNL     1      34.529 -18.359 -23.598  0.00  0.00    +0.016 C 
ATOM      9  C   UNL     1      34.391 -19.209 -22.497  0.00  0.00    +0.016 C 
ATOM     10  H   UNL     1      34.704 -16.009 -25.211  0.00  0.00    +0.152 HD
ENDROOT
BRANCH   7  12
ATOM     11  O   UNL     1      36.049 -20.813 -20.190  0.00  0.00    -0.270 OA
ATOM     12  N   UNL     1      34.051 -19.574 -20.138  0.00  0.00    -0.280 N 
ATOM     13  C   UNL     1      34.956 -20.549 -19.699  0.00  0.00    +0.250 C 
ATOM     14  H   UNL     1      33.216 -19.498 -19.623  0.00  0.00    +0.155 HD
BRANCH  13  18
ATOM     15  F   UNL     1      31.487 -22.852 -17.242  0.00  0.00    -0.204 F 
ATOM     16  C   UNL     1      35.021 -22.452 -16.473  0.00  0.00    +0.050 C 
ATOM     17  C   UNL     1      35.439 -21.698 -17.570  0.00  0.00    +0.019 C 
ATOM     18  C   UNL     1      34.512 -21.351 -18.529  0.00  0.00    +0.057 C 
ATOM     19  C   UNL     1      33.686 -22.842 -16.362  0.00  0.00    +0.044 C 
ATOM     20  C   UNL     1      33.186 -21.724 -18.444  0.00  0.00    +0.034 C 
ATOM     21  C   UNL     1      32.768 -22.477 -17.348  0.00  0.00    +0.142 C 
BRANCH  16  23
ATOM     22  O   UNL     1      37.841 -23.286 -13.467  0.00  0.00    -0.350 OA
ATOM     23  N   UNL     1      35.940 -22.819 -15.485  0.00  0.00    -0.303 N 
ATOM     24  C   UNL     1      35.538 -22.817 -14.074  0.00  0.00    +0.123 C 
ATOM     25  C   UNL     1      37.364 -22.553 -15.730  0.00  0.00    +0.123 C 
ATOM     26  C   UNL     1      36.488 -23.694 -13.266  0.00  0.00    +0.164 C 
ATOM     27  C   UNL     1      38.216 -23.447 -14.835  0.00  0.00    +0.164 C 
ENDBRANCH  16  23
ENDBRANCH  13  18
ENDBRANCH   7  12
BRANCH   2  28
ATOM     28  C   UNL     1      34.051 -14.035 -21.159  0.00  0.00    +0.032 C 
BRANCH  28  29
ATOM     29  C   UNL     1      32.577 -13.682 -20.860  0.00  0.00    +0.031 C 
BRANCH  29  31
ATOM     30  N   UNL     1      31.444  -9.804 -22.293  0.00  0.00    -0.242 NA
ATOM     31  C   UNL     1      32.178 -12.317 -21.365  0.00  0.00    -0.019 C 
ATOM     32  C   UNL     1      31.378 -11.510 -20.580  0.00  0.00    +0.016 C 
ATOM     33  C   UNL     1      32.618 -11.895 -22.604  0.00  0.00    +0.016 C 
ATOM     34  C   UNL     1      31.040 -10.266 -21.088  0.00  0.00    +0.099 C 
ATOM     35  C   UNL     1      32.224 -10.633 -23.022  0.00  0.00    +0.099 C 
ENDBRANCH  29  31
ENDBRANCH  28  29
ENDBRANCH   2  28
TORSDOF 6
ENDMDL
MODEL 3
REMARK VINA RESULT:     -13.1      4.480     11.643
REMARK  Name = 5326868
REMARK  6 active torsions:
REMARK  status: ('A' for Active; 'I' for Inactive)
REMARK    1  A    between atoms: C_2  and  C_28
REMARK    2  A    between atoms: C_7  and  N_12
REMARK    3  A    between atoms: C_13  and  C_18
REMARK    4  A    between atoms: C_16  and  N_23
REMARK    5  A    between atoms: C_28  and  C_29
REMARK    6  A    between atoms: C_29  and  C_31
REMARK                            x       y       z     vdW  Elec       q    Type
REMARK                         _______ _______ _______ _____ _____    ______ ____
ROOT
ATOM      1  N   UNL     1      34.196 -17.183 -24.689  0.00  0.00    -0.312 N 
ATOM      2  C   UNL     1      34.629 -17.018 -22.518  0.00  0.00    -0.006 C 
ATOM      3  C   UNL     1      34.012 -15.808 -22.942  0.00  0.00    +0.012 C 
ATOM      4  C   UNL     1      33.751 -15.937 -24.307  0.00  0.00    +0.048 C 
ATOM      5  C   UNL     1      34.728 -17.843 -23.614  0.00  0.00    +0.058 C 
ATOM      6  C   UNL     1      33.652 -14.610 -22.292  0.00  0.00    +0.016 C 
ATOM      7  C   UNL     1      33.043 -13.590 -23.031  0.00  0.00    +0.051 C 
ATOM      8  C   UNL     1      33.143 -14.925 -25.059  0.00  0.00    +0.016 C 
ATOM      9  C   UNL     1      32.793 -13.746 -24.393  0.00  0.00    +0.016 C 
ATOM     10  H   UNL     1      34.139 -17.546 -25.602  0.00  0.00    +0.152 HD
ENDROOT
BRANCH   7  12
ATOM     11  O   UNL     1      31.353 -13.129 -20.598  0.00  0.00    -0.270 OA
ATOM     12  N   UNL     1      32.682 -12.400 -22.395  0.00  0.00    -0.280 N 
ATOM     13  C   UNL     1      31.886 -12.240 -21.255  0.00  0.00    +0.250 C 
ATOM     14  H   UNL     1      33.030 -11.572 -22.799  0.00  0.00    +0.155 HD
BRANCH  13  18
ATOM     15  F   UNL     1      31.416  -8.908 -17.782  0.00  0.00    -0.204 F 
ATOM     16  C   UNL     1      31.252  -8.550 -21.399  0.00  0.00    +0.050 C 
ATOM     17  C   UNL     1      31.466  -9.869 -21.798  0.00  0.00    +0.019 C 
ATOM     18  C   UNL     1      31.656 -10.834 -20.831  0.00  0.00    +0.057 C 
ATOM     19  C   UNL     1      31.235  -8.225 -20.042  0.00  0.00    +0.044 C 
ATOM     20  C   UNL     1      31.645 -10.539 -19.483  0.00  0.00    +0.034 C 
ATOM     21  C   UNL     1      31.431  -9.221 -19.084  0.00  0.00    +0.142 C 
BRANCH  16  23
ATOM     22  O   UNL     1      30.926  -5.469 -24.242  0.00  0.00    -0.350 OA
ATOM     23  N   UNL     1      31.056  -7.551 -22.359  0.00  0.00    -0.303 N 
ATOM     24  C   UNL     1      31.463  -7.784 -23.749  0.00  0.00    +0.123 C 
ATOM     25  C   UNL     1      31.100  -6.150 -21.920  0.00  0.00    +0.123 C 
ATOM     26  C   UNL     1      30.727  -6.816 -24.669  0.00  0.00    +0.164 C 
ATOM     27  C   UNL     1      30.381  -5.270 -22.937  0.00  0.00    +0.164 C 
ENDBRANCH  16  23
ENDBRANCH  13  18
ENDBRANCH   7  12
BRANCH   2  28
ATOM     28  C   UNL     1      35.085 -17.340 -21.151  0.00  0.00    +0.032 C 
BRANCH  28  29
ATOM     29  C   UNL     1      35.785 -18.711 -21.015  0.00  0.00    +0.031 C 
BRANCH  29  31
ATOM     30  N   UNL     1      33.396 -21.636 -18.988  0.00  0.00    -0.242 NA
ATOM     31  C   UNL     1      34.944 -19.740 -20.302  0.00  0.00    -0.019 C 
ATOM     32  C   UNL     1      35.559 -20.693 -19.514  0.00  0.00    +0.016 C 
ATOM     33  C   UNL     1      33.570 -19.716 -20.448  0.00  0.00    +0.016 C 
ATOM     34  C   UNL     1      34.743 -21.616 -18.879  0.00  0.00    +0.099 C 
ATOM     35  C   UNL     1      32.842 -20.683 -19.772  0.00  0.00    +0.099 C 
ENDBRANCH  29  31
ENDBRANCH  28  29
ENDBRANCH   2  28
TORSDOF 6
ENDMDL
MODEL 4
REMARK VINA RESULT:     -11.6      4.370      8.413
REMARK  Name = 5326868
REMARK  6 active torsions:
REMARK  status: ('A' for Active; 'I' for Inactive)
REMARK    1  A    between atoms: C_2  and  C_28
REMARK    2  A    between atoms: C_7  and  N_12
REMARK    3  A    between atoms: C_13  and  C_18
REMARK    4  A    between atoms: C_16  and  N_23
REMARK    5  A    between atoms: C_28  and  C_29
REMARK    6  A    between atoms: C_29  and  C_31
REMARK                            x       y       z     vdW  Elec       q    Type
REMARK                         _______ _______ _______ _____ _____    ______ ____
ROOT
ATOM      1  N   UNL     1      30.946  -7.564 -20.852  0.00  0.00    -0.312 N 
ATOM      2  C   UNL     1      32.233  -7.673 -22.657  0.00  0.00    -0.006 C 
ATOM      3  C   UNL     1      32.077  -8.990 -22.142  0.00  0.00    +0.012 C 
ATOM      4  C   UNL     1      31.266  -8.893 -21.009  0.00  0.00    +0.048 C 
ATOM      5  C   UNL     1      31.526  -6.818 -21.843  0.00  0.00    +0.058 C 
ATOM      6  C   UNL     1      32.551 -10.259 -22.530  0.00  0.00    +0.016 C 
ATOM      7  C   UNL     1      32.195 -11.381 -21.774  0.00  0.00    +0.051 C 
ATOM      8  C   UNL     1      30.902 -10.007 -20.243  0.00  0.00    +0.016 C 
ATOM      9  C   UNL     1      31.383 -11.256 -20.649  0.00  0.00    +0.016 C 
ATOM     10  H   UNL     1      30.382  -7.201 -20.132  0.00  0.00    +0.152 HD
ENDROOT
BRANCH   7  12
ATOM     11  O   UNL     1      34.166 -13.200 -20.433  0.00  0.00    -0.270 OA
ATOM     12  N   UNL     1      32.661 -12.642 -22.152  0.00  0.00    -0.280 N 
ATOM     13  C   UNL     1      33.588 -13.454 -21.485  0.00  0.00    +0.250 C 
ATOM     14  H   UNL     1      32.294 -13.005 -22.990  0.00  0.00    +0.155 HD
BRANCH  13  18
ATOM     15  F   UNL     1      34.131 -16.091 -25.501  0.00  0.00    -0.204 F 
ATOM     16  C   UNL     1      34.535 -17.040 -22.012  0.00  0.00    +0.050 C 
ATOM     17  C   UNL     1      34.235 -15.833 -21.381  0.00  0.00    +0.019 C 
ATOM     18  C   UNL     1      33.906 -14.741 -22.157  0.00  0.00    +0.057 C 
ATOM     19  C   UNL     1      34.500 -17.127 -23.404  0.00  0.00    +0.044 C 
ATOM     20  C   UNL     1      33.865 -14.801 -23.534  0.00  0.00    +0.034 C 
ATOM     21  C   UNL     1      34.164 -16.007 -24.165  0.00  0.00    +0.142 C 
BRANCH  16  23
ATOM     22  O   UNL     1      35.577 -20.558 -19.957  0.00  0.00    -0.350 OA
ATOM     23  N   UNL     1      34.873 -18.163 -21.250  0.00  0.00    -0.303 N 
ATOM     24  C   UNL     1      36.283 -18.489 -21.012  0.00  0.00    +0.123 C 
ATOM     25  C   UNL     1      33.959 -19.314 -21.269  0.00  0.00    +0.123 C 
ATOM     26  C   UNL     1      36.403 -19.404 -19.798  0.00  0.00    +0.164 C 
ATOM     27  C   UNL     1      34.202 -20.184 -20.040  0.00  0.00    +0.164 C 
ENDBRANCH  16  23
ENDBRANCH  13  18
ENDBRANCH   7  12
BRANCH   2  28
ATOM     28  C   UNL     1      33.011  -7.283 -23.850  0.00  0.00    +0.032 C 
BRANCH  28  29
ATOM     29  C   UNL     1      34.034  -6.151 -23.606  0.00  0.00    +0.031 C 
BRANCH  29  31
ATOM     30  N   UNL     1      33.255  -2.636 -25.932  0.00  0.00    -0.242 NA
ATOM     31  C   UNL     1      33.760  -4.914 -24.425  0.00  0.00    -0.019 C 
ATOM     32  C   UNL     1      32.658  -4.135 -24.131  0.00  0.00    +0.016 C 
ATOM     33  C   UNL     1      34.614  -4.579 -25.457  0.00  0.00    +0.016 C 
ATOM     34  C   UNL     1      32.450  -3.009 -24.911  0.00  0.00    +0.099 C 
ATOM     35  C   UNL     1      34.319  -3.433 -26.179  0.00  0.00    +0.099 C 
ENDBRANCH  29  31
ENDBRANCH  28  29
ENDBRANCH   2  28
TORSDOF 6
ENDMDL
MODEL 5
REMARK VINA RESULT:     -11.1      5.818     10.334
REMARK  Name = 5326868
REMARK  6 active torsions:
REMARK  status: ('A' for Active; 'I' for Inactive)
REMARK    1  A    between atoms: C_2  and  C_28
REMARK    2  A    between atoms: C_7  and  N_12
REMARK    3  A    between atoms: C_13  and  C_18
REMARK    4  A    between atoms: C_16  and  N_23
REMARK    5  A    between atoms: C_28  and  C_29
REMARK    6  A    between atoms: C_29  and  C_31
REMARK                            x       y       z     vdW  Elec       q    Type
REMARK                         _______ _______ _______ _____ _____    ______ ____
ROOT
ATOM      1  N   UNL     1      31.186  -5.592 -20.253  0.00  0.00    -0.312 N 
ATOM      2  C   UNL     1      31.940  -5.391 -22.332  0.00  0.00    -0.006 C 
ATOM      3  C   UNL     1      31.871  -6.777 -22.015  0.00  0.00    +0.012 C 
ATOM      4  C   UNL     1      31.396  -6.875 -20.706  0.00  0.00    +0.048 C 
ATOM      5  C   UNL     1      31.512  -4.688 -21.228  0.00  0.00    +0.058 C 
ATOM      6  C   UNL     1      32.171  -7.960 -22.719  0.00  0.00    +0.016 C 
ATOM      7  C   UNL     1      31.982  -9.195 -22.090  0.00  0.00    +0.051 C 
ATOM      8  C   UNL     1      31.202  -8.104 -20.063  0.00  0.00    +0.016 C 
ATOM      9  C   UNL     1      31.505  -9.264 -20.782  0.00  0.00    +0.016 C 
ATOM     10  H   UNL     1      30.850  -5.359 -19.358  0.00  0.00    +0.152 HD
ENDROOT
BRANCH   7  12
ATOM     11  O   UNL     1      31.937 -12.047 -21.163  0.00  0.00    -0.270 OA
ATOM     12  N   UNL     1      32.276 -10.373 -22.780  0.00  0.00    -0.280 N 
ATOM     13  C   UNL     1      32.240 -11.687 -22.297  0.00  0.00    +0.250 C 
ATOM     14  H   UNL     1      32.543 -10.266 -23.721  0.00  0.00    +0.155 HD
BRANCH  13  18
ATOM     15  F   UNL     1      32.887 -13.179 -26.850  0.00  0.00    -0.204 F 
ATOM     16  C   UNL     1      33.439 -14.941 -23.715  0.00  0.00    +0.050 C 
ATOM     17  C   UNL     1      33.064 -13.958 -22.799  0.00  0.00    +0.019 C 
ATOM     18  C   UNL     1      32.637 -12.735 -23.273  0.00  0.00    +0.057 C 
ATOM     19  C   UNL     1      33.379 -14.677 -25.084  0.00  0.00    +0.044 C 
ATOM     20  C   UNL     1      32.569 -12.449 -24.620  0.00  0.00    +0.034 C 
ATOM     21  C   UNL     1      32.943 -13.431 -25.536  0.00  0.00    +0.142 C 
BRANCH  16  23
ATOM     22  O   UNL     1      34.961 -18.680 -22.537  0.00  0.00    -0.350 OA
ATOM     23  N   UNL     1      33.876 -16.190 -23.262  0.00  0.00    -0.303 N 
ATOM     24  C   UNL     1      34.926 -16.271 -22.241  0.00  0.00    +0.123 C 
ATOM     25  C   UNL     1      33.823 -17.324 -24.195  0.00  0.00    +0.123 C 
ATOM     26  C   UNL     1      34.882 -17.637 -21.565  0.00  0.00    +0.164 C 
ATOM     27  C   UNL     1      33.836 -18.633 -23.415  0.00  0.00    +0.164 C 
ENDBRANCH  16  23
ENDBRANCH  13  18
ENDBRANCH   7  12
BRANCH   2  28
ATOM     28  C   UNL     1      32.388  -4.802 -23.609  0.00  0.00    +0.032 C 
BRANCH  28  29
ATOM     29  C   UNL     1      33.845  -5.140 -23.994  0.00  0.00    +0.031 C 
BRANCH  29  31
ATOM     30  N   UNL     1      34.578  -4.900 -28.211  0.00  0.00    -0.242 NA
ATOM     31  C   UNL     1      34.104  -5.056 -25.478  0.00  0.00    -0.019 C 
ATOM     32  C   UNL     1      33.184  -5.591 -26.359  0.00  0.00    +0.016 C 
ATOM     33  C   UNL     1      35.255  -4.444 -25.935  0.00  0.00    +0.016 C 
ATOM     34  C   UNL     1      33.467  -5.488 -27.712  0.00  0.00    +0.099 C 
ATOM     35  C   UNL     1      35.445  -4.392 -27.307  0.00  0.00    +0.099 C 
ENDBRANCH  29  31
ENDBRANCH  28  29
ENDBRANCH   2  28
TORSDOF 6
ENDMDL
MODEL 6
REMARK VINA RESULT:     -10.9      3.284      5.143
REMARK  Name = 5326868
REMARK  6 active torsions:
REMARK  status: ('A' for Active; 'I' for Inactive)
REMARK    1  A    between atoms: C_2  and  C_28
REMARK    2  A    between atoms: C_7  and  N_12
REMARK    3  A    between atoms: C_13  and  C_18
REMARK    4  A    between atoms: C_16  and  N_23
REMARK    5  A    between atoms: C_28  and  C_29
REMARK    6  A    between atoms: C_29  and  C_31
REMARK                            x       y       z     vdW  Elec       q    Type
REMARK                         _______ _______ _______ _____ _____    ______ ____
ROOT
ATOM      1  N   UNL     1      32.300 -19.924 -21.076  0.00  0.00    -0.312 N 
ATOM      2  C   UNL     1      34.424 -19.281 -21.014  0.00  0.00    -0.006 C 
ATOM      3  C   UNL     1      34.211 -20.216 -19.963  0.00  0.00    +0.012 C 
ATOM      4  C   UNL     1      32.871 -20.603 -20.024  0.00  0.00    +0.048 C 
ATOM      5  C   UNL     1      33.230 -19.122 -21.680  0.00  0.00    +0.058 C 
ATOM      6  C   UNL     1      35.033 -20.771 -18.961  0.00  0.00    +0.016 C 
ATOM      7  C   UNL     1      34.485 -21.691 -18.061  0.00  0.00    +0.051 C 
ATOM      8  C   UNL     1      32.309 -21.523 -19.130  0.00  0.00    +0.016 C 
ATOM      9  C   UNL     1      33.144 -22.061 -18.146  0.00  0.00    +0.016 C 
ATOM     10  H   UNL     1      31.359 -20.003 -21.353  0.00  0.00    +0.152 HD
ENDROOT
BRANCH   7  12
ATOM     11  O   UNL     1      37.014 -20.661 -16.822  0.00  0.00    -0.270 OA
ATOM     12  N   UNL     1      35.292 -22.246 -17.066  0.00  0.00    -0.280 N 
ATOM     13  C   UNL     1      36.470 -21.719 -16.520  0.00  0.00    +0.250 C 
ATOM     14  H   UNL     1      34.998 -23.112 -16.703  0.00  0.00    +0.155 HD
BRANCH  13  18
ATOM     15  F   UNL     1      40.088 -24.596 -15.099  0.00  0.00    -0.204 F 
ATOM     16  C   UNL     1      37.140 -23.481 -13.282  0.00  0.00    +0.050 C 
ATOM     17  C   UNL     1      36.523 -22.690 -14.252  0.00  0.00    +0.019 C 
ATOM     18  C   UNL     1      37.125 -22.563 -15.486  0.00  0.00    +0.057 C 
ATOM     19  C   UNL     1      38.344 -24.125 -13.568  0.00  0.00    +0.044 C 
ATOM     20  C   UNL     1      38.316 -23.188 -15.794  0.00  0.00    +0.034 C 
ATOM     21  C   UNL     1      38.932 -23.978 -14.825  0.00  0.00    +0.142 C 
BRANCH  16  23
ATOM     22  O   UNL     1      35.610 -24.029  -9.403  0.00  0.00    -0.350 OA
ATOM     23  N   UNL     1      36.551 -23.627 -12.021  0.00  0.00    -0.303 N 
ATOM     24  C   UNL     1      36.754 -22.598 -10.996  0.00  0.00    +0.123 C 
ATOM     25  C   UNL     1      36.339 -24.988 -11.509  0.00  0.00    +0.123 C 
ATOM     26  C   UNL     1      35.663 -22.706  -9.936  0.00  0.00    +0.164 C 
ATOM     27  C   UNL     1      35.268 -24.968 -10.424  0.00  0.00    +0.164 C 
ENDBRANCH  16  23
ENDBRANCH  13  18
ENDBRANCH   7  12
BRANCH   2  28
ATOM     28  C   UNL     1      35.692 -18.598 -21.340  0.00  0.00    +0.032 C 
BRANCH  28  29
ATOM     29  C   UNL     1      35.614 -17.646 -22.554  0.00  0.00    +0.031 C 
BRANCH  29  31
ATOM     30  N   UNL     1      33.452 -14.036 -21.737  0.00  0.00    -0.242 NA
ATOM     31  C   UNL     1      34.853 -16.375 -22.266  0.00  0.00    -0.019 C 
ATOM     32  C   UNL     1      34.472 -15.560 -23.314  0.00  0.00    +0.016 C 
ATOM     33  C   UNL     1      34.549 -16.046 -20.960  0.00  0.00    +0.016 C 
ATOM     34  C   UNL     1      33.775 -14.405 -22.998  0.00  0.00    +0.099 C 
ATOM     35  C   UNL     1      33.848 -14.869 -20.748  0.00  0.00    +0.099 C 
ENDBRANCH  29  31
ENDBRANCH  28  29
ENDBRANCH   2  28
TORSDOF 6
ENDMDL
MODEL 7
REMARK VINA RESULT:     -10.8      7.522     15.130
REMARK  Name = 5326868
REMARK  6 active torsions:
REMARK  status: ('A' for Active; 'I' for Inactive)
REMARK    1  A    between atoms: C_2  and  C_28
REMARK    2  A    between atoms: C_7  and  N_12
REMARK    3  A    between atoms: C_13  and  C_18
REMARK    4  A    between atoms: C_16  and  N_23
REMARK    5  A    between atoms: C_28  and  C_29
REMARK    6  A    between atoms: C_29  and  C_31
REMARK                            x       y       z     vdW  Elec       q    Type
REMARK                         _______ _______ _______ _____ _____    ______ ____
ROOT
ATOM      1  N   UNL     1      31.615 -12.460 -20.131  0.00  0.00    -0.312 N 
ATOM      2  C   UNL     1      32.259 -12.754 -22.235  0.00  0.00    -0.006 C 
ATOM      3  C   UNL     1      31.947 -11.378 -22.053  0.00  0.00    +0.012 C 
ATOM      4  C   UNL     1      31.545 -11.220 -20.725  0.00  0.00    +0.048 C 
ATOM      5  C   UNL     1      32.045 -13.394 -21.035  0.00  0.00    +0.058 C 
ATOM      6  C   UNL     1      31.967 -10.247 -22.895  0.00  0.00    +0.016 C 
ATOM      7  C   UNL     1      31.586  -9.004 -22.377  0.00  0.00    +0.051 C 
ATOM      8  C   UNL     1      31.162  -9.983 -20.194  0.00  0.00    +0.016 C 
ATOM      9  C   UNL     1      31.191  -8.876 -21.047  0.00  0.00    +0.016 C 
ATOM     10  H   UNL     1      31.388 -12.648 -19.192  0.00  0.00    +0.152 HD
ENDROOT
BRANCH   7  12
ATOM     11  O   UNL     1      33.855  -7.206 -23.155  0.00  0.00    -0.270 OA
ATOM     12  N   UNL     1      31.603  -7.879 -23.204  0.00  0.00    -0.280 N 
ATOM     13  C   UNL     1      32.697  -7.070 -23.536  0.00  0.00    +0.250 C 
ATOM     14  H   UNL     1      30.740  -7.623 -23.602  0.00  0.00    +0.155 HD
BRANCH  13  18
ATOM     15  F   UNL     1      30.188  -3.055 -24.518  0.00  0.00    -0.204 F 
ATOM     16  C   UNL     1      32.805  -4.701 -26.436  0.00  0.00    +0.050 C 
ATOM     17  C   UNL     1      33.092  -5.783 -25.604  0.00  0.00    +0.019 C 
ATOM     18  C   UNL     1      32.390  -5.919 -24.425  0.00  0.00    +0.057 C 
ATOM     19  C   UNL     1      31.824  -3.780 -26.070  0.00  0.00    +0.044 C 
ATOM     20  C   UNL     1      31.416  -5.022 -24.038  0.00  0.00    +0.034 C 
ATOM     21  C   UNL     1      31.129  -3.940 -24.870  0.00  0.00    +0.142 C 
BRANCH  16  23
ATOM     22  O   UNL     1      34.986  -3.966 -29.956  0.00  0.00    -0.350 OA
ATOM     23  N   UNL     1      33.502  -4.538 -27.638  0.00  0.00    -0.303 N 
ATOM     24  C   UNL     1      34.924  -4.892 -27.713  0.00  0.00    +0.123 C 
ATOM     25  C   UNL     1      33.075  -3.466 -28.548  0.00  0.00    +0.123 C 
ATOM     26  C   UNL     1      35.325  -5.107 -29.168  0.00  0.00    +0.164 C 
ATOM     27  C   UNL     1      33.573  -3.760 -29.959  0.00  0.00    +0.164 C 
ENDBRANCH  16  23
ENDBRANCH  13  18
ENDBRANCH   7  12
BRANCH   2  28
ATOM     28  C   UNL     1      32.728 -13.392 -23.481  0.00  0.00    +0.032 C 
BRANCH  28  29
ATOM     29  C   UNL     1      34.149 -13.992 -23.398  0.00  0.00    +0.031 C 
BRANCH  29  31
ATOM     30  N   UNL     1      34.168 -18.272 -23.176  0.00  0.00    -0.242 NA
ATOM     31  C   UNL     1      34.156 -15.498 -23.320  0.00  0.00    -0.019 C 
ATOM     32  C   UNL     1      33.691 -16.236 -24.391  0.00  0.00    +0.016 C 
ATOM     33  C   UNL     1      34.626 -16.118 -22.178  0.00  0.00    +0.016 C 
ATOM     34  C   UNL     1      33.718 -17.617 -24.270  0.00  0.00    +0.099 C 
ATOM     35  C   UNL     1      34.611 -17.504 -22.156  0.00  0.00    +0.099 C 
ENDBRANCH  29  31
ENDBRANCH  28  29
ENDBRANCH   2  28
TORSDOF 6
ENDMDL
