MODEL 1
REMARK VINA RESULT:     -14.1      0.000      0.000
REMARK  Name = 448408
REMARK  8 active torsions:
REMARK  status: ('A' for Active; 'I' for Inactive)
REMARK    1  A    between atoms: N_2  and  C_25
REMARK    2  A    between atoms: C_3  and  C_6
REMARK    3  A    between atoms: C_5  and  N_12
REMARK    4  A    between atoms: C_25  and  C_26
REMARK    5  A    between atoms: C_27  and  S_32
REMARK    6  A    between atoms: S_32  and  C_33
REMARK    7  A    between atoms: C_34  and  C_39
REMARK    8  A    between atoms: C_39  and  O_40
REMARK                            x       y       z     vdW  Elec       q    Type
REMARK                         _______ _______ _______ _____ _____    ______ ____
ROOT
ATOM      1  O   UNL     1      36.862 -18.561 -19.836  0.00  0.00    -0.270 OA
ATOM      2  N   UNL     1      35.353 -20.312 -20.018  0.00  0.00    -0.297 N 
ATOM      3  C   UNL     1      35.869 -19.065 -20.390  0.00  0.00    +0.246 C 
ATOM      4  H   UNL     1      34.563 -20.651 -20.499  0.00  0.00    +0.150 HD
ENDROOT
BRANCH   3   6
ATOM      5  C   UNL     1      34.345 -16.268 -22.394  0.00  0.00    +0.090 C 
ATOM      6  C   UNL     1      35.175 -18.353 -21.452  0.00  0.00    +0.055 C 
ATOM      7  C   UNL     1      35.013 -16.970 -21.375  0.00  0.00    +0.023 C 
ATOM      8  C   UNL     1      33.843 -16.990 -23.490  0.00  0.00    +0.018 C 
ATOM      9  C   UNL     1      34.671 -19.055 -22.548  0.00  0.00    +0.005 C 
ATOM     10  C   UNL     1      34.006 -18.374 -23.566  0.00  0.00    +0.002 C 
BRANCH   5  12
ATOM     11  O   UNL     1      31.770 -12.509 -19.898  0.00  0.00    -0.207 OA
ATOM     12  N   UNL     1      34.184 -14.890 -22.317  0.00  0.00    -0.137 N 
ATOM     13  N   UNL     1      34.207 -14.046 -23.383  0.00  0.00    -0.215 N 
ATOM     14  N   UNL     1      33.422 -14.369 -21.275  0.00  0.00    -0.143 NA
ATOM     15  N   UNL     1      33.125 -11.855 -23.648  0.00  0.00    -0.309 NA
ATOM     16  N   UNL     1      31.844 -11.107 -21.744  0.00  0.00    -0.251 NA
ATOM     17  N   UNL     1      31.988  -9.791 -23.640  0.00  0.00    -0.283 N 
ATOM     18  C   UNL     1      33.467 -12.951 -23.080  0.00  0.00    +0.243 C 
ATOM     19  C   UNL     1      32.995 -13.226 -21.714  0.00  0.00    +0.241 C 
ATOM     20  C   UNL     1      32.144 -12.244 -21.031  0.00  0.00    +0.239 C 
ATOM     21  C   UNL     1      32.313 -10.945 -22.965  0.00  0.00    +0.208 C 
ATOM     22  H   UNL     1      34.681 -14.204 -24.232  0.00  0.00    +0.175 HD
ATOM     23  H   UNL     1      32.324  -9.642 -24.553  0.00  0.00    +0.156 HD
ATOM     24  H   UNL     1      31.419  -9.113 -23.209  0.00  0.00    +0.156 HD
ENDBRANCH   5  12
ENDBRANCH   3   6
BRANCH   2  25
ATOM     25  C   UNL     1      35.915 -21.128 -18.966  0.00  0.00    +0.117 C 
BRANCH  25  26
ATOM     26  C   UNL     1      34.853 -21.704 -18.075  0.00  0.00    +0.003 C 
ATOM     27  C   UNL     1      35.113 -22.046 -16.751  0.00  0.00    +0.027 C 
ATOM     28  C   UNL     1      33.583 -21.890 -18.614  0.00  0.00    -0.002 C 
ATOM     29  C   UNL     1      34.095 -22.579 -15.960  0.00  0.00    +0.006 C 
ATOM     30  C   UNL     1      32.566 -22.424 -17.824  0.00  0.00    -0.000 C 
ATOM     31  C   UNL     1      32.821 -22.767 -16.497  0.00  0.00    +0.000 C 
BRANCH  27  32
ATOM     32  S   UNL     1      36.728 -21.824 -16.017  0.00  0.00    -0.087 S 
BRANCH  32  33
ATOM     33  C   UNL     1      36.622 -22.925 -14.615  0.00  0.00    +0.028 C 
ATOM     34  C   UNL     1      37.590 -23.903 -14.374  0.00  0.00    +0.013 C 
ATOM     35  C   UNL     1      35.537 -22.793 -13.747  0.00  0.00    +0.006 C 
ATOM     36  C   UNL     1      37.472 -24.745 -13.268  0.00  0.00    -0.001 C 
ATOM     37  C   UNL     1      35.419 -23.635 -12.641  0.00  0.00    +0.000 C 
ATOM     38  C   UNL     1      36.387 -24.611 -12.402  0.00  0.00    -0.000 C 
BRANCH  34  39
ATOM     39  C   UNL     1      38.770 -24.086 -15.273  0.00  0.00    +0.164 C 
BRANCH  39  40
ATOM     40  O   UNL     1      39.146 -25.457 -15.279  0.00  0.00    -0.377 OA
ATOM     41  H   UNL     1      39.405 -25.717 -16.177  0.00  0.00    +0.211 HD
ENDBRANCH  39  40
ENDBRANCH  34  39
ENDBRANCH  32  33
ENDBRANCH  27  32
ENDBRANCH  25  26
ENDBRANCH   2  25
TORSDOF 8
ENDMDL
MODEL 2
REMARK VINA RESULT:     -13.9      2.284      3.600
REMARK  Name = 448408
REMARK  8 active torsions:
REMARK  status: ('A' for Active; 'I' for Inactive)
REMARK    1  A    between atoms: N_2  and  C_25
REMARK    2  A    between atoms: C_3  and  C_6
REMARK    3  A    between atoms: C_5  and  N_12
REMARK    4  A    between atoms: C_25  and  C_26
REMARK    5  A    between atoms: C_27  and  S_32
REMARK    6  A    between atoms: S_32  and  C_33
REMARK    7  A    between atoms: C_34  and  C_39
REMARK    8  A    between atoms: C_39  and  O_40
REMARK                            x       y       z     vdW  Elec       q    Type
REMARK                         _______ _______ _______ _____ _____    ______ ____
ROOT
ATOM      1  O   UNL     1      31.808 -21.505 -19.852  0.00  0.00    -0.270 OA
ATOM      2  N   UNL     1      32.736 -22.013 -17.789  0.00  0.00    -0.297 N 
ATOM      3  C   UNL     1      32.772 -21.445 -19.067  0.00  0.00    +0.246 C 
ATOM      4  H   UNL     1      33.535 -21.929 -17.219  0.00  0.00    +0.150 HD
ENDROOT
BRANCH   3   6
ATOM      5  C   UNL     1      35.154 -19.018 -20.677  0.00  0.00    +0.090 C 
ATOM      6  C   UNL     1      34.008 -20.790 -19.464  0.00  0.00    +0.055 C 
ATOM      7  C   UNL     1      33.968 -19.662 -20.285  0.00  0.00    +0.023 C 
ATOM      8  C   UNL     1      36.381 -19.535 -20.226  0.00  0.00    +0.018 C 
ATOM      9  C   UNL     1      35.235 -21.290 -19.024  0.00  0.00    +0.005 C 
ATOM     10  C   UNL     1      36.420 -20.662 -19.405  0.00  0.00    +0.002 C 
BRANCH   5  12
ATOM     11  O   UNL     1      34.033 -13.946 -20.727  0.00  0.00    -0.207 OA
ATOM     12  N   UNL     1      35.115 -17.894 -21.494  0.00  0.00    -0.137 N 
ATOM     13  N   UNL     1      34.747 -17.899 -22.803  0.00  0.00    -0.215 N 
ATOM     14  N   UNL     1      34.874 -16.656 -20.904  0.00  0.00    -0.143 NA
ATOM     15  N   UNL     1      33.773 -16.085 -24.144  0.00  0.00    -0.309 NA
ATOM     16  N   UNL     1      33.424 -14.009 -22.963  0.00  0.00    -0.251 NA
ATOM     17  N   UNL     1      32.853 -14.187 -25.197  0.00  0.00    -0.283 N 
ATOM     18  C   UNL     1      34.256 -16.674 -23.115  0.00  0.00    +0.243 C 
ATOM     19  C   UNL     1      34.368 -15.929 -21.852  0.00  0.00    +0.241 C 
ATOM     20  C   UNL     1      33.926 -14.531 -21.794  0.00  0.00    +0.239 C 
ATOM     21  C   UNL     1      33.361 -14.752 -24.050  0.00  0.00    +0.208 C 
ATOM     22  H   UNL     1      34.824 -18.663 -23.419  0.00  0.00    +0.175 HD
ATOM     23  H   UNL     1      32.795 -14.718 -26.024  0.00  0.00    +0.156 HD
ATOM     24  H   UNL     1      32.548 -13.251 -25.191  0.00  0.00    +0.156 HD
ENDBRANCH   5  12
ENDBRANCH   3   6
BRANCH   2  25
ATOM     25  C   UNL     1      31.590 -22.718 -17.259  0.00  0.00    +0.117 C 
BRANCH  25  26
ATOM     26  C   UNL     1      31.641 -22.827 -15.763  0.00  0.00    +0.003 C 
ATOM     27  C   UNL     1      32.821 -23.130 -15.089  0.00  0.00    +0.027 C 
ATOM     28  C   UNL     1      30.461 -22.616 -15.056  0.00  0.00    -0.002 C 
ATOM     29  C   UNL     1      32.821 -23.222 -13.698  0.00  0.00    +0.006 C 
ATOM     30  C   UNL     1      30.461 -22.708 -13.664  0.00  0.00    -0.000 C 
ATOM     31  C   UNL     1      31.640 -23.011 -12.985  0.00  0.00    +0.000 C 
BRANCH  27  32
ATOM     32  S   UNL     1      34.359 -23.410 -15.957  0.00  0.00    -0.087 S 
BRANCH  32  33
ATOM     33  C   UNL     1      35.489 -23.630 -14.591  0.00  0.00    +0.028 C 
ATOM     34  C   UNL     1      36.012 -24.883 -14.265  0.00  0.00    +0.013 C 
ATOM     35  C   UNL     1      35.846 -22.510 -13.839  0.00  0.00    +0.006 C 
ATOM     36  C   UNL     1      36.892 -25.014 -13.190  0.00  0.00    -0.001 C 
ATOM     37  C   UNL     1      36.725 -22.642 -12.764  0.00  0.00    +0.000 C 
ATOM     38  C   UNL     1      37.248 -23.894 -12.440  0.00  0.00    -0.000 C 
BRANCH  34  39
ATOM     39  C   UNL     1      35.661 -26.113 -15.039  0.00  0.00    +0.164 C 
BRANCH  39  40
ATOM     40  O   UNL     1      36.799 -26.546 -15.771  0.00  0.00    -0.377 OA
ATOM     41  H   UNL     1      36.954 -27.488 -15.601  0.00  0.00    +0.211 HD
ENDBRANCH  39  40
ENDBRANCH  34  39
ENDBRANCH  32  33
ENDBRANCH  27  32
ENDBRANCH  25  26
ENDBRANCH   2  25
TORSDOF 8
ENDMDL
MODEL 3
REMARK VINA RESULT:     -13.3      2.180      2.985
REMARK  Name = 448408
REMARK  8 active torsions:
REMARK  status: ('A' for Active; 'I' for Inactive)
REMARK    1  A    between atoms: N_2  and  C_25
REMARK    2  A    between atoms: C_3  and  C_6
REMARK    3  A    between atoms: C_5  and  N_12
REMARK    4  A    between atoms: C_25  and  C_26
REMARK    5  A    between atoms: C_27  and  S_32
REMARK    6  A    between atoms: S_32  and  C_33
REMARK    7  A    between atoms: C_34  and  C_39
REMARK    8  A    between atoms: C_39  and  O_40
REMARK                            x       y       z     vdW  Elec       q    Type
REMARK                         _______ _______ _______ _____ _____    ______ ____
ROOT
ATOM      1  O   UNL     1      32.345 -21.436 -19.892  0.00  0.00    -0.270 OA
ATOM      2  N   UNL     1      34.108 -22.142 -18.563  0.00  0.00    -0.297 N 
ATOM      3  C   UNL     1      33.517 -21.290 -19.503  0.00  0.00    +0.246 C 
ATOM      4  H   UNL     1      35.042 -21.970 -18.300  0.00  0.00    +0.150 HD
ENDROOT
BRANCH   3   6
ATOM      5  C   UNL     1      34.540 -18.035 -21.089  0.00  0.00    +0.090 C 
ATOM      6  C   UNL     1      34.346 -20.222 -20.039  0.00  0.00    +0.055 C 
ATOM      7  C   UNL     1      33.752 -19.076 -20.567  0.00  0.00    +0.023 C 
ATOM      8  C   UNL     1      35.938 -18.175 -21.069  0.00  0.00    +0.018 C 
ATOM      9  C   UNL     1      35.736 -20.345 -20.026  0.00  0.00    +0.005 C 
ATOM     10  C   UNL     1      36.531 -19.322 -20.540  0.00  0.00    +0.002 C 
BRANCH   5  12
ATOM     11  O   UNL     1      33.376 -15.620 -25.540  0.00  0.00    -0.207 OA
ATOM     12  N   UNL     1      33.948 -16.892 -21.615  0.00  0.00    -0.137 N 
ATOM     13  N   UNL     1      34.034 -15.652 -21.066  0.00  0.00    -0.215 N 
ATOM     14  N   UNL     1      33.745 -16.825 -22.991  0.00  0.00    -0.143 NA
ATOM     15  N   UNL     1      33.882 -13.458 -22.164  0.00  0.00    -0.309 NA
ATOM     16  N   UNL     1      33.530 -13.529 -24.551  0.00  0.00    -0.251 NA
ATOM     17  N   UNL     1      33.698 -11.497 -23.458  0.00  0.00    -0.283 N 
ATOM     18  C   UNL     1      33.892 -14.734 -22.054  0.00  0.00    +0.243 C 
ATOM     19  C   UNL     1      33.711 -15.557 -23.260  0.00  0.00    +0.241 C 
ATOM     20  C   UNL     1      33.522 -14.903 -24.560  0.00  0.00    +0.239 C 
ATOM     21  C   UNL     1      33.699 -12.872 -23.420  0.00  0.00    +0.208 C 
ATOM     22  H   UNL     1      34.176 -15.453 -20.112  0.00  0.00    +0.175 HD
ATOM     23  H   UNL     1      33.822 -10.980 -22.629  0.00  0.00    +0.156 HD
ATOM     24  H   UNL     1      33.574 -11.029 -24.315  0.00  0.00    +0.156 HD
ENDBRANCH   5  12
ENDBRANCH   3   6
BRANCH   2  25
ATOM     25  C   UNL     1      33.424 -23.263 -17.958  0.00  0.00    +0.117 C 
BRANCH  25  26
ATOM     26  C   UNL     1      32.941 -22.943 -16.573  0.00  0.00    +0.003 C 
ATOM     27  C   UNL     1      33.826 -22.715 -15.522  0.00  0.00    +0.027 C 
ATOM     28  C   UNL     1      31.567 -22.880 -16.362  0.00  0.00    -0.002 C 
ATOM     29  C   UNL     1      33.332 -22.423 -14.252  0.00  0.00    +0.006 C 
ATOM     30  C   UNL     1      31.073 -22.588 -15.091  0.00  0.00    -0.000 C 
ATOM     31  C   UNL     1      31.955 -22.358 -14.036  0.00  0.00    +0.000 C 
BRANCH  27  32
ATOM     32  S   UNL     1      35.598 -22.786 -15.748  0.00  0.00    -0.087 S 
BRANCH  32  33
ATOM     33  C   UNL     1      36.115 -23.480 -14.185  0.00  0.00    +0.028 C 
ATOM     34  C   UNL     1      36.110 -24.857 -13.954  0.00  0.00    +0.013 C 
ATOM     35  C   UNL     1      36.531 -22.608 -13.177  0.00  0.00    +0.006 C 
ATOM     36  C   UNL     1      36.522 -25.360 -12.720  0.00  0.00    -0.001 C 
ATOM     37  C   UNL     1      36.941 -23.112 -11.943  0.00  0.00    +0.000 C 
ATOM     38  C   UNL     1      36.937 -24.488 -11.714  0.00  0.00    -0.000 C 
BRANCH  34  39
ATOM     39  C   UNL     1      35.675 -25.833 -15.000  0.00  0.00    +0.164 C 
BRANCH  39  40
ATOM     40  O   UNL     1      36.822 -26.410 -15.609  0.00  0.00    -0.377 OA
ATOM     41  H   UNL     1      37.514 -25.736 -15.698  0.00  0.00    +0.211 HD
ENDBRANCH  39  40
ENDBRANCH  34  39
ENDBRANCH  32  33
ENDBRANCH  27  32
ENDBRANCH  25  26
ENDBRANCH   2  25
TORSDOF 8
ENDMDL
MODEL 4
REMARK VINA RESULT:     -12.9      4.376     11.599
REMARK  Name = 448408
REMARK  8 active torsions:
REMARK  status: ('A' for Active; 'I' for Inactive)
REMARK    1  A    between atoms: N_2  and  C_25
REMARK    2  A    between atoms: C_3  and  C_6
REMARK    3  A    between atoms: C_5  and  N_12
REMARK    4  A    between atoms: C_25  and  C_26
REMARK    5  A    between atoms: C_27  and  S_32
REMARK    6  A    between atoms: S_32  and  C_33
REMARK    7  A    between atoms: C_34  and  C_39
REMARK    8  A    between atoms: C_39  and  O_40
REMARK                            x       y       z     vdW  Elec       q    Type
REMARK                         _______ _______ _______ _____ _____    ______ ____
ROOT
ATOM      1  O   UNL     1      33.443 -22.642 -19.890  0.00  0.00    -0.270 OA
ATOM      2  N   UNL     1      32.782 -20.481 -19.374  0.00  0.00    -0.297 N 
ATOM      3  C   UNL     1      33.008 -21.826 -19.059  0.00  0.00    +0.246 C 
ATOM      4  H   UNL     1      32.435 -19.889 -18.667  0.00  0.00    +0.150 HD
ENDROOT
BRANCH   3   6
ATOM      5  C   UNL     1      33.381 -23.237 -15.591  0.00  0.00    +0.090 C 
ATOM      6  C   UNL     1      32.689 -22.250 -17.705  0.00  0.00    +0.055 C 
ATOM      7  C   UNL     1      33.675 -22.822 -16.901  0.00  0.00    +0.023 C 
ATOM      8  C   UNL     1      32.073 -23.064 -15.108  0.00  0.00    +0.018 C 
ATOM      9  C   UNL     1      31.394 -22.085 -17.210  0.00  0.00    +0.005 C 
ATOM     10  C   UNL     1      31.087 -22.491 -15.912  0.00  0.00    +0.002 C 
BRANCH   5  12
ATOM     11  O   UNL     1      37.147 -22.117 -12.191  0.00  0.00    -0.207 OA
ATOM     12  N   UNL     1      34.364 -23.806 -14.789  0.00  0.00    -0.137 N 
ATOM     13  N   UNL     1      35.115 -24.886 -15.133  0.00  0.00    -0.215 N 
ATOM     14  N   UNL     1      35.035 -22.989 -13.883  0.00  0.00    -0.143 NA
ATOM     15  N   UNL     1      37.371 -25.506 -14.379  0.00  0.00    -0.309 NA
ATOM     16  N   UNL     1      38.384 -23.977 -12.811  0.00  0.00    -0.251 NA
ATOM     17  N   UNL     1      39.528 -25.866 -13.499  0.00  0.00    -0.283 N 
ATOM     18  C   UNL     1      36.296 -24.816 -14.470  0.00  0.00    +0.243 C 
ATOM     19  C   UNL     1      36.175 -23.575 -13.689  0.00  0.00    +0.241 C 
ATOM     20  C   UNL     1      37.283 -23.154 -12.824  0.00  0.00    +0.239 C 
ATOM     21  C   UNL     1      38.405 -25.071 -13.545  0.00  0.00    +0.208 C 
ATOM     22  H   UNL     1      34.847 -25.598 -15.757  0.00  0.00    +0.175 HD
ATOM     23  H   UNL     1      39.571 -26.689 -14.037  0.00  0.00    +0.156 HD
ATOM     24  H   UNL     1      40.289 -25.610 -12.929  0.00  0.00    +0.156 HD
ENDBRANCH   5  12
ENDBRANCH   3   6
BRANCH   2  25
ATOM     25  C   UNL     1      33.027 -19.914 -20.681  0.00  0.00    +0.117 C 
BRANCH  25  26
ATOM     26  C   UNL     1      34.436 -19.415 -20.821  0.00  0.00    +0.003 C 
ATOM     27  C   UNL     1      34.792 -18.487 -21.795  0.00  0.00    +0.027 C 
ATOM     28  C   UNL     1      35.391 -19.913 -19.939  0.00  0.00    -0.002 C 
ATOM     29  C   UNL     1      36.114 -18.054 -21.888  0.00  0.00    +0.006 C 
ATOM     30  C   UNL     1      36.713 -19.479 -20.032  0.00  0.00    -0.000 C 
ATOM     31  C   UNL     1      37.074 -18.549 -21.006  0.00  0.00    +0.000 C 
BRANCH  27  32
ATOM     32  S   UNL     1      33.598 -17.823 -22.948  0.00  0.00    -0.087 S 
BRANCH  32  33
ATOM     33  C   UNL     1      33.715 -16.076 -22.594  0.00  0.00    +0.028 C 
ATOM     34  C   UNL     1      33.635 -15.114 -23.604  0.00  0.00    +0.013 C 
ATOM     35  C   UNL     1      33.892 -15.678 -21.268  0.00  0.00    +0.006 C 
ATOM     36  C   UNL     1      33.731 -13.759 -23.287  0.00  0.00    -0.001 C 
ATOM     37  C   UNL     1      33.988 -14.323 -20.952  0.00  0.00    +0.000 C 
ATOM     38  C   UNL     1      33.908 -13.364 -21.961  0.00  0.00    -0.000 C 
BRANCH  34  39
ATOM     39  C   UNL     1      33.446 -15.488 -25.039  0.00  0.00    +0.164 C 
BRANCH  39  40
ATOM     40  O   UNL     1      32.845 -14.402 -25.730  0.00  0.00    -0.377 OA
ATOM     41  H   UNL     1      32.768 -14.621 -26.672  0.00  0.00    +0.211 HD
ENDBRANCH  39  40
ENDBRANCH  34  39
ENDBRANCH  32  33
ENDBRANCH  27  32
ENDBRANCH  25  26
ENDBRANCH   2  25
TORSDOF 8
ENDMDL
MODEL 5
REMARK VINA RESULT:     -12.9      8.272     14.735
REMARK  Name = 448408
REMARK  8 active torsions:
REMARK  status: ('A' for Active; 'I' for Inactive)
REMARK    1  A    between atoms: N_2  and  C_25
REMARK    2  A    between atoms: C_3  and  C_6
REMARK    3  A    between atoms: C_5  and  N_12
REMARK    4  A    between atoms: C_25  and  C_26
REMARK    5  A    between atoms: C_27  and  S_32
REMARK    6  A    between atoms: S_32  and  C_33
REMARK    7  A    between atoms: C_34  and  C_39
REMARK    8  A    between atoms: C_39  and  O_40
REMARK                            x       y       z     vdW  Elec       q    Type
REMARK                         _______ _______ _______ _____ _____    ______ ____
ROOT
ATOM      1  O   UNL     1      29.693  -7.277 -23.379  0.00  0.00    -0.270 OA
ATOM      2  N   UNL     1      31.655  -7.642 -24.560  0.00  0.00    -0.297 N 
ATOM      3  C   UNL     1      30.742  -7.927 -23.538  0.00  0.00    +0.246 C 
ATOM      4  H   UNL     1      32.466  -8.197 -24.628  0.00  0.00    +0.150 HD
ENDROOT
BRANCH   3   6
ATOM      5  C   UNL     1      32.251 -11.106 -22.207  0.00  0.00    +0.090 C 
ATOM      6  C   UNL     1      31.080  -9.016 -22.636  0.00  0.00    +0.055 C 
ATOM      7  C   UNL     1      31.915 -10.046 -23.067  0.00  0.00    +0.023 C 
ATOM      8  C   UNL     1      31.727 -11.106 -20.903  0.00  0.00    +0.018 C 
ATOM      9  C   UNL     1      30.568  -9.030 -21.337  0.00  0.00    +0.005 C 
ATOM     10  C   UNL     1      30.891 -10.074 -20.472  0.00  0.00    +0.002 C 
BRANCH   5  12
ATOM     11  O   UNL     1      32.928 -14.616 -25.977  0.00  0.00    -0.207 OA
ATOM     12  N   UNL     1      33.084 -12.133 -22.637  0.00  0.00    -0.137 N 
ATOM     13  N   UNL     1      33.705 -13.022 -21.817  0.00  0.00    -0.215 N 
ATOM     14  N   UNL     1      32.869 -12.673 -23.902  0.00  0.00    -0.143 NA
ATOM     15  N   UNL     1      34.438 -15.319 -22.296  0.00  0.00    -0.309 NA
ATOM     16  N   UNL     1      33.987 -16.093 -24.538  0.00  0.00    -0.251 NA
ATOM     17  N   UNL     1      35.039 -17.481 -23.016  0.00  0.00    -0.283 N 
ATOM     18  C   UNL     1      33.918 -14.168 -22.511  0.00  0.00    +0.243 C 
ATOM     19  C   UNL     1      33.357 -13.873 -23.838  0.00  0.00    +0.241 C 
ATOM     20  C   UNL     1      33.405 -14.897 -24.888  0.00  0.00    +0.239 C 
ATOM     21  C   UNL     1      34.464 -16.269 -23.321  0.00  0.00    +0.208 C 
ATOM     22  H   UNL     1      33.957 -12.861 -20.879  0.00  0.00    +0.175 HD
ATOM     23  H   UNL     1      35.404 -17.641 -22.116  0.00  0.00    +0.156 HD
ATOM     24  H   UNL     1      35.086 -18.189 -23.699  0.00  0.00    +0.156 HD
ENDBRANCH   5  12
ENDBRANCH   3   6
BRANCH   2  25
ATOM     25  C   UNL     1      31.473  -6.576 -25.520  0.00  0.00    +0.117 C 
BRANCH  25  26
ATOM     26  C   UNL     1      32.709  -5.737 -25.667  0.00  0.00    +0.003 C 
ATOM     27  C   UNL     1      32.861  -4.532 -24.987  0.00  0.00    +0.027 C 
ATOM     28  C   UNL     1      33.711  -6.200 -26.514  0.00  0.00    -0.002 C 
ATOM     29  C   UNL     1      34.026  -3.784 -25.155  0.00  0.00    +0.006 C 
ATOM     30  C   UNL     1      34.876  -5.452 -26.682  0.00  0.00    -0.000 C 
ATOM     31  C   UNL     1      35.034  -4.245 -26.003  0.00  0.00    +0.000 C 
BRANCH  27  32
ATOM     32  S   UNL     1      31.599  -3.899 -23.890  0.00  0.00    -0.087 S 
BRANCH  32  33
ATOM     33  C   UNL     1      31.924  -4.846 -22.411  0.00  0.00    +0.028 C 
ATOM     34  C   UNL     1      31.036  -4.854 -21.334  0.00  0.00    +0.013 C 
ATOM     35  C   UNL     1      33.103  -5.590 -22.345  0.00  0.00    +0.006 C 
ATOM     36  C   UNL     1      31.325  -5.607 -20.196  0.00  0.00    -0.001 C 
ATOM     37  C   UNL     1      33.393  -6.342 -21.207  0.00  0.00    +0.000 C 
ATOM     38  C   UNL     1      32.504  -6.350 -20.132  0.00  0.00    -0.000 C 
BRANCH  34  39
ATOM     39  C   UNL     1      29.760  -4.075 -21.354  0.00  0.00    +0.164 C 
BRANCH  39  40
ATOM     40  O   UNL     1      30.059  -2.686 -21.301  0.00  0.00    -0.377 OA
ATOM     41  H   UNL     1      30.791  -2.490 -21.907  0.00  0.00    +0.211 HD
ENDBRANCH  39  40
ENDBRANCH  34  39
ENDBRANCH  32  33
ENDBRANCH  27  32
ENDBRANCH  25  26
ENDBRANCH   2  25
TORSDOF 8
ENDMDL
MODEL 6
REMARK VINA RESULT:     -12.8      1.741      2.187
REMARK  Name = 448408
REMARK  8 active torsions:
REMARK  status: ('A' for Active; 'I' for Inactive)
REMARK    1  A    between atoms: N_2  and  C_25
REMARK    2  A    between atoms: C_3  and  C_6
REMARK    3  A    between atoms: C_5  and  N_12
REMARK    4  A    between atoms: C_25  and  C_26
REMARK    5  A    between atoms: C_27  and  S_32
REMARK    6  A    between atoms: S_32  and  C_33
REMARK    7  A    between atoms: C_34  and  C_39
REMARK    8  A    between atoms: C_39  and  O_40
REMARK                            x       y       z     vdW  Elec       q    Type
REMARK                         _______ _______ _______ _____ _____    ______ ____
ROOT
ATOM      1  O   UNL     1      36.808 -18.647 -19.597  0.00  0.00    -0.270 OA
ATOM      2  N   UNL     1      35.493 -20.556 -19.586  0.00  0.00    -0.297 N 
ATOM      3  C   UNL     1      35.931 -19.346 -20.135  0.00  0.00    +0.246 C 
ATOM      4  H   UNL     1      34.795 -21.059 -20.065  0.00  0.00    +0.150 HD
ENDROOT
BRANCH   3   6
ATOM      5  C   UNL     1      34.142 -17.194 -22.650  0.00  0.00    +0.090 C 
ATOM      6  C   UNL     1      35.296 -18.912 -21.369  0.00  0.00    +0.055 C 
ATOM      7  C   UNL     1      34.759 -17.627 -21.464  0.00  0.00    +0.023 C 
ATOM      8  C   UNL     1      34.075 -18.081 -23.737  0.00  0.00    +0.018 C 
ATOM      9  C   UNL     1      35.222 -19.781 -22.459  0.00  0.00    +0.005 C 
ATOM     10  C   UNL     1      34.612 -19.366 -23.642  0.00  0.00    +0.002 C 
BRANCH   5  12
ATOM     11  O   UNL     1      32.424 -13.639 -26.027  0.00  0.00    -0.207 OA
ATOM     12  N   UNL     1      33.608 -15.914 -22.744  0.00  0.00    -0.137 N 
ATOM     13  N   UNL     1      33.962 -14.865 -21.955  0.00  0.00    -0.215 N 
ATOM     14  N   UNL     1      33.142 -15.481 -23.984  0.00  0.00    -0.143 NA
ATOM     15  N   UNL     1      33.874 -12.458 -22.445  0.00  0.00    -0.309 NA
ATOM     16  N   UNL     1      33.042 -11.888 -24.637  0.00  0.00    -0.251 NA
ATOM     17  N   UNL     1      33.687 -10.223 -23.168  0.00  0.00    -0.283 N 
ATOM     18  C   UNL     1      33.743 -13.717 -22.642  0.00  0.00    +0.243 C 
ATOM     19  C   UNL     1      33.218 -14.187 -23.933  0.00  0.00    +0.241 C 
ATOM     20  C   UNL     1      32.856 -13.210 -24.966  0.00  0.00    +0.239 C 
ATOM     21  C   UNL     1      33.519 -11.558 -23.454  0.00  0.00    +0.208 C 
ATOM     22  H   UNL     1      34.317 -14.929 -21.039  0.00  0.00    +0.175 HD
ATOM     23  H   UNL     1      34.041  -9.947 -22.292  0.00  0.00    +0.156 HD
ATOM     24  H   UNL     1      33.454  -9.543 -23.840  0.00  0.00    +0.156 HD
ENDBRANCH   5  12
ENDBRANCH   3   6
BRANCH   2  25
ATOM     25  C   UNL     1      36.009 -21.109 -18.354  0.00  0.00    +0.117 C 
BRANCH  25  26
ATOM     26  C   UNL     1      34.940 -21.798 -17.557  0.00  0.00    +0.003 C 
ATOM     27  C   UNL     1      35.185 -22.301 -16.283  0.00  0.00    +0.027 C 
ATOM     28  C   UNL     1      33.680 -21.924 -18.134  0.00  0.00    -0.002 C 
ATOM     29  C   UNL     1      34.161 -22.935 -15.580  0.00  0.00    +0.006 C 
ATOM     30  C   UNL     1      32.656 -22.558 -17.431  0.00  0.00    -0.000 C 
ATOM     31  C   UNL     1      32.896 -23.063 -16.154  0.00  0.00    +0.000 C 
BRANCH  27  32
ATOM     32  S   UNL     1      36.788 -22.162 -15.504  0.00  0.00    -0.087 S 
BRANCH  32  33
ATOM     33  C   UNL     1      36.816 -23.645 -14.509  0.00  0.00    +0.028 C 
ATOM     34  C   UNL     1      36.675 -23.601 -13.120  0.00  0.00    +0.013 C 
ATOM     35  C   UNL     1      36.983 -24.873 -15.151  0.00  0.00    +0.006 C 
ATOM     36  C   UNL     1      36.702 -24.782 -12.377  0.00  0.00    -0.001 C 
ATOM     37  C   UNL     1      37.010 -26.053 -14.408  0.00  0.00    +0.000 C 
ATOM     38  C   UNL     1      36.870 -26.007 -13.021  0.00  0.00    -0.000 C 
BRANCH  34  39
ATOM     39  C   UNL     1      36.493 -22.313 -12.384  0.00  0.00    +0.164 C 
BRANCH  39  40
ATOM     40  O   UNL     1      37.737 -21.912 -11.826  0.00  0.00    -0.377 OA
ATOM     41  H   UNL     1      37.944 -21.009 -12.114  0.00  0.00    +0.211 HD
ENDBRANCH  39  40
ENDBRANCH  34  39
ENDBRANCH  32  33
ENDBRANCH  27  32
ENDBRANCH  25  26
ENDBRANCH   2  25
TORSDOF 8
ENDMDL
MODEL 7
REMARK VINA RESULT:     -12.7      2.394      4.638
REMARK  Name = 448408
REMARK  8 active torsions:
REMARK  status: ('A' for Active; 'I' for Inactive)
REMARK    1  A    between atoms: N_2  and  C_25
REMARK    2  A    between atoms: C_3  and  C_6
REMARK    3  A    between atoms: C_5  and  N_12
REMARK    4  A    between atoms: C_25  and  C_26
REMARK    5  A    between atoms: C_27  and  S_32
REMARK    6  A    between atoms: S_32  and  C_33
REMARK    7  A    between atoms: C_34  and  C_39
REMARK    8  A    between atoms: C_39  and  O_40
REMARK                            x       y       z     vdW  Elec       q    Type
REMARK                         _______ _______ _______ _____ _____    ______ ____
ROOT
ATOM      1  O   UNL     1      37.207 -19.795 -16.931  0.00  0.00    -0.270 OA
ATOM      2  N   UNL     1      36.835 -22.082 -16.859  0.00  0.00    -0.297 N 
ATOM      3  C   UNL     1      36.665 -20.807 -17.410  0.00  0.00    +0.246 C 
ATOM      4  H   UNL     1      36.376 -22.840 -17.289  0.00  0.00    +0.150 HD
ENDROOT
BRANCH   3   6
ATOM      5  C   UNL     1      35.031 -19.456 -20.518  0.00  0.00    +0.090 C 
ATOM      6  C   UNL     1      35.796 -20.700 -18.571  0.00  0.00    +0.055 C 
ATOM      7  C   UNL     1      35.865 -19.574 -19.393  0.00  0.00    +0.023 C 
ATOM      8  C   UNL     1      34.127 -20.494 -20.798  0.00  0.00    +0.018 C 
ATOM      9  C   UNL     1      34.893 -21.723 -18.863  0.00  0.00    +0.005 C 
ATOM     10  C   UNL     1      34.059 -21.620 -19.976  0.00  0.00    +0.002 C 
BRANCH   5  12
ATOM     11  O   UNL     1      34.196 -14.329 -20.637  0.00  0.00    -0.207 OA
ATOM     12  N   UNL     1      35.099 -18.335 -21.337  0.00  0.00    -0.137 N 
ATOM     13  N   UNL     1      34.806 -18.325 -22.665  0.00  0.00    -0.215 N 
ATOM     14  N   UNL     1      34.895 -17.082 -20.764  0.00  0.00    -0.143 NA
ATOM     15  N   UNL     1      34.011 -16.465 -24.062  0.00  0.00    -0.309 NA
ATOM     16  N   UNL     1      33.712 -14.369 -22.904  0.00  0.00    -0.251 NA
ATOM     17  N   UNL     1      33.259 -14.524 -25.167  0.00  0.00    -0.283 N 
ATOM     18  C   UNL     1      34.403 -17.076 -23.006  0.00  0.00    +0.243 C 
ATOM     19  C   UNL     1      34.484 -16.333 -21.739  0.00  0.00    +0.241 C 
ATOM     20  C   UNL     1      34.117 -14.913 -21.708  0.00  0.00    +0.239 C 
ATOM     21  C   UNL     1      33.670 -15.112 -23.992  0.00  0.00    +0.208 C 
ATOM     22  H   UNL     1      34.876 -19.095 -23.275  0.00  0.00    +0.175 HD
ATOM     23  H   UNL     1      33.218 -15.054 -25.996  0.00  0.00    +0.156 HD
ATOM     24  H   UNL     1      33.006 -13.573 -25.179  0.00  0.00    +0.156 HD
ENDBRANCH   5  12
ENDBRANCH   3   6
BRANCH   2  25
ATOM     25  C   UNL     1      37.647 -22.347 -15.693  0.00  0.00    +0.117 C 
BRANCH  25  26
ATOM     26  C   UNL     1      37.141 -23.527 -14.914  0.00  0.00    +0.003 C 
ATOM     27  C   UNL     1      35.831 -23.589 -14.446  0.00  0.00    +0.027 C 
ATOM     28  C   UNL     1      38.028 -24.570 -14.666  0.00  0.00    -0.002 C 
ATOM     29  C   UNL     1      35.406 -24.705 -13.725  0.00  0.00    +0.006 C 
ATOM     30  C   UNL     1      37.602 -25.686 -13.946  0.00  0.00    -0.000 C 
ATOM     31  C   UNL     1      36.291 -25.753 -13.476  0.00  0.00    +0.000 C 
BRANCH  27  32
ATOM     32  S   UNL     1      34.659 -22.272 -14.740  0.00  0.00    -0.087 S 
BRANCH  32  33
ATOM     33  C   UNL     1      33.111 -23.126 -14.482  0.00  0.00    +0.028 C 
ATOM     34  C   UNL     1      32.166 -23.258 -15.501  0.00  0.00    +0.013 C 
ATOM     35  C   UNL     1      32.856 -23.670 -13.222  0.00  0.00    +0.006 C 
ATOM     36  C   UNL     1      30.969 -23.932 -15.260  0.00  0.00    -0.001 C 
ATOM     37  C   UNL     1      31.659 -24.344 -12.982  0.00  0.00    +0.000 C 
ATOM     38  C   UNL     1      30.715 -24.475 -14.001  0.00  0.00    -0.000 C 
BRANCH  34  39
ATOM     39  C   UNL     1      32.391 -22.694 -16.867  0.00  0.00    +0.164 C 
BRANCH  39  40
ATOM     40  O   UNL     1      31.183 -22.111 -17.338  0.00  0.00    -0.377 OA
ATOM     41  H   UNL     1      31.370 -21.232 -17.703  0.00  0.00    +0.211 HD
ENDBRANCH  39  40
ENDBRANCH  34  39
ENDBRANCH  32  33
ENDBRANCH  27  32
ENDBRANCH  25  26
ENDBRANCH   2  25
TORSDOF 8
ENDMDL
MODEL 8
REMARK VINA RESULT:     -12.4      4.459     12.815
REMARK  Name = 448408
REMARK  8 active torsions:
REMARK  status: ('A' for Active; 'I' for Inactive)
REMARK    1  A    between atoms: N_2  and  C_25
REMARK    2  A    between atoms: C_3  and  C_6
REMARK    3  A    between atoms: C_5  and  N_12
REMARK    4  A    between atoms: C_25  and  C_26
REMARK    5  A    between atoms: C_27  and  S_32
REMARK    6  A    between atoms: S_32  and  C_33
REMARK    7  A    between atoms: C_34  and  C_39
REMARK    8  A    between atoms: C_39  and  O_40
REMARK                            x       y       z     vdW  Elec       q    Type
REMARK                         _______ _______ _______ _____ _____    ______ ____
ROOT
ATOM      1  O   UNL     1      34.270 -13.584 -21.501  0.00  0.00    -0.270 OA
ATOM      2  N   UNL     1      33.634 -12.715 -23.555  0.00  0.00    -0.297 N 
ATOM      3  C   UNL     1      33.927 -13.770 -22.682  0.00  0.00    +0.246 C 
ATOM      4  H   UNL     1      33.370 -12.935 -24.478  0.00  0.00    +0.150 HD
ENDROOT
BRANCH   3   6
ATOM      5  C   UNL     1      34.159 -17.515 -22.956  0.00  0.00    +0.090 C 
ATOM      6  C   UNL     1      33.839 -15.117 -23.222  0.00  0.00    +0.055 C 
ATOM      7  C   UNL     1      34.238 -16.207 -22.448  0.00  0.00    +0.023 C 
ATOM      8  C   UNL     1      33.671 -17.702 -24.260  0.00  0.00    +0.018 C 
ATOM      9  C   UNL     1      33.355 -15.320 -24.516  0.00  0.00    +0.005 C 
ATOM     10  C   UNL     1      33.271 -16.612 -25.034  0.00  0.00    +0.002 C 
BRANCH   5  12
ATOM     11  O   UNL     1      32.389 -21.286 -19.852  0.00  0.00    -0.207 OA
ATOM     12  N   UNL     1      34.556 -18.601 -22.185  0.00  0.00    -0.137 N 
ATOM     13  N   UNL     1      35.700 -18.655 -21.452  0.00  0.00    -0.215 N 
ATOM     14  N   UNL     1      33.572 -19.428 -21.650  0.00  0.00    -0.143 NA
ATOM     15  N   UNL     1      36.183 -19.964 -19.428  0.00  0.00    -0.309 NA
ATOM     16  N   UNL     1      34.364 -21.341 -18.640  0.00  0.00    -0.251 NA
ATOM     17  N   UNL     1      36.381 -21.317 -17.508  0.00  0.00    -0.283 N 
ATOM     18  C   UNL     1      35.508 -19.513 -20.419  0.00  0.00    +0.243 C 
ATOM     19  C   UNL     1      34.123 -19.970 -20.608  0.00  0.00    +0.241 C 
ATOM     20  C   UNL     1      33.543 -20.931 -19.663  0.00  0.00    +0.239 C 
ATOM     21  C   UNL     1      35.595 -20.877 -18.548  0.00  0.00    +0.208 C 
ATOM     22  H   UNL     1      36.528 -18.156 -21.640  0.00  0.00    +0.175 HD
ATOM     23  H   UNL     1      37.304 -20.988 -17.415  0.00  0.00    +0.156 HD
ATOM     24  H   UNL     1      36.020 -21.961 -16.857  0.00  0.00    +0.156 HD
ENDBRANCH   5  12
ENDBRANCH   3   6
BRANCH   2  25
ATOM     25  C   UNL     1      33.700 -11.322 -23.175  0.00  0.00    +0.117 C 
BRANCH  25  26
ATOM     26  C   UNL     1      32.416 -10.847 -22.559  0.00  0.00    +0.003 C 
ATOM     27  C   UNL     1      32.073  -9.499 -22.528  0.00  0.00    +0.027 C 
ATOM     28  C   UNL     1      31.567 -11.804 -22.010  0.00  0.00    -0.002 C 
ATOM     29  C   UNL     1      30.870  -9.104 -21.943  0.00  0.00    +0.006 C 
ATOM     30  C   UNL     1      30.364 -11.409 -21.426  0.00  0.00    -0.000 C 
ATOM     31  C   UNL     1      30.015 -10.059 -21.392  0.00  0.00    +0.000 C 
BRANCH  27  32
ATOM     32  S   UNL     1      33.134  -8.237 -23.220  0.00  0.00    -0.087 S 
BRANCH  32  33
ATOM     33  C   UNL     1      32.123  -6.780 -22.999  0.00  0.00    +0.028 C 
ATOM     34  C   UNL     1      32.134  -6.052 -21.808  0.00  0.00    +0.013 C 
ATOM     35  C   UNL     1      31.306  -6.373 -24.055  0.00  0.00    +0.006 C 
ATOM     36  C   UNL     1      31.330  -4.920 -21.674  0.00  0.00    -0.001 C 
ATOM     37  C   UNL     1      30.502  -5.242 -23.921  0.00  0.00    +0.000 C 
ATOM     38  C   UNL     1      30.514  -4.515 -22.730  0.00  0.00    -0.000 C 
BRANCH  34  39
ATOM     39  C   UNL     1      32.990  -6.446 -20.647  0.00  0.00    +0.164 C 
BRANCH  39  40
ATOM     40  O   UNL     1      32.159  -6.804 -19.552  0.00  0.00    -0.377 OA
ATOM     41  H   UNL     1      31.705  -7.638 -19.751  0.00  0.00    +0.211 HD
ENDBRANCH  39  40
ENDBRANCH  34  39
ENDBRANCH  32  33
ENDBRANCH  27  32
ENDBRANCH  25  26
ENDBRANCH   2  25
TORSDOF 8
ENDMDL
MODEL 9
REMARK VINA RESULT:     -12.2      2.304      4.595
REMARK  Name = 448408
REMARK  8 active torsions:
REMARK  status: ('A' for Active; 'I' for Inactive)
REMARK    1  A    between atoms: N_2  and  C_25
REMARK    2  A    between atoms: C_3  and  C_6
REMARK    3  A    between atoms: C_5  and  N_12
REMARK    4  A    between atoms: C_25  and  C_26
REMARK    5  A    between atoms: C_27  and  S_32
REMARK    6  A    between atoms: S_32  and  C_33
REMARK    7  A    between atoms: C_34  and  C_39
REMARK    8  A    between atoms: C_39  and  O_40
REMARK                            x       y       z     vdW  Elec       q    Type
REMARK                         _______ _______ _______ _____ _____    ______ ____
ROOT
ATOM      1  O   UNL     1      37.258 -19.790 -16.906  0.00  0.00    -0.270 OA
ATOM      2  N   UNL     1      36.861 -22.072 -16.805  0.00  0.00    -0.297 N 
ATOM      3  C   UNL     1      36.718 -20.805 -17.382  0.00  0.00    +0.246 C 
ATOM      4  H   UNL     1      36.406 -22.833 -17.233  0.00  0.00    +0.150 HD
ENDROOT
BRANCH   3   6
ATOM      5  C   UNL     1      35.118 -19.456 -20.508  0.00  0.00    +0.090 C 
ATOM      6  C   UNL     1      35.881 -20.710 -18.567  0.00  0.00    +0.055 C 
ATOM      7  C   UNL     1      35.922 -19.563 -19.360  0.00  0.00    +0.023 C 
ATOM      8  C   UNL     1      34.272 -20.528 -20.839  0.00  0.00    +0.018 C 
ATOM      9  C   UNL     1      35.035 -21.766 -18.910  0.00  0.00    +0.005 C 
ATOM     10  C   UNL     1      34.231 -21.675 -20.045  0.00  0.00    +0.002 C 
BRANCH   5  12
ATOM     11  O   UNL     1      34.229 -14.337 -20.480  0.00  0.00    -0.207 OA
ATOM     12  N   UNL     1      35.159 -18.314 -21.300  0.00  0.00    -0.137 N 
ATOM     13  N   UNL     1      34.841 -18.273 -22.621  0.00  0.00    -0.215 N 
ATOM     14  N   UNL     1      34.953 -17.079 -20.690  0.00  0.00    -0.143 NA
ATOM     15  N   UNL     1      34.000 -16.387 -23.954  0.00  0.00    -0.309 NA
ATOM     16  N   UNL     1      33.702 -14.324 -22.738  0.00  0.00    -0.251 NA
ATOM     17  N   UNL     1      33.207 -14.427 -24.995  0.00  0.00    -0.283 N 
ATOM     18  C   UNL     1      34.418 -17.021 -22.922  0.00  0.00    +0.243 C 
ATOM     19  C   UNL     1      34.516 -16.309 -21.638  0.00  0.00    +0.241 C 
ATOM     20  C   UNL     1      34.135 -14.894 -21.564  0.00  0.00    +0.239 C 
ATOM     21  C   UNL     1      33.646 -15.040 -23.844  0.00  0.00    +0.208 C 
ATOM     22  H   UNL     1      34.906 -19.027 -23.252  0.00  0.00    +0.175 HD
ATOM     23  H   UNL     1      33.156 -14.936 -25.836  0.00  0.00    +0.156 HD
ATOM     24  H   UNL     1      32.944 -13.478 -24.978  0.00  0.00    +0.156 HD
ENDBRANCH   5  12
ENDBRANCH   3   6
BRANCH   2  25
ATOM     25  C   UNL     1      37.639 -22.325 -15.613  0.00  0.00    +0.117 C 
BRANCH  25  26
ATOM     26  C   UNL     1      37.240 -23.607 -14.943  0.00  0.00    +0.003 C 
ATOM     27  C   UNL     1      36.107 -23.693 -14.139  0.00  0.00    +0.027 C 
ATOM     28  C   UNL     1      38.043 -24.725 -15.150  0.00  0.00    -0.002 C 
ATOM     29  C   UNL     1      35.776 -24.906 -13.536  0.00  0.00    +0.006 C 
ATOM     30  C   UNL     1      37.712 -25.938 -14.547  0.00  0.00    -0.000 C 
ATOM     31  C   UNL     1      36.578 -26.029 -13.740  0.00  0.00    +0.000 C 
BRANCH  27  32
ATOM     32  S   UNL     1      35.048 -22.283 -13.846  0.00  0.00    -0.087 S 
BRANCH  32  33
ATOM     33  C   UNL     1      33.621 -22.717 -14.829  0.00  0.00    +0.028 C 
ATOM     34  C   UNL     1      32.437 -23.172 -14.245  0.00  0.00    +0.013 C 
ATOM     35  C   UNL     1      33.708 -22.592 -16.217  0.00  0.00    +0.006 C 
ATOM     36  C   UNL     1      31.344 -23.501 -15.047  0.00  0.00    -0.001 C 
ATOM     37  C   UNL     1      32.615 -22.922 -17.018  0.00  0.00    +0.000 C 
ATOM     38  C   UNL     1      31.433 -23.376 -16.433  0.00  0.00    -0.000 C 
BRANCH  34  39
ATOM     39  C   UNL     1      32.292 -23.323 -12.765  0.00  0.00    +0.164 C 
BRANCH  39  40
ATOM     40  O   UNL     1      32.895 -24.544 -12.357  0.00  0.00    -0.377 OA
ATOM     41  H   UNL     1      32.409 -25.289 -12.743  0.00  0.00    +0.211 HD
ENDBRANCH  39  40
ENDBRANCH  34  39
ENDBRANCH  32  33
ENDBRANCH  27  32
ENDBRANCH  25  26
ENDBRANCH   2  25
TORSDOF 8
ENDMDL
