MODEL 1
REMARK VINA RESULT:     -12.3      0.000      0.000
REMARK  Name = 153241
REMARK  8 active torsions:
REMARK  status: ('A' for Active; 'I' for Inactive)
REMARK    1  A    between atoms: N_2  and  C_9
REMARK    2  A    between atoms: N_3  and  C_24
REMARK    3  A    between atoms: C_7  and  C_13
REMARK    4  A    between atoms: C_13  and  N_15
REMARK    5  A    between atoms: C_16  and  O_18
REMARK    6  A    between atoms: O_18  and  C_20
REMARK    7  A    between atoms: C_25  and  C_32
REMARK    8  A    between atoms: C_26  and  O_35
REMARK                            x       y       z     vdW  Elec       q    Type
REMARK                         _______ _______ _______ _____ _____    ______ ____
ROOT
ATOM      1  O   UNL     1      33.996 -14.781 -20.732  0.00  0.00    -0.252 OA
ATOM      2  N   UNL     1      34.256 -16.366 -22.438  0.00  0.00    -0.268 N 
ATOM      3  N   UNL     1      33.483 -14.251 -22.951  0.00  0.00    -0.268 N 
ATOM      4  C   UNL     1      33.918 -15.093 -21.915  0.00  0.00    +0.308 C 
ATOM      5  H   UNL     1      34.143 -16.472 -23.410  0.00  0.00    +0.156 HD
ATOM      6  H   UNL     1      33.475 -14.645 -23.853  0.00  0.00    +0.156 HD
ENDROOT
BRANCH   2   9
ATOM      7  C   UNL     1      34.314 -19.533 -20.557  0.00  0.00    -0.001 C 
ATOM      8  C   UNL     1      33.832 -18.417 -21.233  0.00  0.00    +0.012 C 
ATOM      9  C   UNL     1      34.730 -17.489 -21.757  0.00  0.00    +0.051 C 
ATOM     10  C   UNL     1      35.681 -19.733 -20.399  0.00  0.00    -0.003 C 
ATOM     11  C   UNL     1      36.104 -17.682 -21.605  0.00  0.00    +0.015 C 
ATOM     12  C   UNL     1      36.578 -18.803 -20.926  0.00  0.00    +0.001 C 
BRANCH   7  13
ATOM     13  C   UNL     1      33.348 -20.532 -19.990  0.00  0.00    +0.119 C 
BRANCH  13  15
ATOM     14  O   UNL     1      32.074 -22.146 -17.938  0.00  0.00    -0.226 OA
ATOM     15  N   UNL     1      33.981 -21.417 -19.039  0.00  0.00    -0.267 N 
ATOM     16  C   UNL     1      33.290 -22.147 -18.095  0.00  0.00    +0.402 C 
ATOM     17  H   UNL     1      34.962 -21.502 -19.066  0.00  0.00    +0.153 HD
BRANCH  16  18
ATOM     18  O   UNL     1      34.164 -22.888 -17.344  0.00  0.00    -0.436 OA
BRANCH  18  20
ATOM     19  O   UNL     1      36.122 -23.857 -15.238  0.00  0.00    -0.350 OA
ATOM     20  C   UNL     1      34.415 -22.414 -16.025  0.00  0.00    +0.202 C 
ATOM     21  C   UNL     1      33.817 -23.361 -15.014  0.00  0.00    +0.078 C 
ATOM     22  C   UNL     1      35.897 -22.526 -15.734  0.00  0.00    +0.186 C 
ATOM     23  C   UNL     1      34.854 -24.464 -14.959  0.00  0.00    +0.146 C 
ENDBRANCH  18  20
ENDBRANCH  16  18
ENDBRANCH  13  15
ENDBRANCH   7  13
ENDBRANCH   2   9
BRANCH   3  24
ATOM     24  C   UNL     1      33.054 -12.906 -22.857  0.00  0.00    +0.055 C 
ATOM     25  C   UNL     1      32.213 -10.273 -22.674  0.00  0.00    +0.070 C 
ATOM     26  C   UNL     1      31.729 -11.224 -21.776  0.00  0.00    +0.143 C 
ATOM     27  C   UNL     1      32.152 -12.550 -21.868  0.00  0.00    +0.052 C 
ATOM     28  C   UNL     1      33.544 -11.974 -23.757  0.00  0.00    +0.015 C 
ATOM     29  C   UNL     1      33.121 -10.648 -23.665  0.00  0.00    +0.007 C 
BRANCH  25  32
ATOM     30  O   UNL     1      32.626  -8.051 -21.944  0.00  0.00    -0.431 OA
ATOM     31  N   UNL     1      30.835  -6.873 -22.666  0.00  0.00    -0.203 NA
ATOM     32  C   UNL     1      31.788  -8.895 -22.596  0.00  0.00    +0.169 C 
ATOM     33  C   UNL     1      30.706  -8.187 -23.031  0.00  0.00    +0.140 C 
ATOM     34  C   UNL     1      31.984  -6.853 -22.028  0.00  0.00    +0.285 C 
ENDBRANCH  25  32
BRANCH  26  35
ATOM     35  O   UNL     1      30.841 -10.884 -20.798  0.00  0.00    -0.471 OA
ATOM     36  C   UNL     1      31.382 -10.383 -19.579  0.00  0.00    +0.252 C 
ENDBRANCH  26  35
ENDBRANCH   3  24
TORSDOF 8
ENDMDL
MODEL 2
REMARK VINA RESULT:     -11.9      2.311     12.011
REMARK  Name = 153241
REMARK  8 active torsions:
REMARK  status: ('A' for Active; 'I' for Inactive)
REMARK    1  A    between atoms: N_2  and  C_9
REMARK    2  A    between atoms: N_3  and  C_24
REMARK    3  A    between atoms: C_7  and  C_13
REMARK    4  A    between atoms: C_13  and  N_15
REMARK    5  A    between atoms: C_16  and  O_18
REMARK    6  A    between atoms: O_18  and  C_20
REMARK    7  A    between atoms: C_25  and  C_32
REMARK    8  A    between atoms: C_26  and  O_35
REMARK                            x       y       z     vdW  Elec       q    Type
REMARK                         _______ _______ _______ _____ _____    ______ ____
ROOT
ATOM      1  O   UNL     1      33.694 -19.793 -19.989  0.00  0.00    -0.252 OA
ATOM      2  N   UNL     1      35.460 -19.040 -21.332  0.00  0.00    -0.268 N 
ATOM      3  N   UNL     1      35.915 -20.254 -19.421  0.00  0.00    -0.268 N 
ATOM      4  C   UNL     1      34.896 -19.708 -20.217  0.00  0.00    +0.308 C 
ATOM      5  H   UNL     1      36.443 -19.054 -21.385  0.00  0.00    +0.156 HD
ATOM      6  H   UNL     1      36.836 -20.103 -19.733  0.00  0.00    +0.156 HD
ENDROOT
BRANCH   2   9
ATOM      7  C   UNL     1      34.332 -16.329 -23.556  0.00  0.00    -0.001 C 
ATOM      8  C   UNL     1      34.986 -16.992 -22.524  0.00  0.00    +0.012 C 
ATOM      9  C   UNL     1      34.807 -18.366 -22.365  0.00  0.00    +0.051 C 
ATOM     10  C   UNL     1      33.503 -17.021 -24.432  0.00  0.00    -0.003 C 
ATOM     11  C   UNL     1      33.977 -19.068 -23.239  0.00  0.00    +0.015 C 
ATOM     12  C   UNL     1      33.326 -18.396 -24.273  0.00  0.00    +0.001 C 
BRANCH   7  13
ATOM     13  C   UNL     1      34.522 -14.850 -23.727  0.00  0.00    +0.119 C 
BRANCH  13  15
ATOM     14  O   UNL     1      32.625 -12.995 -24.910  0.00  0.00    -0.226 OA
ATOM     15  N   UNL     1      33.490 -14.092 -23.058  0.00  0.00    -0.267 N 
ATOM     16  C   UNL     1      32.631 -13.230 -23.707  0.00  0.00    +0.402 C 
ATOM     17  H   UNL     1      33.396 -14.195 -22.083  0.00  0.00    +0.153 HD
BRANCH  16  18
ATOM     18  O   UNL     1      31.770 -12.661 -22.805  0.00  0.00    -0.436 OA
BRANCH  18  20
ATOM     19  O   UNL     1      30.408 -10.728 -20.903  0.00  0.00    -0.350 OA
ATOM     20  C   UNL     1      32.315 -11.641 -21.974  0.00  0.00    +0.202 C 
ATOM     21  C   UNL     1      32.033 -10.284 -22.570  0.00  0.00    +0.078 C 
ATOM     22  C   UNL     1      31.534 -11.593 -20.677  0.00  0.00    +0.186 C 
ATOM     23  C   UNL     1      30.596 -10.045 -22.150  0.00  0.00    +0.146 C 
ENDBRANCH  18  20
ENDBRANCH  16  18
ENDBRANCH  13  15
ENDBRANCH   7  13
ENDBRANCH   2   9
BRANCH   3  24
ATOM     24  C   UNL     1      35.781 -20.994 -18.222  0.00  0.00    +0.055 C 
ATOM     25  C   UNL     1      35.519 -22.443 -15.875  0.00  0.00    +0.070 C 
ATOM     26  C   UNL     1      34.549 -22.549 -16.873  0.00  0.00    +0.143 C 
ATOM     27  C   UNL     1      34.681 -21.819 -18.055  0.00  0.00    +0.052 C 
ATOM     28  C   UNL     1      36.753 -20.878 -17.242  0.00  0.00    +0.015 C 
ATOM     29  C   UNL     1      36.620 -21.608 -16.060  0.00  0.00    +0.007 C 
BRANCH  25  32
ATOM     30  O   UNL     1      36.307 -24.183 -14.464  0.00  0.00    -0.431 OA
ATOM     31  N   UNL     1      34.936 -24.123 -12.666  0.00  0.00    -0.203 NA
ATOM     32  C   UNL     1      35.401 -23.190 -14.645  0.00  0.00    +0.169 C 
ATOM     33  C   UNL     1      34.571 -23.152 -13.563  0.00  0.00    +0.140 C 
ATOM     34  C   UNL     1      35.963 -24.697 -13.251  0.00  0.00    +0.285 C 
ENDBRANCH  25  32
BRANCH  26  35
ATOM     35  O   UNL     1      33.462 -23.358 -16.719  0.00  0.00    -0.471 OA
ATOM     36  C   UNL     1      32.180 -22.751 -16.858  0.00  0.00    +0.252 C 
ENDBRANCH  26  35
ENDBRANCH   3  24
TORSDOF 8
ENDMDL
MODEL 3
REMARK VINA RESULT:     -11.8      3.285      5.301
REMARK  Name = 153241
REMARK  8 active torsions:
REMARK  status: ('A' for Active; 'I' for Inactive)
REMARK    1  A    between atoms: N_2  and  C_9
REMARK    2  A    between atoms: N_3  and  C_24
REMARK    3  A    between atoms: C_7  and  C_13
REMARK    4  A    between atoms: C_13  and  N_15
REMARK    5  A    between atoms: C_16  and  O_18
REMARK    6  A    between atoms: O_18  and  C_20
REMARK    7  A    between atoms: C_25  and  C_32
REMARK    8  A    between atoms: C_26  and  O_35
REMARK                            x       y       z     vdW  Elec       q    Type
REMARK                         _______ _______ _______ _____ _____    ______ ____
ROOT
ATOM      1  O   UNL     1      33.530 -18.562 -20.141  0.00  0.00    -0.252 OA
ATOM      2  N   UNL     1      35.175 -20.211 -20.390  0.00  0.00    -0.268 N 
ATOM      3  N   UNL     1      34.945 -18.574 -22.002  0.00  0.00    -0.268 N 
ATOM      4  C   UNL     1      34.451 -19.058 -20.781  0.00  0.00    +0.308 C 
ATOM      5  H   UNL     1      35.890 -20.496 -21.004  0.00  0.00    +0.156 HD
ATOM      6  H   UNL     1      35.691 -19.080 -22.398  0.00  0.00    +0.156 HD
ENDROOT
BRANCH   2   9
ATOM      7  C   UNL     1      35.842 -21.834 -17.150  0.00  0.00    -0.001 C 
ATOM      8  C   UNL     1      36.016 -21.048 -18.284  0.00  0.00    +0.012 C 
ATOM      9  C   UNL     1      35.010 -20.998 -19.249  0.00  0.00    +0.051 C 
ATOM     10  C   UNL     1      34.676 -22.568 -16.967  0.00  0.00    -0.003 C 
ATOM     11  C   UNL     1      33.836 -21.732 -19.072  0.00  0.00    +0.015 C 
ATOM     12  C   UNL     1      33.670 -22.516 -17.932  0.00  0.00    +0.001 C 
BRANCH   7  13
ATOM     13  C   UNL     1      36.925 -21.890 -16.113  0.00  0.00    +0.119 C 
BRANCH  13  15
ATOM     14  O   UNL     1      38.903 -23.667 -14.945  0.00  0.00    -0.226 OA
ATOM     15  N   UNL     1      36.706 -22.954 -15.160  0.00  0.00    -0.267 N 
ATOM     16  C   UNL     1      37.714 -23.751 -14.659  0.00  0.00    +0.402 C 
ATOM     17  H   UNL     1      35.786 -23.120 -14.853  0.00  0.00    +0.153 HD
BRANCH  16  18
ATOM     18  O   UNL     1      37.194 -24.665 -13.780  0.00  0.00    -0.436 OA
BRANCH  18  20
ATOM     19  O   UNL     1      36.054 -25.325 -11.047  0.00  0.00    -0.350 OA
ATOM     20  C   UNL     1      37.827 -24.743 -12.507  0.00  0.00    +0.202 C 
ATOM     21  C   UNL     1      37.470 -23.533 -11.679  0.00  0.00    +0.078 C 
ATOM     22  C   UNL     1      37.203 -25.873 -11.714  0.00  0.00    +0.186 C 
ATOM     23  C   UNL     1      36.091 -23.896 -11.164  0.00  0.00    +0.146 C 
ENDBRANCH  18  20
ENDBRANCH  16  18
ENDBRANCH  13  15
ENDBRANCH   7  13
ENDBRANCH   2   9
BRANCH   3  24
ATOM     24  C   UNL     1      34.503 -17.448 -22.736  0.00  0.00    +0.055 C 
ATOM     25  C   UNL     1      33.636 -15.243 -24.172  0.00  0.00    +0.070 C 
ATOM     26  C   UNL     1      34.184 -15.076 -22.901  0.00  0.00    +0.143 C 
ATOM     27  C   UNL     1      34.620 -16.186 -22.177  0.00  0.00    +0.052 C 
ATOM     28  C   UNL     1      33.961 -17.631 -23.998  0.00  0.00    +0.015 C 
ATOM     29  C   UNL     1      33.525 -16.521 -24.720  0.00  0.00    +0.007 C 
BRANCH  25  32
ATOM     30  O   UNL     1      33.186 -14.257 -26.286  0.00  0.00    -0.431 OA
ATOM     31  N   UNL     1      32.418 -12.187 -25.796  0.00  0.00    -0.203 NA
ATOM     32  C   UNL     1      33.179 -14.107 -24.938  0.00  0.00    +0.169 C 
ATOM     33  C   UNL     1      32.717 -12.858 -24.639  0.00  0.00    +0.140 C 
ATOM     34  C   UNL     1      32.715 -13.060 -26.732  0.00  0.00    +0.285 C 
ENDBRANCH  25  32
BRANCH  26  35
ATOM     35  O   UNL     1      34.305 -13.839 -22.340  0.00  0.00    -0.471 OA
ATOM     36  C   UNL     1      33.703 -13.646 -21.063  0.00  0.00    +0.252 C 
ENDBRANCH  26  35
ENDBRANCH   3  24
TORSDOF 8
ENDMDL
MODEL 4
REMARK VINA RESULT:     -11.7      2.974     12.476
REMARK  Name = 153241
REMARK  8 active torsions:
REMARK  status: ('A' for Active; 'I' for Inactive)
REMARK    1  A    between atoms: N_2  and  C_9
REMARK    2  A    between atoms: N_3  and  C_24
REMARK    3  A    between atoms: C_7  and  C_13
REMARK    4  A    between atoms: C_13  and  N_15
REMARK    5  A    between atoms: C_16  and  O_18
REMARK    6  A    between atoms: O_18  and  C_20
REMARK    7  A    between atoms: C_25  and  C_32
REMARK    8  A    between atoms: C_26  and  O_35
REMARK                            x       y       z     vdW  Elec       q    Type
REMARK                         _______ _______ _______ _____ _____    ______ ____
ROOT
ATOM      1  O   UNL     1      36.243 -20.225 -17.963  0.00  0.00    -0.252 OA
ATOM      2  N   UNL     1      34.770 -20.663 -19.731  0.00  0.00    -0.268 N 
ATOM      3  N   UNL     1      34.619 -21.898 -17.786  0.00  0.00    -0.268 N 
ATOM      4  C   UNL     1      35.310 -20.864 -18.437  0.00  0.00    +0.308 C 
ATOM      5  H   UNL     1      34.020 -21.251 -19.977  0.00  0.00    +0.156 HD
ATOM      6  H   UNL     1      33.890 -22.319 -18.296  0.00  0.00    +0.156 HD
ENDROOT
BRANCH   2   9
ATOM      7  C   UNL     1      34.669 -18.458 -22.682  0.00  0.00    -0.001 C 
ATOM      8  C   UNL     1      34.272 -19.380 -21.718  0.00  0.00    +0.012 C 
ATOM      9  C   UNL     1      35.158 -19.739 -20.703  0.00  0.00    +0.051 C 
ATOM     10  C   UNL     1      35.938 -17.892 -22.643  0.00  0.00    -0.003 C 
ATOM     11  C   UNL     1      36.434 -19.175 -20.657  0.00  0.00    +0.015 C 
ATOM     12  C   UNL     1      36.823 -18.252 -21.626  0.00  0.00    +0.001 C 
BRANCH   7  13
ATOM     13  C   UNL     1      33.717 -18.072 -23.775  0.00  0.00    +0.119 C 
BRANCH  13  15
ATOM     14  O   UNL     1      34.460 -15.708 -25.290  0.00  0.00    -0.226 OA
ATOM     15  N   UNL     1      33.223 -16.724 -23.611  0.00  0.00    -0.267 N 
ATOM     16  C   UNL     1      33.637 -15.659 -24.383  0.00  0.00    +0.402 C 
ATOM     17  H   UNL     1      32.554 -16.557 -22.908  0.00  0.00    +0.153 HD
BRANCH  16  18
ATOM     18  O   UNL     1      32.991 -14.516 -23.988  0.00  0.00    -0.436 OA
BRANCH  18  20
ATOM     19  O   UNL     1      32.421 -13.171 -21.328  0.00  0.00    -0.350 OA
ATOM     20  C   UNL     1      33.765 -13.586 -23.236  0.00  0.00    +0.202 C 
ATOM     21  C   UNL     1      33.172 -12.204 -23.357  0.00  0.00    +0.078 C 
ATOM     22  C   UNL     1      33.593 -13.883 -21.760  0.00  0.00    +0.186 C 
ATOM     23  C   UNL     1      32.028 -12.261 -22.364  0.00  0.00    +0.146 C 
ENDBRANCH  18  20
ENDBRANCH  16  18
ENDBRANCH  13  15
ENDBRANCH   7  13
ENDBRANCH   2   9
BRANCH   3  24
ATOM     24  C   UNL     1      34.843 -22.411 -16.486  0.00  0.00    +0.055 C 
ATOM     25  C   UNL     1      35.281 -23.416 -13.942  0.00  0.00    +0.070 C 
ATOM     26  C   UNL     1      36.356 -22.974 -14.712  0.00  0.00    +0.143 C 
ATOM     27  C   UNL     1      36.136 -22.468 -15.994  0.00  0.00    +0.052 C 
ATOM     28  C   UNL     1      33.764 -22.845 -15.734  0.00  0.00    +0.015 C 
ATOM     29  C   UNL     1      33.985 -23.351 -14.453  0.00  0.00    +0.007 C 
BRANCH  25  32
ATOM     30  O   UNL     1      34.979 -23.204 -11.596  0.00  0.00    -0.431 OA
ATOM     31  N   UNL     1      35.979 -25.037 -10.726  0.00  0.00    -0.203 NA
ATOM     32  C   UNL     1      35.487 -23.943 -12.613  0.00  0.00    +0.169 C 
ATOM     33  C   UNL     1      36.092 -25.049 -12.092  0.00  0.00    +0.140 C 
ATOM     34  C   UNL     1      35.314 -23.928 -10.492  0.00  0.00    +0.285 C 
ENDBRANCH  25  32
BRANCH  26  35
ATOM     35  O   UNL     1      37.634 -23.026 -14.237  0.00  0.00    -0.471 OA
ATOM     36  C   UNL     1      38.466 -24.071 -14.733  0.00  0.00    +0.252 C 
ENDBRANCH  26  35
ENDBRANCH   3  24
TORSDOF 8
ENDMDL
MODEL 5
REMARK VINA RESULT:     -11.6      2.344     11.967
REMARK  Name = 153241
REMARK  8 active torsions:
REMARK  status: ('A' for Active; 'I' for Inactive)
REMARK    1  A    between atoms: N_2  and  C_9
REMARK    2  A    between atoms: N_3  and  C_24
REMARK    3  A    between atoms: C_7  and  C_13
REMARK    4  A    between atoms: C_13  and  N_15
REMARK    5  A    between atoms: C_16  and  O_18
REMARK    6  A    between atoms: O_18  and  C_20
REMARK    7  A    between atoms: C_25  and  C_32
REMARK    8  A    between atoms: C_26  and  O_35
REMARK                            x       y       z     vdW  Elec       q    Type
REMARK                         _______ _______ _______ _____ _____    ______ ____
ROOT
ATOM      1  O   UNL     1      33.196 -19.417 -20.109  0.00  0.00    -0.252 OA
ATOM      2  N   UNL     1      34.885 -19.418 -21.734  0.00  0.00    -0.268 N 
ATOM      3  N   UNL     1      35.123 -20.715 -19.837  0.00  0.00    -0.268 N 
ATOM      4  C   UNL     1      34.286 -19.812 -20.511  0.00  0.00    +0.308 C 
ATOM      5  H   UNL     1      35.764 -19.817 -21.926  0.00  0.00    +0.156 HD
ATOM      6  H   UNL     1      35.969 -20.938 -20.288  0.00  0.00    +0.156 HD
ENDROOT
BRANCH   2   9
ATOM      7  C   UNL     1      34.220 -16.319 -23.611  0.00  0.00    -0.001 C 
ATOM      8  C   UNL     1      34.714 -17.185 -22.642  0.00  0.00    +0.012 C 
ATOM      9  C   UNL     1      34.393 -18.541 -22.701  0.00  0.00    +0.051 C 
ATOM     10  C   UNL     1      33.410 -16.790 -24.638  0.00  0.00    -0.003 C 
ATOM     11  C   UNL     1      33.581 -19.022 -23.729  0.00  0.00    +0.015 C 
ATOM     12  C   UNL     1      33.091 -18.146 -24.697  0.00  0.00    +0.001 C 
BRANCH   7  13
ATOM     13  C   UNL     1      34.563 -14.859 -23.546  0.00  0.00    +0.119 C 
BRANCH  13  15
ATOM     14  O   UNL     1      32.712 -13.029 -24.834  0.00  0.00    -0.226 OA
ATOM     15  N   UNL     1      33.513 -14.083 -22.929  0.00  0.00    -0.267 N 
ATOM     16  C   UNL     1      32.678 -13.235 -23.626  0.00  0.00    +0.402 C 
ATOM     17  H   UNL     1      33.386 -14.164 -21.956  0.00  0.00    +0.153 HD
BRANCH  16  18
ATOM     18  O   UNL     1      31.789 -12.643 -22.767  0.00  0.00    -0.436 OA
BRANCH  18  20
ATOM     19  O   UNL     1      30.366 -10.676 -20.948  0.00  0.00    -0.350 OA
ATOM     20  C   UNL     1      32.304 -11.592 -21.957  0.00  0.00    +0.202 C 
ATOM     21  C   UNL     1      32.014 -10.257 -22.598  0.00  0.00    +0.078 C 
ATOM     22  C   UNL     1      31.500 -11.517 -20.676  0.00  0.00    +0.186 C 
ATOM     23  C   UNL     1      30.566 -10.027 -22.210  0.00  0.00    +0.146 C 
ENDBRANCH  18  20
ENDBRANCH  16  18
ENDBRANCH  13  15
ENDBRANCH   7  13
ENDBRANCH   2   9
BRANCH   3  24
ATOM     24  C   UNL     1      34.900 -21.343 -18.589  0.00  0.00    +0.055 C 
ATOM     25  C   UNL     1      34.465 -22.575 -16.146  0.00  0.00    +0.070 C 
ATOM     26  C   UNL     1      35.676 -21.929 -16.396  0.00  0.00    +0.143 C 
ATOM     27  C   UNL     1      35.896 -21.310 -17.627  0.00  0.00    +0.052 C 
ATOM     28  C   UNL     1      33.692 -21.980 -18.357  0.00  0.00    +0.015 C 
ATOM     29  C   UNL     1      33.473 -22.600 -17.127  0.00  0.00    +0.007 C 
BRANCH  25  32
ATOM     30  O   UNL     1      32.925 -23.252 -14.470  0.00  0.00    -0.431 OA
ATOM     31  N   UNL     1      34.198 -24.286 -12.912  0.00  0.00    -0.203 NA
ATOM     32  C   UNL     1      34.218 -23.223 -14.879  0.00  0.00    +0.169 C 
ATOM     33  C   UNL     1      34.989 -23.845 -13.941  0.00  0.00    +0.140 C 
ATOM     34  C   UNL     1      32.995 -23.908 -13.279  0.00  0.00    +0.285 C 
ENDBRANCH  25  32
BRANCH  26  35
ATOM     35  O   UNL     1      36.663 -21.890 -15.456  0.00  0.00    -0.471 OA
ATOM     36  C   UNL     1      37.845 -22.638 -15.728  0.00  0.00    +0.252 C 
ENDBRANCH  26  35
ENDBRANCH   3  24
TORSDOF 8
ENDMDL
MODEL 6
REMARK VINA RESULT:     -11.3      3.031     12.445
REMARK  Name = 153241
REMARK  8 active torsions:
REMARK  status: ('A' for Active; 'I' for Inactive)
REMARK    1  A    between atoms: N_2  and  C_9
REMARK    2  A    between atoms: N_3  and  C_24
REMARK    3  A    between atoms: C_7  and  C_13
REMARK    4  A    between atoms: C_13  and  N_15
REMARK    5  A    between atoms: C_16  and  O_18
REMARK    6  A    between atoms: O_18  and  C_20
REMARK    7  A    between atoms: C_25  and  C_32
REMARK    8  A    between atoms: C_26  and  O_35
REMARK                            x       y       z     vdW  Elec       q    Type
REMARK                         _______ _______ _______ _____ _____    ______ ____
ROOT
ATOM      1  O   UNL     1      36.304 -20.354 -18.075  0.00  0.00    -0.252 OA
ATOM      2  N   UNL     1      34.655 -20.579 -19.725  0.00  0.00    -0.268 N 
ATOM      3  N   UNL     1      34.557 -21.889 -17.826  0.00  0.00    -0.268 N 
ATOM      4  C   UNL     1      35.281 -20.888 -18.491  0.00  0.00    +0.308 C 
ATOM      5  H   UNL     1      33.838 -21.089 -19.929  0.00  0.00    +0.156 HD
ATOM      6  H   UNL     1      33.754 -22.221 -18.287  0.00  0.00    +0.156 HD
ENDROOT
BRANCH   2   9
ATOM      7  C   UNL     1      34.549 -18.343 -22.651  0.00  0.00    -0.001 C 
ATOM      8  C   UNL     1      34.154 -19.273 -21.695  0.00  0.00    +0.012 C 
ATOM      9  C   UNL     1      35.043 -19.647 -20.689  0.00  0.00    +0.051 C 
ATOM     10  C   UNL     1      35.821 -17.782 -22.612  0.00  0.00    -0.003 C 
ATOM     11  C   UNL     1      36.321 -19.089 -20.643  0.00  0.00    +0.015 C 
ATOM     12  C   UNL     1      36.709 -18.156 -21.604  0.00  0.00    +0.001 C 
BRANCH   7  13
ATOM     13  C   UNL     1      33.593 -17.941 -23.735  0.00  0.00    +0.119 C 
BRANCH  13  15
ATOM     14  O   UNL     1      34.348 -15.686 -25.404  0.00  0.00    -0.226 OA
ATOM     15  N   UNL     1      33.176 -16.564 -23.605  0.00  0.00    -0.267 N 
ATOM     16  C   UNL     1      33.589 -15.556 -24.451  0.00  0.00    +0.402 C 
ATOM     17  H   UNL     1      32.563 -16.332 -22.870  0.00  0.00    +0.153 HD
BRANCH  16  18
ATOM     18  O   UNL     1      33.025 -14.366 -24.070  0.00  0.00    -0.436 OA
BRANCH  18  20
ATOM     19  O   UNL     1      32.566 -13.706 -21.145  0.00  0.00    -0.350 OA
ATOM     20  C   UNL     1      33.788 -13.569 -23.170  0.00  0.00    +0.202 C 
ATOM     21  C   UNL     1      33.097 -12.249 -22.936  0.00  0.00    +0.078 C 
ATOM     22  C   UNL     1      33.748 -14.203 -21.795  0.00  0.00    +0.186 C 
ATOM     23  C   UNL     1      32.036 -12.621 -21.919  0.00  0.00    +0.146 C 
ENDBRANCH  18  20
ENDBRANCH  16  18
ENDBRANCH  13  15
ENDBRANCH   7  13
ENDBRANCH   2   9
BRANCH   3  24
ATOM     24  C   UNL     1      34.841 -22.481 -16.572  0.00  0.00    +0.055 C 
ATOM     25  C   UNL     1      35.395 -23.640 -14.118  0.00  0.00    +0.070 C 
ATOM     26  C   UNL     1      34.100 -23.686 -14.634  0.00  0.00    +0.143 C 
ATOM     27  C   UNL     1      33.820 -23.102 -15.870  0.00  0.00    +0.052 C 
ATOM     28  C   UNL     1      36.132 -22.427 -16.073  0.00  0.00    +0.015 C 
ATOM     29  C   UNL     1      36.411 -23.011 -14.837  0.00  0.00    +0.007 C 
BRANCH  25  32
ATOM     30  O   UNL     1      36.613 -25.246 -12.861  0.00  0.00    -0.431 OA
ATOM     31  N   UNL     1      35.947 -24.921 -10.724  0.00  0.00    -0.203 NA
ATOM     32  C   UNL     1      35.705 -24.238 -12.840  0.00  0.00    +0.169 C 
ATOM     33  C   UNL     1      35.301 -24.040 -11.552  0.00  0.00    +0.140 C 
ATOM     34  C   UNL     1      36.705 -25.605 -11.551  0.00  0.00    +0.285 C 
ENDBRANCH  25  32
BRANCH  26  35
ATOM     35  O   UNL     1      33.089 -24.294 -13.952  0.00  0.00    -0.471 OA
ATOM     36  C   UNL     1      32.038 -23.458 -13.472  0.00  0.00    +0.252 C 
ENDBRANCH  26  35
ENDBRANCH   3  24
TORSDOF 8
ENDMDL
MODEL 7
REMARK VINA RESULT:     -11.2      2.721      4.759
REMARK  Name = 153241
REMARK  8 active torsions:
REMARK  status: ('A' for Active; 'I' for Inactive)
REMARK    1  A    between atoms: N_2  and  C_9
REMARK    2  A    between atoms: N_3  and  C_24
REMARK    3  A    between atoms: C_7  and  C_13
REMARK    4  A    between atoms: C_13  and  N_15
REMARK    5  A    between atoms: C_16  and  O_18
REMARK    6  A    between atoms: O_18  and  C_20
REMARK    7  A    between atoms: C_25  and  C_32
REMARK    8  A    between atoms: C_26  and  O_35
REMARK                            x       y       z     vdW  Elec       q    Type
REMARK                         _______ _______ _______ _____ _____    ______ ____
ROOT
ATOM      1  O   UNL     1      33.010 -10.958 -23.662  0.00  0.00    -0.252 OA
ATOM      2  N   UNL     1      32.384 -12.727 -22.258  0.00  0.00    -0.268 N 
ATOM      3  N   UNL     1      31.623 -10.592 -21.815  0.00  0.00    -0.268 N 
ATOM      4  C   UNL     1      32.402 -11.375 -22.682  0.00  0.00    +0.308 C 
ATOM      5  H   UNL     1      31.851 -12.915 -21.452  0.00  0.00    +0.156 HD
ATOM      6  H   UNL     1      31.194 -11.070 -21.069  0.00  0.00    +0.156 HD
ENDROOT
BRANCH   2   9
ATOM      7  C   UNL     1      34.394 -15.793 -22.620  0.00  0.00    -0.001 C 
ATOM      8  C   UNL     1      33.764 -14.699 -22.038  0.00  0.00    +0.012 C 
ATOM      9  C   UNL     1      33.020 -13.828 -22.834  0.00  0.00    +0.051 C 
ATOM     10  C   UNL     1      34.290 -16.029 -23.987  0.00  0.00    -0.003 C 
ATOM     11  C   UNL     1      32.910 -14.057 -24.206  0.00  0.00    +0.015 C 
ATOM     12  C   UNL     1      33.545 -15.157 -24.782  0.00  0.00    +0.001 C 
BRANCH   7  13
ATOM     13  C   UNL     1      35.195 -16.730 -21.765  0.00  0.00    +0.119 C 
BRANCH  13  15
ATOM     14  O   UNL     1      34.831 -19.363 -22.938  0.00  0.00    -0.226 OA
ATOM     15  N   UNL     1      34.394 -17.821 -21.260  0.00  0.00    -0.267 N 
ATOM     16  C   UNL     1      34.281 -19.043 -21.890  0.00  0.00    +0.402 C 
ATOM     17  H   UNL     1      33.899 -17.684 -20.420  0.00  0.00    +0.153 HD
BRANCH  16  18
ATOM     18  O   UNL     1      33.453 -19.865 -21.171  0.00  0.00    -0.436 OA
BRANCH  18  20
ATOM     19  O   UNL     1      34.677 -22.158 -19.605  0.00  0.00    -0.350 OA
ATOM     20  C   UNL     1      33.743 -19.987 -19.782  0.00  0.00    +0.202 C 
ATOM     21  C   UNL     1      32.733 -20.893 -19.121  0.00  0.00    +0.078 C 
ATOM     22  C   UNL     1      35.032 -20.764 -19.614  0.00  0.00    +0.186 C 
ATOM     23  C   UNL     1      33.253 -22.269 -19.488  0.00  0.00    +0.146 C 
ENDBRANCH  18  20
ENDBRANCH  16  18
ENDBRANCH  13  15
ENDBRANCH   7  13
ENDBRANCH   2   9
BRANCH   3  24
ATOM     24  C   UNL     1      31.380  -9.200 -21.880  0.00  0.00    +0.055 C 
ATOM     25  C   UNL     1      30.904  -6.473 -22.009  0.00  0.00    +0.070 C 
ATOM     26  C   UNL     1      30.645  -7.280 -23.117  0.00  0.00    +0.143 C 
ATOM     27  C   UNL     1      30.885  -8.653 -23.053  0.00  0.00    +0.052 C 
ATOM     28  C   UNL     1      31.643  -8.413 -20.771  0.00  0.00    +0.015 C 
ATOM     29  C   UNL     1      31.403  -7.040 -20.836  0.00  0.00    +0.007 C 
BRANCH  25  32
ATOM     30  O   UNL     1      31.477  -4.337 -22.873  0.00  0.00    -0.431 OA
ATOM     31  N   UNL     1      30.019  -2.915 -21.888  0.00  0.00    -0.203 NA
ATOM     32  C   UNL     1      30.663  -5.050 -22.055  0.00  0.00    +0.169 C 
ATOM     33  C   UNL     1      29.783  -4.195 -21.459  0.00  0.00    +0.140 C 
ATOM     34  C   UNL     1      31.027  -3.061 -22.719  0.00  0.00    +0.285 C 
ENDBRANCH  25  32
BRANCH  26  35
ATOM     35  O   UNL     1      30.157  -6.753 -24.276  0.00  0.00    -0.471 OA
ATOM     36  C   UNL     1      31.031  -6.748 -25.402  0.00  0.00    +0.252 C 
ENDBRANCH  26  35
ENDBRANCH   3  24
TORSDOF 8
ENDMDL
MODEL 8
REMARK VINA RESULT:     -11.1      1.577      2.297
REMARK  Name = 153241
REMARK  8 active torsions:
REMARK  status: ('A' for Active; 'I' for Inactive)
REMARK    1  A    between atoms: N_2  and  C_9
REMARK    2  A    between atoms: N_3  and  C_24
REMARK    3  A    between atoms: C_7  and  C_13
REMARK    4  A    between atoms: C_13  and  N_15
REMARK    5  A    between atoms: C_16  and  O_18
REMARK    6  A    between atoms: O_18  and  C_20
REMARK    7  A    between atoms: C_25  and  C_32
REMARK    8  A    between atoms: C_26  and  O_35
REMARK                            x       y       z     vdW  Elec       q    Type
REMARK                         _______ _______ _______ _____ _____    ______ ____
ROOT
ATOM      1  O   UNL     1      34.235 -16.018 -20.349  0.00  0.00    -0.252 OA
ATOM      2  N   UNL     1      34.571 -17.807 -21.825  0.00  0.00    -0.268 N 
ATOM      3  N   UNL     1      34.057 -15.716 -22.661  0.00  0.00    -0.268 N 
ATOM      4  C   UNL     1      34.281 -16.460 -21.492  0.00  0.00    +0.308 C 
ATOM      5  H   UNL     1      34.574 -18.018 -22.786  0.00  0.00    +0.156 HD
ATOM      6  H   UNL     1      34.129 -16.211 -23.509  0.00  0.00    +0.156 HD
ENDROOT
BRANCH   2   9
ATOM      7  C   UNL     1      34.117 -20.743 -19.647  0.00  0.00    -0.001 C 
ATOM      8  C   UNL     1      33.824 -19.683 -20.498  0.00  0.00    +0.012 C 
ATOM      9  C   UNL     1      34.856 -18.873 -20.970  0.00  0.00    +0.051 C 
ATOM     10  C   UNL     1      35.427 -21.005 -19.264  0.00  0.00    -0.003 C 
ATOM     11  C   UNL     1      36.174 -19.129 -20.590  0.00  0.00    +0.015 C 
ATOM     12  C   UNL     1      36.459 -20.194 -19.738  0.00  0.00    +0.001 C 
BRANCH   7  13
ATOM     13  C   UNL     1      33.006 -21.615 -19.137  0.00  0.00    +0.119 C 
BRANCH  13  15
ATOM     14  O   UNL     1      31.430 -22.391 -16.824  0.00  0.00    -0.226 OA
ATOM     15  N   UNL     1      33.423 -22.418 -18.011  0.00  0.00    -0.267 N 
ATOM     16  C   UNL     1      32.599 -22.736 -16.952  0.00  0.00    +0.402 C 
ATOM     17  H   UNL     1      34.348 -22.755 -17.998  0.00  0.00    +0.153 HD
BRANCH  16  18
ATOM     18  O   UNL     1      33.280 -23.506 -16.045  0.00  0.00    -0.436 OA
BRANCH  18  20
ATOM     19  O   UNL     1      36.170 -23.938 -15.228  0.00  0.00    -0.350 OA
ATOM     20  C   UNL     1      34.093 -22.803 -15.110  0.00  0.00    +0.202 C 
ATOM     21  C   UNL     1      34.265 -23.623 -13.856  0.00  0.00    +0.078 C 
ATOM     22  C   UNL     1      35.509 -22.731 -15.645  0.00  0.00    +0.186 C 
ATOM     23  C   UNL     1      35.346 -24.604 -14.262  0.00  0.00    +0.146 C 
ENDBRANCH  18  20
ENDBRANCH  16  18
ENDBRANCH  13  15
ENDBRANCH   7  13
ENDBRANCH   2   9
BRANCH   3  24
ATOM     24  C   UNL     1      33.738 -14.342 -22.771  0.00  0.00    +0.055 C 
ATOM     25  C   UNL     1      33.114 -11.651 -22.987  0.00  0.00    +0.070 C 
ATOM     26  C   UNL     1      33.027 -12.480 -24.106  0.00  0.00    +0.143 C 
ATOM     27  C   UNL     1      33.341 -13.835 -23.998  0.00  0.00    +0.052 C 
ATOM     28  C   UNL     1      33.830 -13.533 -21.650  0.00  0.00    +0.015 C 
ATOM     29  C   UNL     1      33.516 -12.178 -21.759  0.00  0.00    +0.007 C 
BRANCH  25  32
ATOM     30  O   UNL     1      33.826  -9.420 -23.380  0.00  0.00    -0.431 OA
ATOM     31  N   UNL     1      31.954  -8.175 -23.141  0.00  0.00    -0.203 NA
ATOM     32  C   UNL     1      32.794 -10.246 -23.078  0.00  0.00    +0.169 C 
ATOM     33  C   UNL     1      31.663  -9.498 -22.932  0.00  0.00    +0.140 C 
ATOM     34  C   UNL     1      33.242  -8.191 -23.400  0.00  0.00    +0.285 C 
ENDBRANCH  25  32
BRANCH  26  35
ATOM     35  O   UNL     1      32.638 -11.991 -25.318  0.00  0.00    -0.471 OA
ATOM     36  C   UNL     1      32.654 -12.899 -26.417  0.00  0.00    +0.252 C 
ENDBRANCH  26  35
ENDBRANCH   3  24
TORSDOF 8
ENDMDL
MODEL 9
REMARK VINA RESULT:     -11.1      2.344      3.862
REMARK  Name = 153241
REMARK  8 active torsions:
REMARK  status: ('A' for Active; 'I' for Inactive)
REMARK    1  A    between atoms: N_2  and  C_9
REMARK    2  A    between atoms: N_3  and  C_24
REMARK    3  A    between atoms: C_7  and  C_13
REMARK    4  A    between atoms: C_13  and  N_15
REMARK    5  A    between atoms: C_16  and  O_18
REMARK    6  A    between atoms: O_18  and  C_20
REMARK    7  A    between atoms: C_25  and  C_32
REMARK    8  A    between atoms: C_26  and  O_35
REMARK                            x       y       z     vdW  Elec       q    Type
REMARK                         _______ _______ _______ _____ _____    ______ ____
ROOT
ATOM      1  O   UNL     1      32.714 -13.256 -21.984  0.00  0.00    -0.252 OA
ATOM      2  N   UNL     1      33.550 -14.005 -24.040  0.00  0.00    -0.268 N 
ATOM      3  N   UNL     1      33.015 -11.775 -23.769  0.00  0.00    -0.268 N 
ATOM      4  C   UNL     1      33.055 -13.030 -23.140  0.00  0.00    +0.308 C 
ATOM      5  H   UNL     1      33.785 -13.678 -24.938  0.00  0.00    +0.156 HD
ATOM      6  H   UNL     1      33.322 -11.750 -24.704  0.00  0.00    +0.156 HD
ENDROOT
BRANCH   2   9
ATOM      7  C   UNL     1      34.751 -17.157 -22.558  0.00  0.00    -0.001 C 
ATOM      8  C   UNL     1      34.558 -15.796 -22.768  0.00  0.00    +0.012 C 
ATOM      9  C   UNL     1      33.751 -15.369 -23.822  0.00  0.00    +0.051 C 
ATOM     10  C   UNL     1      34.148 -18.096 -23.387  0.00  0.00    -0.003 C 
ATOM     11  C   UNL     1      33.141 -16.305 -24.658  0.00  0.00    +0.015 C 
ATOM     12  C   UNL     1      33.339 -17.668 -24.440  0.00  0.00    +0.001 C 
BRANCH   7  13
ATOM     13  C   UNL     1      35.622 -17.617 -21.425  0.00  0.00    +0.119 C 
BRANCH  13  15
ATOM     14  O   UNL     1      36.509 -20.193 -20.417  0.00  0.00    -0.226 OA
ATOM     15  N   UNL     1      34.918 -18.508 -20.531  0.00  0.00    -0.267 N 
ATOM     16  C   UNL     1      35.423 -19.719 -20.104  0.00  0.00    +0.402 C 
ATOM     17  H   UNL     1      34.029 -18.236 -20.209  0.00  0.00    +0.153 HD
BRANCH  16  18
ATOM     18  O   UNL     1      34.526 -20.330 -19.267  0.00  0.00    -0.436 OA
BRANCH  18  20
ATOM     19  O   UNL     1      31.634 -20.909 -18.553  0.00  0.00    -0.350 OA
ATOM     20  C   UNL     1      33.573 -21.188 -19.887  0.00  0.00    +0.202 C 
ATOM     21  C   UNL     1      33.379 -22.431 -19.055  0.00  0.00    +0.078 C 
ATOM     22  C   UNL     1      32.207 -20.537 -19.819  0.00  0.00    +0.186 C 
ATOM     23  C   UNL     1      32.437 -21.945 -17.972  0.00  0.00    +0.146 C 
ENDBRANCH  18  20
ENDBRANCH  16  18
ENDBRANCH  13  15
ENDBRANCH   7  13
ENDBRANCH   2   9
BRANCH   3  24
ATOM     24  C   UNL     1      32.586 -10.542 -23.225  0.00  0.00    +0.055 C 
ATOM     25  C   UNL     1      31.747  -8.126 -22.159  0.00  0.00    +0.070 C 
ATOM     26  C   UNL     1      32.937  -8.193 -22.884  0.00  0.00    +0.143 C 
ATOM     27  C   UNL     1      33.360  -9.409 -23.420  0.00  0.00    +0.052 C 
ATOM     28  C   UNL     1      31.401 -10.492 -22.508  0.00  0.00    +0.015 C 
ATOM     29  C   UNL     1      30.979  -9.275 -21.972  0.00  0.00    +0.007 C 
BRANCH  25  32
ATOM     30  O   UNL     1      30.477  -6.131 -22.384  0.00  0.00    -0.431 OA
ATOM     31  N   UNL     1      30.782  -5.039 -20.427  0.00  0.00    -0.203 NA
ATOM     32  C   UNL     1      31.291  -6.876 -21.596  0.00  0.00    +0.169 C 
ATOM     33  C   UNL     1      31.478  -6.220 -20.415  0.00  0.00    +0.140 C 
ATOM     34  C   UNL     1      30.213  -5.042 -21.611  0.00  0.00    +0.285 C 
ENDBRANCH  25  32
BRANCH  26  35
ATOM     35  O   UNL     1      33.706  -7.085 -23.082  0.00  0.00    -0.471 OA
ATOM     36  C   UNL     1      33.588  -6.433 -24.344  0.00  0.00    +0.252 C 
ENDBRANCH  26  35
ENDBRANCH   3  24
TORSDOF 8
ENDMDL
