MODEL 1
REMARK VINA RESULT:     -12.0      0.000      0.000
REMARK  Name = 9912771
REMARK  7 active torsions:
REMARK  status: ('A' for Active; 'I' for Inactive)
REMARK    1  A    between atoms: C_1  and  N_8
REMARK    2  A    between atoms: C_2  and  N_27
REMARK    3  A    between atoms: C_3  and  O_38
REMARK    4  A    between atoms: C_9  and  C_16
REMARK    5  A    between atoms: C_11  and  N_17
REMARK    6  A    between atoms: C_28  and  C_30
REMARK    7  A    between atoms: C_35  and  O_36
REMARK                            x       y       z     vdW  Elec       q    Type
REMARK                         _______ _______ _______ _____ _____    ______ ____
ROOT
ATOM      1  C   UNL     1      31.052 -22.546 -15.935  0.00  0.00    +0.098 C 
ATOM      2  C   UNL     1      31.695 -23.211 -14.902  0.00  0.00    +0.067 C 
ATOM      3  C   UNL     1      29.671 -22.413 -15.955  0.00  0.00    +0.148 C 
ATOM      4  C   UNL     1      30.940 -23.754 -13.863  0.00  0.00    +0.016 C 
ATOM      5  C   UNL     1      28.917 -22.956 -14.915  0.00  0.00    +0.038 C 
ATOM      6  C   UNL     1      29.551 -23.627 -13.869  0.00  0.00    +0.004 C 
ENDROOT
BRANCH   1   8
ATOM      7  O   UNL     1      33.010 -23.838 -17.802  0.00  0.00    -0.270 OA
ATOM      8  N   UNL     1      31.811 -21.990 -16.995  0.00  0.00    -0.277 N 
ATOM      9  C   UNL     1      32.719 -22.632 -17.847  0.00  0.00    +0.250 C 
ATOM     10  H   UNL     1      31.684 -21.027 -17.151  0.00  0.00    +0.155 HD
BRANCH   9  16
ATOM     11  C   UNL     1      34.640 -20.139 -20.747  0.00  0.00    +0.048 C 
ATOM     12  C   UNL     1      33.240 -20.102 -20.562  0.00  0.00    +0.015 C 
ATOM     13  C   UNL     1      35.383 -21.028 -19.938  0.00  0.00    +0.015 C 
ATOM     14  C   UNL     1      32.615 -20.915 -19.616  0.00  0.00    +0.006 C 
ATOM     15  C   UNL     1      34.757 -21.841 -18.993  0.00  0.00    +0.006 C 
ATOM     16  C   UNL     1      33.373 -21.784 -18.832  0.00  0.00    +0.054 C 
BRANCH  11  17
ATOM     17  N   UNL     1      35.266 -19.329 -21.692  0.00  0.00    -0.310 N 
ATOM     18  N   UNL     1      34.202 -16.703 -21.296  0.00  0.00    +0.387 N 
ATOM     19  C   UNL     1      34.808 -19.242 -23.082  0.00  0.00    +0.089 C 
ATOM     20  C   UNL     1      33.733 -18.169 -23.249  0.00  0.00    -0.001 C 
ATOM     21  C   UNL     1      36.220 -18.283 -21.307  0.00  0.00    +0.068 C 
ATOM     22  C   UNL     1      34.136 -16.767 -22.762  0.00  0.00    -0.076 C 
ATOM     23  C   UNL     1      35.518 -17.047 -20.730  0.00  0.00    -0.056 C 
ATOM     24  C   UNL     1      33.783 -15.388 -20.806  0.00  0.00    -0.101 C 
ATOM     25  H   UNL     1      33.553 -17.421 -20.974  0.00  0.00    -0.080 HD
ENDBRANCH  11  17
ENDBRANCH   9  16
ENDBRANCH   1   8
BRANCH   2  27
ATOM     26  O   UNL     1      33.555 -23.598 -12.583  0.00  0.00    -0.270 OA
ATOM     27  N   UNL     1      33.086 -23.352 -14.873  0.00  0.00    -0.279 N 
ATOM     28  C   UNL     1      33.908 -23.531 -13.756  0.00  0.00    +0.250 C 
ATOM     29  H   UNL     1      33.541 -23.322 -15.745  0.00  0.00    +0.155 HD
BRANCH  28  30
ATOM     30  C   UNL     1      35.363 -23.621 -14.046  0.00  0.00    +0.054 C 
ATOM     31  C   UNL     1      36.132 -24.510 -13.323  0.00  0.00    +0.008 C 
ATOM     32  C   UNL     1      35.897 -22.815 -15.029  0.00  0.00    +0.008 C 
ATOM     33  C   UNL     1      37.497 -24.596 -13.596  0.00  0.00    +0.037 C 
ATOM     34  C   UNL     1      37.263 -22.902 -15.301  0.00  0.00    +0.037 C 
ATOM     35  C   UNL     1      38.062 -23.791 -14.586  0.00  0.00    +0.139 C 
BRANCH  35  36
ATOM     36  O   UNL     1      39.394 -23.877 -14.852  0.00  0.00    -0.471 OA
ATOM     37  C   UNL     1      40.000 -25.162 -14.724  0.00  0.00    +0.252 C 
ENDBRANCH  35  36
ENDBRANCH  28  30
ENDBRANCH   2  27
BRANCH   3  38
ATOM     38  O   UNL     1      29.030 -21.760 -16.965  0.00  0.00    -0.504 OA
ATOM     39  H   UNL     1      28.312 -21.190 -16.773  0.00  0.00    +0.292 HD
ENDBRANCH   3  38
TORSDOF 7
ENDMDL
MODEL 2
REMARK VINA RESULT:      -9.3      1.399      5.487
REMARK  Name = 9912771
REMARK  7 active torsions:
REMARK  status: ('A' for Active; 'I' for Inactive)
REMARK    1  A    between atoms: C_1  and  N_8
REMARK    2  A    between atoms: C_2  and  N_27
REMARK    3  A    between atoms: C_3  and  O_38
REMARK    4  A    between atoms: C_9  and  C_16
REMARK    5  A    between atoms: C_11  and  N_17
REMARK    6  A    between atoms: C_28  and  C_30
REMARK    7  A    between atoms: C_35  and  O_36
REMARK                            x       y       z     vdW  Elec       q    Type
REMARK                         _______ _______ _______ _____ _____    ______ ____
ROOT
ATOM      1  C   UNL     1      35.515 -22.775 -14.332  0.00  0.00    +0.098 C 
ATOM      2  C   UNL     1      34.336 -23.040 -13.652  0.00  0.00    +0.067 C 
ATOM      3  C   UNL     1      36.750 -23.045 -13.761  0.00  0.00    +0.148 C 
ATOM      4  C   UNL     1      34.392 -23.590 -12.371  0.00  0.00    +0.016 C 
ATOM      5  C   UNL     1      36.806 -23.595 -12.480  0.00  0.00    +0.038 C 
ATOM      6  C   UNL     1      35.627 -23.866 -11.786  0.00  0.00    +0.004 C 
ENDROOT
BRANCH   1   8
ATOM      7  O   UNL     1      33.790 -23.483 -16.679  0.00  0.00    -0.270 OA
ATOM      8  N   UNL     1      35.467 -22.218 -15.634  0.00  0.00    -0.277 N 
ATOM      9  C   UNL     1      34.642 -22.580 -16.707  0.00  0.00    +0.250 C 
ATOM     10  H   UNL     1      36.096 -21.482 -15.807  0.00  0.00    +0.155 HD
BRANCH   9  16
ATOM     11  C   UNL     1      35.234 -20.397 -20.340  0.00  0.00    +0.048 C 
ATOM     12  C   UNL     1      33.991 -20.999 -20.041  0.00  0.00    +0.015 C 
ATOM     13  C   UNL     1      36.273 -20.541 -19.394  0.00  0.00    +0.015 C 
ATOM     14  C   UNL     1      33.799 -21.710 -18.857  0.00  0.00    +0.006 C 
ATOM     15  C   UNL     1      36.081 -21.253 -18.210  0.00  0.00    +0.006 C 
ATOM     16  C   UNL     1      34.843 -21.837 -17.942  0.00  0.00    +0.054 C 
BRANCH  11  17
ATOM     17  N   UNL     1      35.427 -19.688 -21.524  0.00  0.00    -0.310 N 
ATOM     18  N   UNL     1      34.435 -17.051 -21.024  0.00  0.00    +0.387 N 
ATOM     19  C   UNL     1      34.492 -19.764 -22.649  0.00  0.00    +0.089 C 
ATOM     20  C   UNL     1      33.372 -18.733 -22.515  0.00  0.00    -0.001 C 
ATOM     21  C   UNL     1      36.396 -18.590 -21.620  0.00  0.00    +0.068 C 
ATOM     22  C   UNL     1      33.845 -17.280 -22.349  0.00  0.00    -0.076 C 
ATOM     23  C   UNL     1      35.884 -17.309 -20.949  0.00  0.00    -0.056 C 
ATOM     24  C   UNL     1      34.150 -15.697 -20.545  0.00  0.00    -0.101 C 
ATOM     25  H   UNL     1      33.988 -17.739 -20.417  0.00  0.00    -0.080 HD
ENDBRANCH  11  17
ENDBRANCH   9  16
ENDBRANCH   1   8
BRANCH   2  27
ATOM     26  O   UNL     1      31.634 -24.166 -13.007  0.00  0.00    -0.270 OA
ATOM     27  N   UNL     1      33.086 -22.771 -14.219  0.00  0.00    -0.279 N 
ATOM     28  C   UNL     1      31.849 -23.329 -13.876  0.00  0.00    +0.250 C 
ATOM     29  H   UNL     1      33.075 -22.108 -14.946  0.00  0.00    +0.155 HD
BRANCH  28  30
ATOM     30  C   UNL     1      30.695 -22.858 -14.685  0.00  0.00    +0.054 C 
ATOM     31  C   UNL     1      30.843 -22.742 -16.052  0.00  0.00    +0.008 C 
ATOM     32  C   UNL     1      29.512 -22.554 -14.044  0.00  0.00    +0.008 C 
ATOM     33  C   UNL     1      29.760 -22.302 -16.812  0.00  0.00    +0.037 C 
ATOM     34  C   UNL     1      28.429 -22.114 -14.804  0.00  0.00    +0.037 C 
ATOM     35  C   UNL     1      28.552 -21.987 -16.187  0.00  0.00    +0.139 C 
BRANCH  35  36
ATOM     36  O   UNL     1      27.495 -21.558 -16.929  0.00  0.00    -0.471 OA
ATOM     37  C   UNL     1      26.205 -21.632 -16.324  0.00  0.00    +0.252 C 
ENDBRANCH  35  36
ENDBRANCH  28  30
ENDBRANCH   2  27
BRANCH   3  38
ATOM     38  O   UNL     1      37.914 -22.790 -14.421  0.00  0.00    -0.504 OA
ATOM     39  H   UNL     1      38.212 -23.373 -15.090  0.00  0.00    +0.292 HD
ENDBRANCH   3  38
TORSDOF 7
ENDMDL
