MODEL 1
REMARK VINA RESULT:     -12.3      0.000      0.000
REMARK  Name = 11651760
REMARK  3 active torsions:
REMARK  status: ('A' for Active; 'I' for Inactive)
REMARK    1  A    between atoms: C_1  and  C_6
REMARK    2  A    between atoms: C_1  and  C_13
REMARK    3  A    between atoms: C_13  and  C_15
REMARK                            x       y       z     vdW  Elec       q    Type
REMARK                         _______ _______ _______ _____ _____    ______ ____
ROOT
ATOM      1  C   UNL     1      35.105 -17.476 -21.445  0.00  0.00    +0.047 C 
ENDROOT
BRANCH   1   6
ATOM      2  O   UNL     1      33.411 -15.412 -25.475  0.00  0.00    -0.209 OA
ATOM      3  N   UNL     1      34.277 -15.170 -21.602  0.00  0.00    -0.278 N 
ATOM      4  N   UNL     1      33.443 -14.136 -23.556  0.00  0.00    -0.302 NA
ATOM      5  N   UNL     1      33.551 -12.989 -21.505  0.00  0.00    -0.320 N 
ATOM      6  C   UNL     1      34.526 -16.357 -22.247  0.00  0.00    +0.041 C 
ATOM      7  C   UNL     1      34.246 -16.475 -23.553  0.00  0.00    +0.117 C 
ATOM      8  C   UNL     1      33.743 -14.100 -22.283  0.00  0.00    +0.247 C 
ATOM      9  C   UNL     1      33.666 -15.299 -24.278  0.00  0.00    +0.209 C 
ATOM     10  H   UNL     1      34.483 -15.085 -20.644  0.00  0.00    +0.156 HD
ATOM     11  H   UNL     1      33.792 -13.008 -20.550  0.00  0.00    +0.146 HD
ATOM     12  H   UNL     1      33.173 -12.171 -21.900  0.00  0.00    +0.146 HD
ENDBRANCH   1   6
BRANCH   1  13
ATOM     13  C   UNL     1      34.533 -18.852 -21.825  0.00  0.00    +0.032 C 
BRANCH  13  15
ATOM     14  N   UNL     1      31.900 -21.522 -18.507  0.00  0.00    -0.312 N 
ATOM     15  C   UNL     1      34.384 -19.789 -20.671  0.00  0.00    -0.021 C 
ATOM     16  C   UNL     1      33.010 -21.015 -19.146  0.00  0.00    +0.048 C 
ATOM     17  C   UNL     1      33.104 -20.133 -20.229  0.00  0.00    +0.010 C 
ATOM     18  C   UNL     1      34.131 -21.550 -18.509  0.00  0.00    +0.015 C 
ATOM     19  C   UNL     1      35.521 -20.306 -20.055  0.00  0.00    -0.004 C 
ATOM     20  C   UNL     1      35.411 -21.187 -18.973  0.00  0.00    +0.001 C 
ATOM     21  C   UNL     1      33.656 -22.394 -17.467  0.00  0.00    +0.017 C 
ATOM     22  C   UNL     1      32.282 -22.357 -17.491  0.00  0.00    +0.062 C 
ATOM     23  H   UNL     1      30.967 -21.315 -18.746  0.00  0.00    +0.152 HD
ENDBRANCH  13  15
ENDBRANCH   1  13
TORSDOF 3
ENDMDL
MODEL 2
REMARK VINA RESULT:     -11.8      2.595      7.357
REMARK  Name = 11651760
REMARK  3 active torsions:
REMARK  status: ('A' for Active; 'I' for Inactive)
REMARK    1  A    between atoms: C_1  and  C_6
REMARK    2  A    between atoms: C_1  and  C_13
REMARK    3  A    between atoms: C_13  and  C_15
REMARK                            x       y       z     vdW  Elec       q    Type
REMARK                         _______ _______ _______ _____ _____    ______ ____
ROOT
ATOM      1  C   UNL     1      35.841 -18.526 -21.349  0.00  0.00    +0.047 C 
ENDROOT
BRANCH   1   6
ATOM      2  O   UNL     1      32.073 -21.150 -19.836  0.00  0.00    -0.209 OA
ATOM      3  N   UNL     1      35.903 -20.138 -19.499  0.00  0.00    -0.278 N 
ATOM      4  N   UNL     1      34.079 -21.434 -18.738  0.00  0.00    -0.302 NA
ATOM      5  N   UNL     1      36.204 -21.591 -17.740  0.00  0.00    -0.320 N 
ATOM      6  C   UNL     1      35.157 -19.528 -20.478  0.00  0.00    +0.041 C 
ATOM      7  C   UNL     1      33.862 -19.845 -20.620  0.00  0.00    +0.117 C 
ATOM      8  C   UNL     1      35.334 -21.071 -18.663  0.00  0.00    +0.247 C 
ATOM      9  C   UNL     1      33.260 -20.863 -19.700  0.00  0.00    +0.209 C 
ATOM     10  H   UNL     1      36.853 -19.905 -19.395  0.00  0.00    +0.156 HD
ATOM     11  H   UNL     1      37.141 -21.287 -17.720  0.00  0.00    +0.146 HD
ATOM     12  H   UNL     1      35.893 -22.267 -17.096  0.00  0.00    +0.146 HD
ENDBRANCH   1   6
BRANCH   1  13
ATOM     13  C   UNL     1      35.082 -18.245 -22.657  0.00  0.00    +0.032 C 
BRANCH  13  15
ATOM     14  N   UNL     1      33.059 -14.381 -25.115  0.00  0.00    -0.312 N 
ATOM     15  C   UNL     1      34.550 -16.854 -22.766  0.00  0.00    -0.021 C 
ATOM     16  C   UNL     1      33.582 -15.088 -24.056  0.00  0.00    +0.048 C 
ATOM     17  C   UNL     1      34.074 -16.397 -23.998  0.00  0.00    +0.010 C 
ATOM     18  C   UNL     1      33.555 -14.243 -22.945  0.00  0.00    +0.015 C 
ATOM     19  C   UNL     1      34.536 -16.033 -21.640  0.00  0.00    -0.004 C 
ATOM     20  C   UNL     1      34.041 -14.726 -21.713  0.00  0.00    +0.001 C 
ATOM     21  C   UNL     1      32.997 -13.007 -23.374  0.00  0.00    +0.017 C 
ATOM     22  C   UNL     1      32.701 -13.122 -24.712  0.00  0.00    +0.062 C 
ATOM     23  H   UNL     1      32.955 -14.731 -26.030  0.00  0.00    +0.152 HD
ENDBRANCH  13  15
ENDBRANCH   1  13
TORSDOF 3
ENDMDL
MODEL 3
REMARK VINA RESULT:     -11.7      1.401      1.876
REMARK  Name = 11651760
REMARK  3 active torsions:
REMARK  status: ('A' for Active; 'I' for Inactive)
REMARK    1  A    between atoms: C_1  and  C_6
REMARK    2  A    between atoms: C_1  and  C_13
REMARK    3  A    between atoms: C_13  and  C_15
REMARK                            x       y       z     vdW  Elec       q    Type
REMARK                         _______ _______ _______ _____ _____    ______ ____
ROOT
ATOM      1  C   UNL     1      35.315 -17.534 -21.455  0.00  0.00    +0.047 C 
ENDROOT
BRANCH   1   6
ATOM      2  O   UNL     1      33.164 -13.252 -20.816  0.00  0.00    -0.209 OA
ATOM      3  N   UNL     1      34.365 -16.156 -23.251  0.00  0.00    -0.278 N 
ATOM      4  N   UNL     1      33.309 -14.061 -22.968  0.00  0.00    -0.302 NA
ATOM      5  N   UNL     1      33.549 -15.044 -25.093  0.00  0.00    -0.320 N 
ATOM      6  C   UNL     1      34.611 -16.297 -21.907  0.00  0.00    +0.041 C 
ATOM      7  C   UNL     1      34.220 -15.337 -21.056  0.00  0.00    +0.117 C 
ATOM      8  C   UNL     1      33.720 -15.040 -23.733  0.00  0.00    +0.247 C 
ATOM      9  C   UNL     1      33.520 -14.129 -21.600  0.00  0.00    +0.209 C 
ATOM     10  H   UNL     1      34.651 -16.861 -23.874  0.00  0.00    +0.156 HD
ATOM     11  H   UNL     1      33.875 -15.803 -25.629  0.00  0.00    +0.146 HD
ATOM     12  H   UNL     1      33.098 -14.288 -25.534  0.00  0.00    +0.146 HD
ENDBRANCH   1   6
BRANCH   1  13
ATOM     13  C   UNL     1      34.555 -18.824 -21.805  0.00  0.00    +0.032 C 
BRANCH  13  15
ATOM     14  N   UNL     1      31.929 -21.542 -18.521  0.00  0.00    -0.312 N 
ATOM     15  C   UNL     1      34.409 -19.774 -20.662  0.00  0.00    -0.021 C 
ATOM     16  C   UNL     1      33.037 -21.023 -19.152  0.00  0.00    +0.048 C 
ATOM     17  C   UNL     1      33.129 -20.129 -20.225  0.00  0.00    +0.010 C 
ATOM     18  C   UNL     1      34.160 -21.558 -18.518  0.00  0.00    +0.015 C 
ATOM     19  C   UNL     1      35.547 -20.291 -20.048  0.00  0.00    -0.004 C 
ATOM     20  C   UNL     1      35.440 -21.184 -18.975  0.00  0.00    +0.001 C 
ATOM     21  C   UNL     1      33.688 -22.415 -17.485  0.00  0.00    +0.017 C 
ATOM     22  C   UNL     1      32.313 -22.385 -17.512  0.00  0.00    +0.062 C 
ATOM     23  H   UNL     1      30.996 -21.338 -18.760  0.00  0.00    +0.152 HD
ENDBRANCH  13  15
ENDBRANCH   1  13
TORSDOF 3
ENDMDL
MODEL 4
REMARK VINA RESULT:     -11.5      2.919      7.370
REMARK  Name = 11651760
REMARK  3 active torsions:
REMARK  status: ('A' for Active; 'I' for Inactive)
REMARK    1  A    between atoms: C_1  and  C_6
REMARK    2  A    between atoms: C_1  and  C_13
REMARK    3  A    between atoms: C_13  and  C_15
REMARK                            x       y       z     vdW  Elec       q    Type
REMARK                         _______ _______ _______ _____ _____    ______ ____
ROOT
ATOM      1  C   UNL     1      35.886 -18.479 -21.422  0.00  0.00    +0.047 C 
ENDROOT
BRANCH   1   6
ATOM      2  O   UNL     1      35.781 -21.876 -17.985  0.00  0.00    -0.209 OA
ATOM      3  N   UNL     1      33.861 -19.627 -20.641  0.00  0.00    -0.278 N 
ATOM      4  N   UNL     1      33.780 -21.289 -18.964  0.00  0.00    -0.302 NA
ATOM      5  N   UNL     1      31.836 -20.561 -20.073  0.00  0.00    -0.320 N 
ATOM      6  C   UNL     1      35.222 -19.478 -20.533  0.00  0.00    +0.041 C 
ATOM      7  C   UNL     1      35.903 -20.221 -19.647  0.00  0.00    +0.117 C 
ATOM      8  C   UNL     1      33.188 -20.530 -19.850  0.00  0.00    +0.247 C 
ATOM      9  C   UNL     1      35.153 -21.199 -18.795  0.00  0.00    +0.209 C 
ATOM     10  H   UNL     1      33.363 -19.082 -21.291  0.00  0.00    +0.156 HD
ATOM     11  H   UNL     1      31.435 -19.971 -20.752  0.00  0.00    +0.146 HD
ATOM     12  H   UNL     1      31.267 -21.175 -19.557  0.00  0.00    +0.146 HD
ENDBRANCH   1   6
BRANCH   1  13
ATOM     13  C   UNL     1      35.090 -18.191 -22.707  0.00  0.00    +0.032 C 
BRANCH  13  15
ATOM     14  N   UNL     1      33.033 -14.297 -25.088  0.00  0.00    -0.312 N 
ATOM     15  C   UNL     1      34.550 -16.800 -22.789  0.00  0.00    -0.021 C 
ATOM     16  C   UNL     1      33.567 -15.018 -24.044  0.00  0.00    +0.048 C 
ATOM     17  C   UNL     1      34.065 -16.325 -24.011  0.00  0.00    +0.010 C 
ATOM     18  C   UNL     1      33.541 -14.192 -22.919  0.00  0.00    +0.015 C 
ATOM     19  C   UNL     1      34.539 -15.998 -21.650  0.00  0.00    -0.004 C 
ATOM     20  C   UNL     1      34.038 -14.693 -21.699  0.00  0.00    +0.001 C 
ATOM     21  C   UNL     1      32.975 -12.951 -23.324  0.00  0.00    +0.017 C 
ATOM     22  C   UNL     1      32.672 -13.046 -24.662  0.00  0.00    +0.062 C 
ATOM     23  H   UNL     1      32.926 -14.631 -26.009  0.00  0.00    +0.152 HD
ENDBRANCH  13  15
ENDBRANCH   1  13
TORSDOF 3
ENDMDL
MODEL 5
REMARK VINA RESULT:     -11.5      2.687      7.295
REMARK  Name = 11651760
REMARK  3 active torsions:
REMARK  status: ('A' for Active; 'I' for Inactive)
REMARK    1  A    between atoms: C_1  and  C_6
REMARK    2  A    between atoms: C_1  and  C_13
REMARK    3  A    between atoms: C_13  and  C_15
REMARK                            x       y       z     vdW  Elec       q    Type
REMARK                         _______ _______ _______ _____ _____    ______ ____
ROOT
ATOM      1  C   UNL     1      35.792 -18.753 -21.025  0.00  0.00    +0.047 C 
ENDROOT
BRANCH   1   6
ATOM      2  O   UNL     1      32.318 -21.738 -19.477  0.00  0.00    -0.209 OA
ATOM      3  N   UNL     1      36.018 -20.322 -19.150  0.00  0.00    -0.278 N 
ATOM      4  N   UNL     1      34.340 -21.791 -18.372  0.00  0.00    -0.302 NA
ATOM      5  N   UNL     1      36.466 -21.708 -17.368  0.00  0.00    -0.320 N 
ATOM      6  C   UNL     1      35.216 -19.809 -20.139  0.00  0.00    +0.041 C 
ATOM      7  C   UNL     1      33.961 -20.263 -20.279  0.00  0.00    +0.117 C 
ATOM      8  C   UNL     1      35.549 -21.297 -18.300  0.00  0.00    +0.247 C 
ATOM      9  C   UNL     1      33.468 -21.325 -19.344  0.00  0.00    +0.209 C 
ATOM     10  H   UNL     1      36.938 -19.988 -19.048  0.00  0.00    +0.156 HD
ATOM     11  H   UNL     1      37.366 -21.306 -17.352  0.00  0.00    +0.146 HD
ATOM     12  H   UNL     1      36.226 -22.403 -16.715  0.00  0.00    +0.146 HD
ENDBRANCH   1   6
BRANCH   1  13
ATOM     13  C   UNL     1      35.011 -18.574 -22.338  0.00  0.00    +0.032 C 
BRANCH  13  15
ATOM     14  N   UNL     1      33.942 -13.864 -21.019  0.00  0.00    -0.312 N 
ATOM     15  C   UNL     1      34.592 -17.167 -22.609  0.00  0.00    -0.021 C 
ATOM     16  C   UNL     1      34.111 -14.952 -21.846  0.00  0.00    +0.048 C 
ATOM     17  C   UNL     1      34.506 -16.261 -21.548  0.00  0.00    +0.010 C 
ATOM     18  C   UNL     1      33.806 -14.533 -23.143  0.00  0.00    +0.015 C 
ATOM     19  C   UNL     1      34.293 -16.777 -23.913  0.00  0.00    -0.004 C 
ATOM     20  C   UNL     1      33.898 -15.465 -24.196  0.00  0.00    +0.001 C 
ATOM     21  C   UNL     1      33.449 -13.158 -23.064  0.00  0.00    +0.017 C 
ATOM     22  C   UNL     1      33.543 -12.775 -21.746  0.00  0.00    +0.062 C 
ATOM     23  H   UNL     1      34.089 -13.869 -20.045  0.00  0.00    +0.152 HD
ENDBRANCH  13  15
ENDBRANCH   1  13
TORSDOF 3
ENDMDL
MODEL 6
REMARK VINA RESULT:     -11.4      2.673      7.314
REMARK  Name = 11651760
REMARK  3 active torsions:
REMARK  status: ('A' for Active; 'I' for Inactive)
REMARK    1  A    between atoms: C_1  and  C_6
REMARK    2  A    between atoms: C_1  and  C_13
REMARK    3  A    between atoms: C_13  and  C_15
REMARK                            x       y       z     vdW  Elec       q    Type
REMARK                         _______ _______ _______ _____ _____    ______ ____
ROOT
ATOM      1  C   UNL     1      35.768 -18.343 -21.511  0.00  0.00    +0.047 C 
ENDROOT
BRANCH   1   6
ATOM      2  O   UNL     1      35.951 -21.765 -18.101  0.00  0.00    -0.209 OA
ATOM      3  N   UNL     1      33.829 -19.582 -20.657  0.00  0.00    -0.278 N 
ATOM      4  N   UNL     1      33.888 -21.258 -18.993  0.00  0.00    -0.302 NA
ATOM      5  N   UNL     1      31.871 -20.607 -20.014  0.00  0.00    -0.320 N 
ATOM      6  C   UNL     1      35.185 -19.376 -20.604  0.00  0.00    +0.041 C 
ATOM      7  C   UNL     1      35.933 -20.095 -19.753  0.00  0.00    +0.117 C 
ATOM      8  C   UNL     1      33.228 -20.518 -19.847  0.00  0.00    +0.247 C 
ATOM      9  C   UNL     1      35.262 -21.110 -18.879  0.00  0.00    +0.209 C 
ATOM     10  H   UNL     1      33.281 -19.055 -21.282  0.00  0.00    +0.156 HD
ATOM     11  H   UNL     1      31.417 -20.029 -20.671  0.00  0.00    +0.146 HD
ATOM     12  H   UNL     1      31.350 -21.248 -19.480  0.00  0.00    +0.146 HD
ENDBRANCH   1   6
BRANCH   1  13
ATOM     13  C   UNL     1      35.034 -18.240 -22.859  0.00  0.00    +0.032 C 
BRANCH  13  15
ATOM     14  N   UNL     1      33.858 -13.519 -21.678  0.00  0.00    -0.312 N 
ATOM     15  C   UNL     1      34.468 -16.887 -23.141  0.00  0.00    -0.021 C 
ATOM     16  C   UNL     1      33.961 -14.655 -22.450  0.00  0.00    +0.048 C 
ATOM     17  C   UNL     1      34.501 -15.909 -22.143  0.00  0.00    +0.010 C 
ATOM     18  C   UNL     1      33.402 -14.358 -23.695  0.00  0.00    +0.015 C 
ATOM     19  C   UNL     1      33.915 -16.620 -24.392  0.00  0.00    -0.004 C 
ATOM     20  C   UNL     1      33.379 -15.361 -24.684  0.00  0.00    +0.001 C 
ATOM     21  C   UNL     1      32.961 -13.006 -23.642  0.00  0.00    +0.017 C 
ATOM     22  C   UNL     1      33.255 -12.517 -22.391  0.00  0.00    +0.062 C 
ATOM     23  H   UNL     1      34.173 -13.438 -20.748  0.00  0.00    +0.152 HD
ENDBRANCH  13  15
ENDBRANCH   1  13
TORSDOF 3
ENDMDL
MODEL 7
REMARK VINA RESULT:     -11.1      1.314      1.822
REMARK  Name = 11651760
REMARK  3 active torsions:
REMARK  status: ('A' for Active; 'I' for Inactive)
REMARK    1  A    between atoms: C_1  and  C_6
REMARK    2  A    between atoms: C_1  and  C_13
REMARK    3  A    between atoms: C_13  and  C_15
REMARK                            x       y       z     vdW  Elec       q    Type
REMARK                         _______ _______ _______ _____ _____    ______ ____
ROOT
ATOM      1  C   UNL     1      35.331 -17.962 -21.171  0.00  0.00    +0.047 C 
ENDROOT
BRANCH   1   6
ATOM      2  O   UNL     1      33.724 -15.852 -25.213  0.00  0.00    -0.209 OA
ATOM      3  N   UNL     1      34.465 -15.669 -21.311  0.00  0.00    -0.278 N 
ATOM      4  N   UNL     1      33.674 -14.613 -23.271  0.00  0.00    -0.302 NA
ATOM      5  N   UNL     1      33.696 -13.503 -21.195  0.00  0.00    -0.320 N 
ATOM      6  C   UNL     1      34.757 -16.839 -21.970  0.00  0.00    +0.041 C 
ATOM      7  C   UNL     1      34.519 -16.936 -23.287  0.00  0.00    +0.117 C 
ATOM      8  C   UNL     1      33.933 -14.596 -21.988  0.00  0.00    +0.247 C 
ATOM      9  C   UNL     1      33.940 -15.757 -24.007  0.00  0.00    +0.209 C 
ATOM     10  H   UNL     1      34.640 -15.599 -20.346  0.00  0.00    +0.156 HD
ATOM     11  H   UNL     1      33.908 -13.537 -20.234  0.00  0.00    +0.146 HD
ATOM     12  H   UNL     1      33.316 -12.685 -21.587  0.00  0.00    +0.146 HD
ENDBRANCH   1   6
BRANCH   1  13
ATOM     13  C   UNL     1      34.634 -19.308 -21.433  0.00  0.00    +0.032 C 
BRANCH  13  15
ATOM     14  N   UNL     1      36.276 -21.613 -17.302  0.00  0.00    -0.312 N 
ATOM     15  C   UNL     1      34.471 -20.155 -20.214  0.00  0.00    -0.021 C 
ATOM     16  C   UNL     1      35.383 -21.205 -18.268  0.00  0.00    +0.048 C 
ATOM     17  C   UNL     1      35.580 -20.408 -19.401  0.00  0.00    +0.010 C 
ATOM     18  C   UNL     1      34.140 -21.744 -17.932  0.00  0.00    +0.015 C 
ATOM     19  C   UNL     1      33.219 -20.681 -19.904  0.00  0.00    -0.004 C 
ATOM     20  C   UNL     1      33.037 -21.477 -18.768  0.00  0.00    +0.001 C 
ATOM     21  C   UNL     1      34.318 -22.489 -16.733  0.00  0.00    +0.017 C 
ATOM     22  C   UNL     1      35.640 -22.389 -16.370  0.00  0.00    +0.062 C 
ATOM     23  H   UNL     1      37.233 -21.380 -17.284  0.00  0.00    +0.152 HD
ENDBRANCH  13  15
ENDBRANCH   1  13
TORSDOF 3
ENDMDL
MODEL 8
REMARK VINA RESULT:     -11.0      3.109      7.797
REMARK  Name = 11651760
REMARK  3 active torsions:
REMARK  status: ('A' for Active; 'I' for Inactive)
REMARK    1  A    between atoms: C_1  and  C_6
REMARK    2  A    between atoms: C_1  and  C_13
REMARK    3  A    between atoms: C_13  and  C_15
REMARK                            x       y       z     vdW  Elec       q    Type
REMARK                         _______ _______ _______ _____ _____    ______ ____
ROOT
ATOM      1  C   UNL     1      34.729 -20.699 -20.196  0.00  0.00    +0.047 C 
ENDROOT
BRANCH   1   6
ATOM      2  O   UNL     1      37.237 -21.665 -16.177  0.00  0.00    -0.209 OA
ATOM      3  N   UNL     1      33.860 -21.932 -18.258  0.00  0.00    -0.278 N 
ATOM      4  N   UNL     1      35.062 -22.418 -16.283  0.00  0.00    -0.302 NA
ATOM      5  N   UNL     1      32.830 -23.106 -16.569  0.00  0.00    -0.320 N 
ATOM      6  C   UNL     1      34.921 -21.272 -18.830  0.00  0.00    +0.041 C 
ATOM      7  C   UNL     1      36.075 -21.162 -18.156  0.00  0.00    +0.117 C 
ATOM      8  C   UNL     1      33.971 -22.483 -17.002  0.00  0.00    +0.247 C 
ATOM      9  C   UNL     1      36.177 -21.768 -16.790  0.00  0.00    +0.209 C 
ATOM     10  H   UNL     1      33.014 -22.012 -18.753  0.00  0.00    +0.156 HD
ATOM     11  H   UNL     1      32.031 -23.130 -17.146  0.00  0.00    +0.146 HD
ATOM     12  H   UNL     1      32.808 -23.531 -15.682  0.00  0.00    +0.146 HD
ENDBRANCH   1   6
BRANCH   1  13
ATOM     13  C   UNL     1      35.533 -19.409 -20.428  0.00  0.00    +0.032 C 
BRANCH  13  15
ATOM     14  N   UNL     1      34.481 -15.029 -22.614  0.00  0.00    -0.312 N 
ATOM     15  C   UNL     1      35.004 -18.552 -21.531  0.00  0.00    -0.021 C 
ATOM     16  C   UNL     1      34.556 -16.396 -22.463  0.00  0.00    +0.048 C 
ATOM     17  C   UNL     1      35.061 -17.161 -21.405  0.00  0.00    +0.010 C 
ATOM     18  C   UNL     1      34.009 -16.967 -23.614  0.00  0.00    +0.015 C 
ATOM     19  C   UNL     1      34.464 -19.150 -22.668  0.00  0.00    -0.004 C 
ATOM     20  C   UNL     1      33.963 -18.371 -23.717  0.00  0.00    +0.001 C 
ATOM     21  C   UNL     1      33.605 -15.896 -24.459  0.00  0.00    +0.017 C 
ATOM     22  C   UNL     1      33.908 -14.718 -23.818  0.00  0.00    +0.062 C 
ATOM     23  H   UNL     1      34.795 -14.370 -21.952  0.00  0.00    +0.152 HD
ENDBRANCH  13  15
ENDBRANCH   1  13
TORSDOF 3
ENDMDL
MODEL 9
REMARK VINA RESULT:     -10.7      4.250      8.350
REMARK  Name = 11651760
REMARK  3 active torsions:
REMARK  status: ('A' for Active; 'I' for Inactive)
REMARK    1  A    between atoms: C_1  and  C_6
REMARK    2  A    between atoms: C_1  and  C_13
REMARK    3  A    between atoms: C_13  and  C_15
REMARK                            x       y       z     vdW  Elec       q    Type
REMARK                         _______ _______ _______ _____ _____    ______ ____
ROOT
ATOM      1  C   UNL     1      33.070 -22.631 -17.202  0.00  0.00    +0.047 C 
ENDROOT
BRANCH   1   6
ATOM      2  O   UNL     1      31.120 -22.955 -12.790  0.00  0.00    -0.209 OA
ATOM      3  N   UNL     1      30.672 -22.458 -16.709  0.00  0.00    -0.278 N 
ATOM      4  N   UNL     1      29.691 -22.612 -14.565  0.00  0.00    -0.302 NA
ATOM      5  N   UNL     1      28.389 -22.262 -16.493  0.00  0.00    -0.320 N 
ATOM      6  C   UNL     1      31.943 -22.637 -16.222  0.00  0.00    +0.041 C 
ATOM      7  C   UNL     1      32.132 -22.807 -14.905  0.00  0.00    +0.117 C 
ATOM      8  C   UNL     1      29.589 -22.452 -15.859  0.00  0.00    +0.247 C 
ATOM      9  C   UNL     1      30.942 -22.799 -13.996  0.00  0.00    +0.209 C 
ATOM     10  H   UNL     1      30.534 -22.333 -17.675  0.00  0.00    +0.156 HD
ATOM     11  H   UNL     1      28.361 -22.147 -17.471  0.00  0.00    +0.146 HD
ATOM     12  H   UNL     1      27.555 -22.242 -15.972  0.00  0.00    +0.146 HD
ENDBRANCH   1   6
BRANCH   1  13
ATOM     13  C   UNL     1      32.680 -22.042 -18.568  0.00  0.00    +0.032 C 
BRANCH  13  15
ATOM     14  N   UNL     1      34.321 -18.423 -21.613  0.00  0.00    -0.312 N 
ATOM     15  C   UNL     1      33.733 -21.181 -19.183  0.00  0.00    -0.021 C 
ATOM     16  C   UNL     1      34.384 -19.432 -20.678  0.00  0.00    +0.048 C 
ATOM     17  C   UNL     1      33.366 -20.218 -20.128  0.00  0.00    +0.010 C 
ATOM     18  C   UNL     1      35.726 -19.576 -20.320  0.00  0.00    +0.015 C 
ATOM     19  C   UNL     1      35.064 -21.348 -18.807  0.00  0.00    -0.004 C 
ATOM     20  C   UNL     1      36.072 -20.554 -19.366  0.00  0.00    +0.001 C 
ATOM     21  C   UNL     1      36.464 -18.620 -21.073  0.00  0.00    +0.017 C 
ATOM     22  C   UNL     1      35.573 -17.926 -21.858  0.00  0.00    +0.062 C 
ATOM     23  H   UNL     1      33.494 -18.104 -22.044  0.00  0.00    +0.152 HD
ENDBRANCH  13  15
ENDBRANCH   1  13
TORSDOF 3
ENDMDL
