MODEL 1
REMARK VINA RESULT:     -11.7      0.000      0.000
REMARK  Name = 10253143
REMARK  5 active torsions:
REMARK  status: ('A' for Active; 'I' for Inactive)
REMARK    1  A    between atoms: N_3  and  C_11
REMARK    2  A    between atoms: C_4  and  C_23
REMARK    3  A    between atoms: C_5  and  C_20
REMARK    4  A    between atoms: N_22  and  C_25
REMARK    5  A    between atoms: C_25  and  C_27
REMARK                            x       y       z     vdW  Elec       q    Type
REMARK                         _______ _______ _______ _____ _____    ______ ____
ROOT
ATOM      1  N   UNL     1      33.951 -15.815 -21.821  0.00  0.00    -0.333 NA
ATOM      2  N   UNL     1      33.833 -15.951 -24.224  0.00  0.00    -0.170 NA
ATOM      3  N   UNL     1      34.357 -17.840 -22.936  0.00  0.00    -0.246 N 
ATOM      4  C   UNL     1      33.418 -13.889 -23.110  0.00  0.00    +0.108 C 
ATOM      5  C   UNL     1      33.638 -14.507 -21.916  0.00  0.00    +0.221 C 
ATOM      6  C   UNL     1      33.523 -14.638 -24.246  0.00  0.00    +0.119 C 
ATOM      7  C   UNL     1      34.030 -16.468 -22.996  0.00  0.00    +0.149 C 
ATOM      8  H   UNL     1      34.405 -18.275 -23.817  0.00  0.00    +0.165 HD
ENDROOT
BRANCH   3  11
ATOM      9 CL   UNL     1      37.256 -18.003 -22.027  0.00  0.00    -0.081 Cl
ATOM     10 CL   UNL     1      35.388 -21.521 -18.410  0.00  0.00    -0.082 Cl
ATOM     11  C   UNL     1      34.627 -18.708 -21.861  0.00  0.00    +0.068 C 
ATOM     12  C   UNL     1      35.920 -18.867 -21.356  0.00  0.00    +0.072 C 
ATOM     13  C   UNL     1      33.570 -19.425 -21.292  0.00  0.00    +0.017 C 
ATOM     14  C   UNL     1      36.155 -19.736 -20.290  0.00  0.00    +0.024 C 
ATOM     15  C   UNL     1      33.806 -20.294 -20.226  0.00  0.00    +0.013 C 
ATOM     16  C   UNL     1      35.098 -20.449 -19.725  0.00  0.00    +0.059 C 
ENDBRANCH   3  11
BRANCH   5  20
ATOM     17  F   UNL     1      34.287 -12.618 -20.598  0.00  0.00    -0.164 F 
ATOM     18  F   UNL     1      32.276 -13.377 -20.308  0.00  0.00    -0.164 F 
ATOM     19  F   UNL     1      33.978 -14.505 -19.563  0.00  0.00    -0.164 F 
ATOM     20  C   UNL     1      33.546 -13.765 -20.623  0.00  0.00    +0.447 C 
ENDBRANCH   5  20
BRANCH   4  23
ATOM     21  O   UNL     1      33.837 -11.686 -23.796  0.00  0.00    -0.270 OA
ATOM     22  N   UNL     1      31.872 -12.059 -22.621  0.00  0.00    -0.301 N 
ATOM     23  C   UNL     1      33.076 -12.447 -23.205  0.00  0.00    +0.250 C 
ATOM     24  H   UNL     1      31.327 -12.743 -22.167  0.00  0.00    +0.150 HD
BRANCH  22  25
ATOM     25  C   UNL     1      31.392 -10.710 -22.650  0.00  0.00    +0.090 C 
BRANCH  25  27
ATOM     26  O   UNL     1      31.248  -8.160 -19.233  0.00  0.00    -0.354 OA
ATOM     27  C   UNL     1      31.860  -9.935 -21.422  0.00  0.00    +0.025 C 
ATOM     28  C   UNL     1      31.662  -8.426 -21.612  0.00  0.00    +0.034 C 
ATOM     29  C   UNL     1      31.125 -10.401 -20.161  0.00  0.00    +0.034 C 
ATOM     30  C   UNL     1      32.013  -7.673 -20.335  0.00  0.00    +0.142 C 
ATOM     31  C   UNL     1      31.506  -9.537 -18.965  0.00  0.00    +0.142 C 
ENDBRANCH  25  27
ENDBRANCH  22  25
ENDBRANCH   4  23
TORSDOF 5
ENDMDL
MODEL 2
REMARK VINA RESULT:     -11.5      5.622      9.673
REMARK  Name = 10253143
REMARK  5 active torsions:
REMARK  status: ('A' for Active; 'I' for Inactive)
REMARK    1  A    between atoms: N_3  and  C_11
REMARK    2  A    between atoms: C_4  and  C_23
REMARK    3  A    between atoms: C_5  and  C_20
REMARK    4  A    between atoms: N_22  and  C_25
REMARK    5  A    between atoms: C_25  and  C_27
REMARK                            x       y       z     vdW  Elec       q    Type
REMARK                         _______ _______ _______ _____ _____    ______ ____
ROOT
ATOM      1  N   UNL     1      33.888 -19.202 -20.849  0.00  0.00    -0.333 NA
ATOM      2  N   UNL     1      36.196 -19.597 -20.282  0.00  0.00    -0.170 NA
ATOM      3  N   UNL     1      35.590 -17.832 -21.703  0.00  0.00    -0.246 N 
ATOM      4  C   UNL     1      34.483 -20.997 -19.406  0.00  0.00    +0.108 C 
ATOM      5  C   UNL     1      33.556 -20.258 -20.078  0.00  0.00    +0.221 C 
ATOM      6  C   UNL     1      35.794 -20.642 -19.529  0.00  0.00    +0.119 C 
ATOM      7  C   UNL     1      35.206 -18.930 -20.905  0.00  0.00    +0.149 C 
ATOM      8  H   UNL     1      36.561 -17.671 -21.715  0.00  0.00    +0.165 HD
ENDROOT
BRANCH   3  11
ATOM      9 CL   UNL     1      34.286 -18.948 -24.215  0.00  0.00    -0.081 Cl
ATOM     10 CL   UNL     1      32.530 -13.911 -24.921  0.00  0.00    -0.082 Cl
ATOM     11  C   UNL     1      34.857 -16.919 -22.484  0.00  0.00    +0.068 C 
ATOM     12  C   UNL     1      34.214 -17.314 -23.660  0.00  0.00    +0.072 C 
ATOM     13  C   UNL     1      34.777 -15.587 -22.067  0.00  0.00    +0.017 C 
ATOM     14  C   UNL     1      33.495 -16.385 -24.413  0.00  0.00    +0.024 C 
ATOM     15  C   UNL     1      34.058 -14.658 -22.820  0.00  0.00    +0.013 C 
ATOM     16  C   UNL     1      33.417 -15.057 -23.993  0.00  0.00    +0.059 C 
ENDBRANCH   3  11
BRANCH   5  20
ATOM     17  F   UNL     1      31.806 -21.873 -20.312  0.00  0.00    -0.164 F 
ATOM     18  F   UNL     1      31.561 -20.372 -18.765  0.00  0.00    -0.164 F 
ATOM     19  F   UNL     1      31.353 -19.817 -20.857  0.00  0.00    -0.164 F 
ATOM     20  C   UNL     1      32.099 -20.575 -20.003  0.00  0.00    +0.447 C 
ENDBRANCH   5  20
BRANCH   4  23
ATOM     21  O   UNL     1      33.751 -23.204 -19.100  0.00  0.00    -0.270 OA
ATOM     22  N   UNL     1      34.214 -21.981 -17.184  0.00  0.00    -0.301 N 
ATOM     23  C   UNL     1      34.108 -22.160 -18.562  0.00  0.00    +0.250 C 
ATOM     24  H   UNL     1      34.509 -21.105 -16.844  0.00  0.00    +0.150 HD
BRANCH  22  25
ATOM     25  C   UNL     1      33.913 -23.015 -16.240  0.00  0.00    +0.090 C 
BRANCH  25  27
ATOM     26  O   UNL     1      30.157 -23.473 -14.270  0.00  0.00    -0.354 OA
ATOM     27  C   UNL     1      32.675 -22.665 -15.420  0.00  0.00    +0.025 C 
ATOM     28  C   UNL     1      31.397 -22.819 -16.253  0.00  0.00    +0.034 C 
ATOM     29  C   UNL     1      32.582 -23.533 -14.160  0.00  0.00    +0.034 C 
ATOM     30  C   UNL     1      30.162 -22.591 -15.391  0.00  0.00    +0.142 C 
ATOM     31  C   UNL     1      31.280 -23.265 -13.415  0.00  0.00    +0.142 C 
ENDBRANCH  25  27
ENDBRANCH  22  25
ENDBRANCH   4  23
TORSDOF 5
ENDMDL
MODEL 3
REMARK VINA RESULT:     -11.3      5.676     10.247
REMARK  Name = 10253143
REMARK  5 active torsions:
REMARK  status: ('A' for Active; 'I' for Inactive)
REMARK    1  A    between atoms: N_3  and  C_11
REMARK    2  A    between atoms: C_4  and  C_23
REMARK    3  A    between atoms: C_5  and  C_20
REMARK    4  A    between atoms: N_22  and  C_25
REMARK    5  A    between atoms: C_25  and  C_27
REMARK                            x       y       z     vdW  Elec       q    Type
REMARK                         _______ _______ _______ _____ _____    ______ ____
ROOT
ATOM      1  N   UNL     1      33.876 -19.335 -20.646  0.00  0.00    -0.333 NA
ATOM      2  N   UNL     1      36.171 -19.878 -20.151  0.00  0.00    -0.170 NA
ATOM      3  N   UNL     1      35.637 -18.104 -21.590  0.00  0.00    -0.246 N 
ATOM      4  C   UNL     1      34.398 -21.138 -19.185  0.00  0.00    +0.108 C 
ATOM      5  C   UNL     1      33.500 -20.350 -19.841  0.00  0.00    +0.221 C 
ATOM      6  C   UNL     1      35.725 -20.877 -19.361  0.00  0.00    +0.119 C 
ATOM      7  C   UNL     1      35.207 -19.157 -20.754  0.00  0.00    +0.149 C 
ATOM      8  H   UNL     1      36.615 -18.012 -21.639  0.00  0.00    +0.165 HD
ENDROOT
BRANCH   3  11
ATOM      9 CL   UNL     1      34.356 -19.138 -24.150  0.00  0.00    -0.081 Cl
ATOM     10 CL   UNL     1      32.731 -14.048 -24.783  0.00  0.00    -0.082 Cl
ATOM     11  C   UNL     1      34.940 -17.159 -22.365  0.00  0.00    +0.068 C 
ATOM     12  C   UNL     1      34.311 -17.514 -23.562  0.00  0.00    +0.072 C 
ATOM     13  C   UNL     1      34.882 -15.834 -21.922  0.00  0.00    +0.017 C 
ATOM     14  C   UNL     1      33.629 -16.553 -24.308  0.00  0.00    +0.024 C 
ATOM     15  C   UNL     1      34.200 -14.873 -22.669  0.00  0.00    +0.013 C 
ATOM     16  C   UNL     1      33.573 -15.233 -23.862  0.00  0.00    +0.059 C 
ENDBRANCH   3  11
BRANCH   5  20
ATOM     17  F   UNL     1      31.560 -21.611 -20.450  0.00  0.00    -0.164 F 
ATOM     18  F   UNL     1      31.630 -20.825 -18.429  0.00  0.00    -0.164 F 
ATOM     19  F   UNL     1      31.304 -19.479 -20.106  0.00  0.00    -0.164 F 
ATOM     20  C   UNL     1      32.029 -20.564 -19.708  0.00  0.00    +0.447 C 
ENDBRANCH   5  20
BRANCH   4  23
ATOM     21  O   UNL     1      33.503 -23.271 -18.803  0.00  0.00    -0.270 OA
ATOM     22  N   UNL     1      34.172 -22.069 -16.936  0.00  0.00    -0.301 N 
ATOM     23  C   UNL     1      33.975 -22.255 -18.302  0.00  0.00    +0.250 C 
ATOM     24  H   UNL     1      34.558 -21.217 -16.626  0.00  0.00    +0.150 HD
BRANCH  22  25
ATOM     25  C   UNL     1      33.838 -23.062 -15.959  0.00  0.00    +0.090 C 
BRANCH  25  27
ATOM     26  O   UNL     1      37.604 -24.537 -14.603  0.00  0.00    -0.354 OA
ATOM     27  C   UNL     1      35.018 -23.336 -15.031  0.00  0.00    +0.025 C 
ATOM     28  C   UNL     1      35.202 -24.841 -14.801  0.00  0.00    +0.034 C 
ATOM     29  C   UNL     1      36.312 -22.733 -15.588  0.00  0.00    +0.034 C 
ATOM     30  C   UNL     1      36.456 -25.109 -13.978  0.00  0.00    +0.142 C 
ATOM     31  C   UNL     1      37.504 -23.119 -14.720  0.00  0.00    +0.142 C 
ENDBRANCH  25  27
ENDBRANCH  22  25
ENDBRANCH   4  23
TORSDOF 5
ENDMDL
MODEL 4
REMARK VINA RESULT:     -11.0      4.318      6.735
REMARK  Name = 10253143
REMARK  5 active torsions:
REMARK  status: ('A' for Active; 'I' for Inactive)
REMARK    1  A    between atoms: N_3  and  C_11
REMARK    2  A    between atoms: C_4  and  C_23
REMARK    3  A    between atoms: C_5  and  C_20
REMARK    4  A    between atoms: N_22  and  C_25
REMARK    5  A    between atoms: C_25  and  C_27
REMARK                            x       y       z     vdW  Elec       q    Type
REMARK                         _______ _______ _______ _____ _____    ______ ____
ROOT
ATOM      1  N   UNL     1      33.901 -20.917 -18.929  0.00  0.00    -0.333 NA
ATOM      2  N   UNL     1      31.785 -20.607 -20.039  0.00  0.00    -0.170 NA
ATOM      3  N   UNL     1      31.924 -21.797 -18.023  0.00  0.00    -0.246 N 
ATOM      4  C   UNL     1      33.780 -19.708 -20.974  0.00  0.00    +0.108 C 
ATOM      5  C   UNL     1      34.485 -20.219 -19.925  0.00  0.00    +0.221 C 
ATOM      6  C   UNL     1      32.433 -19.919 -21.002  0.00  0.00    +0.119 C 
ATOM      7  C   UNL     1      32.569 -21.071 -19.047  0.00  0.00    +0.149 C 
ATOM      8  H   UNL     1      30.952 -21.885 -18.150  0.00  0.00    +0.165 HD
ENDROOT
BRANCH   3  11
ATOM      9 CL   UNL     1      29.826 -22.572 -15.959  0.00  0.00    -0.081 Cl
ATOM     10 CL   UNL     1      34.023 -24.406 -13.135  0.00  0.00    -0.082 Cl
ATOM     11  C   UNL     1      32.399 -22.419 -16.853  0.00  0.00    +0.068 C 
ATOM     12  C   UNL     1      31.531 -22.820 -15.833  0.00  0.00    +0.072 C 
ATOM     13  C   UNL     1      33.773 -22.636 -16.714  0.00  0.00    +0.017 C 
ATOM     14  C   UNL     1      32.033 -23.434 -14.685  0.00  0.00    +0.024 C 
ATOM     15  C   UNL     1      34.274 -23.250 -15.566  0.00  0.00    +0.013 C 
ATOM     16  C   UNL     1      33.404 -23.649 -14.551  0.00  0.00    +0.059 C 
ENDBRANCH   3  11
BRANCH   5  20
ATOM     17  F   UNL     1      36.679 -20.906 -20.587  0.00  0.00    -0.164 F 
ATOM     18  F   UNL     1      36.388 -18.795 -20.183  0.00  0.00    -0.164 F 
ATOM     19  F   UNL     1      36.417 -20.219 -18.541  0.00  0.00    -0.164 F 
ATOM     20  C   UNL     1      35.963 -20.038 -19.814  0.00  0.00    +0.447 C 
ENDBRANCH   5  20
BRANCH   4  23
ATOM     21  O   UNL     1      35.069 -19.545 -22.926  0.00  0.00    -0.270 OA
ATOM     22  N   UNL     1      34.247 -17.562 -22.049  0.00  0.00    -0.301 N 
ATOM     23  C   UNL     1      34.432 -18.942 -22.067  0.00  0.00    +0.250 C 
ATOM     24  H   UNL     1      33.719 -17.167 -21.317  0.00  0.00    +0.150 HD
BRANCH  22  25
ATOM     25  C   UNL     1      34.790 -16.691 -23.047  0.00  0.00    +0.090 C 
BRANCH  25  27
ATOM     26  O   UNL     1      32.659 -13.190 -21.864  0.00  0.00    -0.354 OA
ATOM     27  C   UNL     1      34.515 -15.229 -22.708  0.00  0.00    +0.025 C 
ATOM     28  C   UNL     1      33.461 -14.632 -23.647  0.00  0.00    +0.034 C 
ATOM     29  C   UNL     1      34.062 -15.075 -21.251  0.00  0.00    +0.034 C 
ATOM     30  C   UNL     1      33.101 -13.214 -23.220  0.00  0.00    +0.142 C 
ATOM     31  C   UNL     1      33.670 -13.632 -20.959  0.00  0.00    +0.142 C 
ENDBRANCH  25  27
ENDBRANCH  22  25
ENDBRANCH   4  23
TORSDOF 5
ENDMDL
MODEL 5
REMARK VINA RESULT:     -11.0      3.504      5.808
REMARK  Name = 10253143
REMARK  5 active torsions:
REMARK  status: ('A' for Active; 'I' for Inactive)
REMARK    1  A    between atoms: N_3  and  C_11
REMARK    2  A    between atoms: C_4  and  C_23
REMARK    3  A    between atoms: C_5  and  C_20
REMARK    4  A    between atoms: N_22  and  C_25
REMARK    5  A    between atoms: C_25  and  C_27
REMARK                            x       y       z     vdW  Elec       q    Type
REMARK                         _______ _______ _______ _____ _____    ______ ____
ROOT
ATOM      1  N   UNL     1      34.687 -20.153 -19.709  0.00  0.00    -0.333 NA
ATOM      2  N   UNL     1      32.414 -20.636 -20.345  0.00  0.00    -0.170 NA
ATOM      3  N   UNL     1      33.357 -21.599 -18.426  0.00  0.00    -0.246 N 
ATOM      4  C   UNL     1      33.748 -19.167 -21.659  0.00  0.00    +0.108 C 
ATOM      5  C   UNL     1      34.782 -19.354 -20.791  0.00  0.00    +0.221 C 
ATOM      6  C   UNL     1      32.578 -19.822 -21.409  0.00  0.00    +0.119 C 
ATOM      7  C   UNL     1      33.493 -20.754 -19.548  0.00  0.00    +0.149 C 
ATOM      8  H   UNL     1      32.470 -22.017 -18.349  0.00  0.00    +0.165 HD
ENDROOT
BRANCH   3  11
ATOM      9 CL   UNL     1      32.145 -23.095 -16.069  0.00  0.00    -0.081 Cl
ATOM     10 CL   UNL     1      37.166 -23.073 -14.134  0.00  0.00    -0.082 Cl
ATOM     11  C   UNL     1      34.243 -21.960 -17.393  0.00  0.00    +0.068 C 
ATOM     12  C   UNL     1      33.803 -22.650 -16.260  0.00  0.00    +0.072 C 
ATOM     13  C   UNL     1      35.593 -21.617 -17.512  0.00  0.00    +0.017 C 
ATOM     14  C   UNL     1      34.706 -22.993 -15.254  0.00  0.00    +0.024 C 
ATOM     15  C   UNL     1      36.495 -21.960 -16.505  0.00  0.00    +0.013 C 
ATOM     16  C   UNL     1      36.052 -22.649 -15.376  0.00  0.00    +0.059 C 
ENDBRANCH   3  11
BRANCH   5  20
ATOM     17  F   UNL     1      36.673 -18.943 -22.198  0.00  0.00    -0.164 F 
ATOM     18  F   UNL     1      36.029 -17.317 -20.915  0.00  0.00    -0.164 F 
ATOM     19  F   UNL     1      37.022 -19.049 -20.055  0.00  0.00    -0.164 F 
ATOM     20  C   UNL     1      36.099 -18.679 -20.988  0.00  0.00    +0.447 C 
ENDBRANCH   5  20
BRANCH   4  23
ATOM     21  O   UNL     1      33.702 -18.765 -23.969  0.00  0.00    -0.270 OA
ATOM     22  N   UNL     1      34.126 -16.942 -22.599  0.00  0.00    -0.301 N 
ATOM     23  C   UNL     1      33.862 -18.287 -22.850  0.00  0.00    +0.250 C 
ATOM     24  H   UNL     1      34.239 -16.650 -21.665  0.00  0.00    +0.150 HD
BRANCH  22  25
ATOM     25  C   UNL     1      34.240 -15.964 -23.640  0.00  0.00    +0.090 C 
BRANCH  25  27
ATOM     26  O   UNL     1      32.581 -12.539 -21.713  0.00  0.00    -0.354 OA
ATOM     27  C   UNL     1      34.134 -14.550 -23.078  0.00  0.00    +0.025 C 
ATOM     28  C   UNL     1      33.011 -13.764 -23.766  0.00  0.00    +0.034 C 
ATOM     29  C   UNL     1      33.899 -14.573 -21.563  0.00  0.00    +0.034 C 
ATOM     30  C   UNL     1      32.830 -12.400 -23.111  0.00  0.00    +0.142 C 
ATOM     31  C   UNL     1      33.668 -13.164 -21.032  0.00  0.00    +0.142 C 
ENDBRANCH  25  27
ENDBRANCH  22  25
ENDBRANCH   4  23
TORSDOF 5
ENDMDL
MODEL 6
REMARK VINA RESULT:     -10.8      2.690      3.503
REMARK  Name = 10253143
REMARK  5 active torsions:
REMARK  status: ('A' for Active; 'I' for Inactive)
REMARK    1  A    between atoms: N_3  and  C_11
REMARK    2  A    between atoms: C_4  and  C_23
REMARK    3  A    between atoms: C_5  and  C_20
REMARK    4  A    between atoms: N_22  and  C_25
REMARK    5  A    between atoms: C_25  and  C_27
REMARK                            x       y       z     vdW  Elec       q    Type
REMARK                         _______ _______ _______ _____ _____    ______ ____
ROOT
ATOM      1  N   UNL     1      33.098 -14.056 -22.200  0.00  0.00    -0.333 NA
ATOM      2  N   UNL     1      33.539 -13.364 -24.466  0.00  0.00    -0.170 NA
ATOM      3  N   UNL     1      34.138 -15.507 -23.723  0.00  0.00    -0.246 N 
ATOM      4  C   UNL     1      32.483 -11.879 -22.935  0.00  0.00    +0.108 C 
ATOM      5  C   UNL     1      32.556 -12.842 -21.973  0.00  0.00    +0.221 C 
ATOM      6  C   UNL     1      32.983 -12.171 -24.170  0.00  0.00    +0.119 C 
ATOM      7  C   UNL     1      33.563 -14.247 -23.449  0.00  0.00    +0.149 C 
ATOM      8  H   UNL     1      34.465 -15.601 -24.646  0.00  0.00    +0.165 HD
ENDROOT
BRANCH   3  11
ATOM      9 CL   UNL     1      32.984 -18.105 -24.807  0.00  0.00    -0.081 Cl
ATOM     10 CL   UNL     1      35.021 -20.281 -20.328  0.00  0.00    -0.082 Cl
ATOM     11  C   UNL     1      34.336 -16.655 -22.933  0.00  0.00    +0.068 C 
ATOM     12  C   UNL     1      33.851 -17.906 -23.327  0.00  0.00    +0.072 C 
ATOM     13  C   UNL     1      35.033 -16.534 -21.728  0.00  0.00    +0.017 C 
ATOM     14  C   UNL     1      34.063 -19.025 -22.522  0.00  0.00    +0.024 C 
ATOM     15  C   UNL     1      35.244 -17.654 -20.923  0.00  0.00    +0.013 C 
ATOM     16  C   UNL     1      34.759 -18.900 -21.321  0.00  0.00    +0.059 C 
ENDBRANCH   3  11
BRANCH   5  20
ATOM     17  F   UNL     1      32.688 -11.616 -19.923  0.00  0.00    -0.164 F 
ATOM     18  F   UNL     1      30.717 -12.257 -20.561  0.00  0.00    -0.164 F 
ATOM     19  F   UNL     1      32.138 -13.716 -19.802  0.00  0.00    -0.164 F 
ATOM     20  C   UNL     1      32.035 -12.610 -20.593  0.00  0.00    +0.447 C 
ENDBRANCH   5  20
BRANCH   4  23
ATOM     21  O   UNL     1      30.689 -10.463 -22.412  0.00  0.00    -0.270 OA
ATOM     22  N   UNL     1      32.756  -9.458 -22.727  0.00  0.00    -0.301 N 
ATOM     23  C   UNL     1      31.886 -10.544 -22.675  0.00  0.00    +0.250 C 
ATOM     24  H   UNL     1      33.702  -9.623 -22.947  0.00  0.00    +0.150 HD
BRANCH  22  25
ATOM     25  C   UNL     1      32.337  -8.112 -22.476  0.00  0.00    +0.090 C 
BRANCH  25  27
ATOM     26  O   UNL     1      32.664  -4.584 -24.852  0.00  0.00    -0.354 OA
ATOM     27  C   UNL     1      32.771  -7.183 -23.605  0.00  0.00    +0.025 C 
ATOM     28  C   UNL     1      31.565  -6.709 -24.425  0.00  0.00    +0.034 C 
ATOM     29  C   UNL     1      33.538  -5.972 -23.061  0.00  0.00    +0.034 C 
ATOM     30  C   UNL     1      31.994  -5.683 -25.468  0.00  0.00    +0.142 C 
ATOM     31  C   UNL     1      33.856  -4.988 -24.180  0.00  0.00    +0.142 C 
ENDBRANCH  25  27
ENDBRANCH  22  25
ENDBRANCH   4  23
TORSDOF 5
ENDMDL
MODEL 7
REMARK VINA RESULT:     -10.5      1.823      2.437
REMARK  Name = 10253143
REMARK  5 active torsions:
REMARK  status: ('A' for Active; 'I' for Inactive)
REMARK    1  A    between atoms: N_3  and  C_11
REMARK    2  A    between atoms: C_4  and  C_23
REMARK    3  A    between atoms: C_5  and  C_20
REMARK    4  A    between atoms: N_22  and  C_25
REMARK    5  A    between atoms: C_25  and  C_27
REMARK                            x       y       z     vdW  Elec       q    Type
REMARK                         _______ _______ _______ _____ _____    ______ ____
ROOT
ATOM      1  N   UNL     1      33.125 -14.232 -22.315  0.00  0.00    -0.333 NA
ATOM      2  N   UNL     1      33.433 -13.663 -24.636  0.00  0.00    -0.170 NA
ATOM      3  N   UNL     1      34.116 -15.748 -23.807  0.00  0.00    -0.246 N 
ATOM      4  C   UNL     1      32.426 -12.113 -23.138  0.00  0.00    +0.108 C 
ATOM      5  C   UNL     1      32.569 -13.017 -22.128  0.00  0.00    +0.221 C 
ATOM      6  C   UNL     1      32.867 -12.465 -24.379  0.00  0.00    +0.119 C 
ATOM      7  C   UNL     1      33.529 -14.486 -23.575  0.00  0.00    +0.149 C 
ATOM      8  H   UNL     1      34.396 -15.890 -24.739  0.00  0.00    +0.165 HD
ENDROOT
BRANCH   3  11
ATOM      9 CL   UNL     1      32.969 -18.427 -24.684  0.00  0.00    -0.081 Cl
ATOM     10 CL   UNL     1      35.276 -20.302 -20.199  0.00  0.00    -0.082 Cl
ATOM     11  C   UNL     1      34.379 -16.846 -22.965  0.00  0.00    +0.068 C 
ATOM     12  C   UNL     1      33.904 -18.126 -23.263  0.00  0.00    +0.072 C 
ATOM     13  C   UNL     1      35.132 -16.641 -21.806  0.00  0.00    +0.017 C 
ATOM     14  C   UNL     1      34.182 -19.193 -22.409  0.00  0.00    +0.024 C 
ATOM     15  C   UNL     1      35.409 -17.709 -20.951  0.00  0.00    +0.013 C 
ATOM     16  C   UNL     1      34.933 -18.985 -21.253  0.00  0.00    +0.059 C 
ENDBRANCH   3  11
BRANCH   5  20
ATOM     17  F   UNL     1      32.776 -11.668 -20.164  0.00  0.00    -0.164 F 
ATOM     18  F   UNL     1      30.792 -12.394 -20.655  0.00  0.00    -0.164 F 
ATOM     19  F   UNL     1      32.292 -13.770 -19.890  0.00  0.00    -0.164 F 
ATOM     20  C   UNL     1      32.116 -12.716 -20.738  0.00  0.00    +0.447 C 
ENDBRANCH   5  20
BRANCH   4  23
ATOM     21  O   UNL     1      30.636 -10.702 -22.585  0.00  0.00    -0.270 OA
ATOM     22  N   UNL     1      32.653  -9.678 -23.101  0.00  0.00    -0.301 N 
ATOM     23  C   UNL     1      31.814 -10.776 -22.922  0.00  0.00    +0.250 C 
ATOM     24  H   UNL     1      33.586  -9.837 -23.373  0.00  0.00    +0.150 HD
BRANCH  22  25
ATOM     25  C   UNL     1      32.217  -8.328 -22.907  0.00  0.00    +0.090 C 
BRANCH  25  27
ATOM     26  O   UNL     1      31.366  -6.619 -19.091  0.00  0.00    -0.354 OA
ATOM     27  C   UNL     1      32.414  -7.892 -21.458  0.00  0.00    +0.025 C 
ATOM     28  C   UNL     1      32.303  -6.369 -21.319  0.00  0.00    +0.034 C 
ATOM     29  C   UNL     1      31.400  -8.574 -20.533  0.00  0.00    +0.034 C 
ATOM     30  C   UNL     1      32.374  -5.956 -19.854  0.00  0.00    +0.142 C 
ATOM     31  C   UNL     1      31.521  -8.038 -19.111  0.00  0.00    +0.142 C 
ENDBRANCH  25  27
ENDBRANCH  22  25
ENDBRANCH   4  23
TORSDOF 5
ENDMDL
MODEL 8
REMARK VINA RESULT:     -10.5      2.690      3.613
REMARK  Name = 10253143
REMARK  5 active torsions:
REMARK  status: ('A' for Active; 'I' for Inactive)
REMARK    1  A    between atoms: N_3  and  C_11
REMARK    2  A    between atoms: C_4  and  C_23
REMARK    3  A    between atoms: C_5  and  C_20
REMARK    4  A    between atoms: N_22  and  C_25
REMARK    5  A    between atoms: C_25  and  C_27
REMARK                            x       y       z     vdW  Elec       q    Type
REMARK                         _______ _______ _______ _____ _____    ______ ____
ROOT
ATOM      1  N   UNL     1      33.004 -13.895 -22.175  0.00  0.00    -0.333 NA
ATOM      2  N   UNL     1      33.468 -13.130 -24.412  0.00  0.00    -0.170 NA
ATOM      3  N   UNL     1      34.076 -15.289 -23.727  0.00  0.00    -0.246 N 
ATOM      4  C   UNL     1      32.379 -11.702 -22.851  0.00  0.00    +0.108 C 
ATOM      5  C   UNL     1      32.448 -12.693 -21.918  0.00  0.00    +0.221 C 
ATOM      6  C   UNL     1      32.898 -11.951 -24.087  0.00  0.00    +0.119 C 
ATOM      7  C   UNL     1      33.486 -14.044 -23.423  0.00  0.00    +0.149 C 
ATOM      8  H   UNL     1      34.416 -15.353 -24.648  0.00  0.00    +0.165 HD
ENDROOT
BRANCH   3  11
ATOM      9 CL   UNL     1      32.931 -17.858 -24.889  0.00  0.00    -0.081 Cl
ATOM     10 CL   UNL     1      34.958 -20.157 -20.467  0.00  0.00    -0.082 Cl
ATOM     11  C   UNL     1      34.274 -16.460 -22.970  0.00  0.00    +0.068 C 
ATOM     12  C   UNL     1      33.793 -17.700 -23.401  0.00  0.00    +0.072 C 
ATOM     13  C   UNL     1      34.967 -16.371 -21.759  0.00  0.00    +0.017 C 
ATOM     14  C   UNL     1      34.005 -18.841 -22.628  0.00  0.00    +0.024 C 
ATOM     15  C   UNL     1      35.178 -17.514 -20.986  0.00  0.00    +0.013 C 
ATOM     16  C   UNL     1      34.697 -18.749 -21.421  0.00  0.00    +0.059 C 
ENDBRANCH   3  11
BRANCH   5  20
ATOM     17  F   UNL     1      31.928 -13.647 -19.786  0.00  0.00    -0.164 F 
ATOM     18  F   UNL     1      32.592 -11.582 -19.806  0.00  0.00    -0.164 F 
ATOM     19  F   UNL     1      30.609 -12.090 -20.537  0.00  0.00    -0.164 F 
ATOM     20  C   UNL     1      31.907 -12.507 -20.539  0.00  0.00    +0.447 C 
ENDBRANCH   5  20
BRANCH   4  23
ATOM     21  O   UNL     1      30.547 -10.296 -22.441  0.00  0.00    -0.270 OA
ATOM     22  N   UNL     1      32.647  -9.311 -22.414  0.00  0.00    -0.301 N 
ATOM     23  C   UNL     1      31.766 -10.381 -22.559  0.00  0.00    +0.250 C 
ATOM     24  H   UNL     1      33.612  -9.476 -22.527  0.00  0.00    +0.150 HD
BRANCH  22  25
ATOM     25  C   UNL     1      32.212  -7.981 -22.106  0.00  0.00    +0.090 C 
BRANCH  25  27
ATOM     26  O   UNL     1      34.136  -4.903 -24.347  0.00  0.00    -0.354 OA
ATOM     27  C   UNL     1      32.517  -7.026 -23.256  0.00  0.00    +0.025 C 
ATOM     28  C   UNL     1      32.372  -5.565 -22.814  0.00  0.00    +0.034 C 
ATOM     29  C   UNL     1      33.925  -7.263 -23.813  0.00  0.00    +0.034 C 
ATOM     30  C   UNL     1      32.802  -4.620 -23.929  0.00  0.00    +0.142 C 
ATOM     31  C   UNL     1      34.267  -6.223 -24.873  0.00  0.00    +0.142 C 
ENDBRANCH  25  27
ENDBRANCH  22  25
ENDBRANCH   4  23
TORSDOF 5
ENDMDL
MODEL 9
REMARK VINA RESULT:     -10.3      1.491      1.975
REMARK  Name = 10253143
REMARK  5 active torsions:
REMARK  status: ('A' for Active; 'I' for Inactive)
REMARK    1  A    between atoms: N_3  and  C_11
REMARK    2  A    between atoms: C_4  and  C_23
REMARK    3  A    between atoms: C_5  and  C_20
REMARK    4  A    between atoms: N_22  and  C_25
REMARK    5  A    between atoms: C_25  and  C_27
REMARK                            x       y       z     vdW  Elec       q    Type
REMARK                         _______ _______ _______ _____ _____    ______ ____
ROOT
ATOM      1  N   UNL     1      34.135 -16.727 -21.314  0.00  0.00    -0.333 NA
ATOM      2  N   UNL     1      34.295 -17.111 -23.687  0.00  0.00    -0.170 NA
ATOM      3  N   UNL     1      34.618 -18.861 -22.159  0.00  0.00    -0.246 N 
ATOM      4  C   UNL     1      33.805 -14.939 -22.848  0.00  0.00    +0.108 C 
ATOM      5  C   UNL     1      33.867 -15.431 -21.579  0.00  0.00    +0.221 C 
ATOM      6  C   UNL     1      34.023 -15.804 -23.880  0.00  0.00    +0.119 C 
ATOM      7  C   UNL     1      34.335 -17.499 -22.398  0.00  0.00    +0.149 C 
ATOM      8  H   UNL     1      34.758 -19.387 -22.979  0.00  0.00    +0.165 HD
ENDROOT
BRANCH   3  11
ATOM      9 CL   UNL     1      32.030 -19.939 -20.976  0.00  0.00    -0.081 Cl
ATOM     10 CL   UNL     1      35.232 -22.020 -17.185  0.00  0.00    -0.082 Cl
ATOM     11  C   UNL     1      34.739 -19.616 -20.977  0.00  0.00    +0.068 C 
ATOM     12  C   UNL     1      33.621 -20.163 -20.340  0.00  0.00    +0.072 C 
ATOM     13  C   UNL     1      36.010 -19.817 -20.432  0.00  0.00    +0.017 C 
ATOM     14  C   UNL     1      33.773 -20.905 -19.170  0.00  0.00    +0.024 C 
ATOM     15  C   UNL     1      36.162 -20.560 -19.260  0.00  0.00    +0.013 C 
ATOM     16  C   UNL     1      35.043 -21.104 -18.630  0.00  0.00    +0.059 C 
ENDBRANCH   3  11
BRANCH   5  20
ATOM     17  F   UNL     1      33.985 -15.147 -19.206  0.00  0.00    -0.164 F 
ATOM     18  F   UNL     1      34.355 -13.393 -20.428  0.00  0.00    -0.164 F 
ATOM     19  F   UNL     1      32.338 -14.186 -20.251  0.00  0.00    -0.164 F 
ATOM     20  C   UNL     1      33.643 -14.557 -20.389  0.00  0.00    +0.447 C 
ENDBRANCH   5  20
BRANCH   4  23
ATOM     21  O   UNL     1      34.442 -12.721 -23.264  0.00  0.00    -0.270 OA
ATOM     22  N   UNL     1      32.166 -13.169 -23.248  0.00  0.00    -0.301 N 
ATOM     23  C   UNL     1      33.511 -13.511 -23.130  0.00  0.00    +0.250 C 
ATOM     24  H   UNL     1      31.488 -13.872 -23.123  0.00  0.00    +0.150 HD
BRANCH  22  25
ATOM     25  C   UNL     1      31.725 -11.838 -23.542  0.00  0.00    +0.090 C 
BRANCH  25  27
ATOM     26  O   UNL     1      30.875  -9.074 -20.406  0.00  0.00    -0.354 OA
ATOM     27  C   UNL     1      31.950 -10.910 -22.353  0.00  0.00    +0.025 C 
ATOM     28  C   UNL     1      31.573  -9.465 -22.699  0.00  0.00    +0.034 C 
ATOM     29  C   UNL     1      31.154 -11.376 -21.128  0.00  0.00    +0.034 C 
ATOM     30  C   UNL     1      31.681  -8.571 -21.470  0.00  0.00    +0.142 C 
ATOM     31  C   UNL     1      31.286 -10.375 -19.987  0.00  0.00    +0.142 C 
ENDBRANCH  25  27
ENDBRANCH  22  25
ENDBRANCH   4  23
TORSDOF 5
ENDMDL
