MODEL 1
REMARK VINA RESULT:     -10.8      0.000      0.000
REMARK  Name = 25113125
REMARK  7 active torsions:
REMARK  status: ('A' for Active; 'I' for Inactive)
REMARK    1  A    between atoms: C_3  and  C_10
REMARK    2  A    between atoms: C_7  and  C_19
REMARK    3  A    between atoms: N_9  and  C_12
REMARK    4  A    between atoms: C_12  and  C_13
REMARK    5  A    between atoms: C_19  and  N_20
REMARK    6  A    between atoms: C_19  and  C_24
REMARK    7  A    between atoms: C_24  and  C_25
REMARK                            x       y       z     vdW  Elec       q    Type
REMARK                         _______ _______ _______ _____ _____    ______ ____
ROOT
ATOM      1  O   UNL     1      35.862 -21.729 -18.315  0.00  0.00    -0.277 OA
ATOM      2  N   UNL     1      34.279 -22.275 -16.718  0.00  0.00    -0.275 N 
ATOM      3  C   UNL     1      33.317 -22.873 -17.634  0.00  0.00    +0.152 C 
ATOM      4  C   UNL     1      32.350 -23.636 -16.737  0.00  0.00    +0.031 C 
ATOM      5  C   UNL     1      32.382 -22.849 -15.429  0.00  0.00    +0.024 C 
ATOM      6  C   UNL     1      33.829 -22.391 -15.333  0.00  0.00    +0.094 C 
ATOM      7  C   UNL     1      35.517 -21.813 -17.135  0.00  0.00    +0.206 C 
ENDROOT
BRANCH   3  10
ATOM      8  O   UNL     1      31.541 -21.321 -18.004  0.00  0.00    -0.273 OA
ATOM      9  N   UNL     1      33.375 -21.297 -19.437  0.00  0.00    -0.299 N 
ATOM     10  C   UNL     1      32.637 -21.747 -18.356  0.00  0.00    +0.241 C 
ATOM     11  H   UNL     1      34.245 -21.720 -19.619  0.00  0.00    +0.150 HD
BRANCH   9  12
ATOM     12  C   UNL     1      32.930 -20.235 -20.310  0.00  0.00    +0.116 C 
BRANCH  12  13
ATOM     13  C   UNL     1      34.081 -19.503 -20.937  0.00  0.00    -0.003 C 
ATOM     14  C   UNL     1      33.914 -18.860 -22.164  0.00  0.00    -0.003 C 
ATOM     15  C   UNL     1      35.317 -19.463 -20.292  0.00  0.00    -0.003 C 
ATOM     16  C   UNL     1      34.982 -18.179 -22.746  0.00  0.00    -0.000 C 
ATOM     17  C   UNL     1      36.386 -18.782 -20.874  0.00  0.00    -0.000 C 
ATOM     18  C   UNL     1      36.219 -18.140 -22.101  0.00  0.00    -0.000 C 
ENDBRANCH  12  13
ENDBRANCH   9  12
ENDBRANCH   3  10
BRANCH   7  19
ATOM     19  C   UNL     1      36.457 -21.390 -16.035  0.00  0.00    +0.018 C 
BRANCH  19  20
ATOM     20  N   UNL     1      37.105 -20.181 -16.526  0.00  0.00    +0.388 N 
ATOM     21  H   UNL     1      36.407 -19.569 -16.949  0.00  0.00    -0.089 HD
ATOM     22  H   UNL     1      37.806 -20.430 -17.224  0.00  0.00    -0.089 HD
ATOM     23  H   UNL     1      37.556 -19.696 -15.750  0.00  0.00    -0.089 HD
ENDBRANCH  19  20
BRANCH  19  24
ATOM     24  C   UNL     1      37.481 -22.483 -15.732  0.00  0.00    +0.013 C 
BRANCH  24  25
ATOM     25  C   UNL     1      37.122 -23.297 -14.511  0.00  0.00    -0.024 C 
ATOM     26  C   UNL     1      36.780 -22.656 -13.320  0.00  0.00    -0.004 C 
ATOM     27  C   UNL     1      37.131 -24.691 -14.573  0.00  0.00    -0.004 C 
ATOM     28  C   UNL     1      36.447 -23.406 -12.193  0.00  0.00    -0.000 C 
ATOM     29  C   UNL     1      36.797 -25.442 -13.446  0.00  0.00    -0.000 C 
ATOM     30  C   UNL     1      36.456 -24.800 -12.256  0.00  0.00    -0.000 C 
ENDBRANCH  24  25
ENDBRANCH  19  24
ENDBRANCH   7  19
TORSDOF 7
ENDMDL
MODEL 2
REMARK VINA RESULT:     -10.7      2.149      7.534
REMARK  Name = 25113125
REMARK  7 active torsions:
REMARK  status: ('A' for Active; 'I' for Inactive)
REMARK    1  A    between atoms: C_3  and  C_10
REMARK    2  A    between atoms: C_7  and  C_19
REMARK    3  A    between atoms: N_9  and  C_12
REMARK    4  A    between atoms: C_12  and  C_13
REMARK    5  A    between atoms: C_19  and  N_20
REMARK    6  A    between atoms: C_19  and  C_24
REMARK    7  A    between atoms: C_24  and  C_25
REMARK                            x       y       z     vdW  Elec       q    Type
REMARK                         _______ _______ _______ _____ _____    ______ ____
ROOT
ATOM      1  O   UNL     1      33.235 -23.343 -17.321  0.00  0.00    -0.277 OA
ATOM      2  N   UNL     1      35.149 -22.199 -16.703  0.00  0.00    -0.275 N 
ATOM      3  C   UNL     1      35.646 -23.197 -15.766  0.00  0.00    +0.152 C 
ATOM      4  C   UNL     1      37.097 -22.806 -15.517  0.00  0.00    +0.031 C 
ATOM      5  C   UNL     1      37.097 -21.293 -15.717  0.00  0.00    +0.024 C 
ATOM      6  C   UNL     1      36.090 -21.090 -16.838  0.00  0.00    +0.094 C 
ATOM      7  C   UNL     1      34.007 -22.394 -17.464  0.00  0.00    +0.206 C 
ENDROOT
BRANCH   3  10
ATOM      8  O   UNL     1      35.191 -22.435 -13.551  0.00  0.00    -0.273 OA
ATOM      9  N   UNL     1      33.639 -23.807 -14.611  0.00  0.00    -0.299 N 
ATOM     10  C   UNL     1      34.817 -23.086 -14.521  0.00  0.00    +0.241 C 
ATOM     11  H   UNL     1      33.448 -24.292 -15.446  0.00  0.00    +0.150 HD
BRANCH   9  12
ATOM     12  C   UNL     1      32.674 -23.882 -13.537  0.00  0.00    +0.116 C 
BRANCH  12  13
ATOM     13  C   UNL     1      31.263 -23.825 -14.044  0.00  0.00    -0.003 C 
ATOM     14  C   UNL     1      30.824 -22.711 -14.761  0.00  0.00    -0.003 C 
ATOM     15  C   UNL     1      30.390 -24.885 -13.800  0.00  0.00    -0.003 C 
ATOM     16  C   UNL     1      29.513 -22.658 -15.234  0.00  0.00    -0.000 C 
ATOM     17  C   UNL     1      29.078 -24.832 -14.272  0.00  0.00    -0.000 C 
ATOM     18  C   UNL     1      28.640 -23.718 -14.988  0.00  0.00    -0.000 C 
ENDBRANCH  12  13
ENDBRANCH   9  12
ENDBRANCH   3  10
BRANCH   7  19
ATOM     19  C   UNL     1      33.734 -21.341 -18.508  0.00  0.00    +0.018 C 
BRANCH  19  20
ATOM     20  N   UNL     1      32.335 -21.516 -18.874  0.00  0.00    +0.388 N 
ATOM     21  H   UNL     1      31.829 -21.935 -18.094  0.00  0.00    -0.089 HD
ATOM     22  H   UNL     1      32.271 -22.127 -19.689  0.00  0.00    -0.089 HD
ATOM     23  H   UNL     1      31.925 -20.608 -19.097  0.00  0.00    -0.089 HD
ENDBRANCH  19  20
BRANCH  19  24
ATOM     24  C   UNL     1      34.650 -21.514 -19.719  0.00  0.00    +0.013 C 
BRANCH  24  25
ATOM     25  C   UNL     1      34.958 -20.206 -20.410  0.00  0.00    -0.024 C 
ATOM     26  C   UNL     1      36.214 -19.617 -20.262  0.00  0.00    -0.004 C 
ATOM     27  C   UNL     1      33.988 -19.588 -21.199  0.00  0.00    -0.004 C 
ATOM     28  C   UNL     1      36.500 -18.412 -20.901  0.00  0.00    -0.000 C 
ATOM     29  C   UNL     1      34.274 -18.382 -21.839  0.00  0.00    -0.000 C 
ATOM     30  C   UNL     1      35.529 -17.793 -21.690  0.00  0.00    -0.000 C 
ENDBRANCH  24  25
ENDBRANCH  19  24
ENDBRANCH   7  19
TORSDOF 7
ENDMDL
MODEL 3
REMARK VINA RESULT:     -10.5      7.697     10.814
REMARK  Name = 25113125
REMARK  7 active torsions:
REMARK  status: ('A' for Active; 'I' for Inactive)
REMARK    1  A    between atoms: C_3  and  C_10
REMARK    2  A    between atoms: C_7  and  C_19
REMARK    3  A    between atoms: N_9  and  C_12
REMARK    4  A    between atoms: C_12  and  C_13
REMARK    5  A    between atoms: C_19  and  N_20
REMARK    6  A    between atoms: C_19  and  C_24
REMARK    7  A    between atoms: C_24  and  C_25
REMARK                            x       y       z     vdW  Elec       q    Type
REMARK                         _______ _______ _______ _____ _____    ______ ____
ROOT
ATOM      1  O   UNL     1      32.702 -14.299 -24.771  0.00  0.00    -0.277 OA
ATOM      2  N   UNL     1      33.165 -13.987 -22.525  0.00  0.00    -0.275 N 
ATOM      3  C   UNL     1      32.107 -13.019 -22.269  0.00  0.00    +0.152 C 
ATOM      4  C   UNL     1      31.999 -12.956 -20.750  0.00  0.00    +0.031 C 
ATOM      5  C   UNL     1      33.412 -13.292 -20.279  0.00  0.00    +0.024 C 
ATOM      6  C   UNL     1      33.884 -14.318 -21.297  0.00  0.00    +0.094 C 
ATOM      7  C   UNL     1      33.327 -14.606 -23.755  0.00  0.00    +0.206 C 
ENDROOT
BRANCH   3  10
ATOM      8  O   UNL     1      33.648 -11.586 -23.396  0.00  0.00    -0.273 OA
ATOM      9  N   UNL     1      31.618 -10.709 -22.670  0.00  0.00    -0.299 N 
ATOM     10  C   UNL     1      32.556 -11.711 -22.850  0.00  0.00    +0.241 C 
ATOM     11  H   UNL     1      30.775 -10.933 -22.215  0.00  0.00    +0.150 HD
BRANCH   9  12
ATOM     12  C   UNL     1      31.818  -9.350 -23.119  0.00  0.00    +0.116 C 
BRANCH  12  13
ATOM     13  C   UNL     1      31.929  -8.389 -21.971  0.00  0.00    -0.003 C 
ATOM     14  C   UNL     1      31.400  -8.727 -20.725  0.00  0.00    -0.003 C 
ATOM     15  C   UNL     1      32.565  -7.160 -22.148  0.00  0.00    -0.003 C 
ATOM     16  C   UNL     1      31.504  -7.835 -19.658  0.00  0.00    -0.000 C 
ATOM     17  C   UNL     1      32.669  -6.268 -21.081  0.00  0.00    -0.000 C 
ATOM     18  C   UNL     1      32.138  -6.606 -19.836  0.00  0.00    -0.000 C 
ENDBRANCH  12  13
ENDBRANCH   9  12
ENDBRANCH   3  10
BRANCH   7  19
ATOM     19  C   UNL     1      34.355 -15.708 -23.797  0.00  0.00    +0.018 C 
BRANCH  19  20
ATOM     20  N   UNL     1      34.941 -15.637 -25.129  0.00  0.00    +0.388 N 
ATOM     21  H   UNL     1      35.284 -14.691 -25.299  0.00  0.00    -0.089 HD
ATOM     22  H   UNL     1      34.234 -15.873 -25.824  0.00  0.00    -0.089 HD
ATOM     23  H   UNL     1      35.717 -16.296 -25.195  0.00  0.00    -0.089 HD
ENDBRANCH  19  20
BRANCH  19  24
ATOM     24  C   UNL     1      33.712 -17.072 -23.546  0.00  0.00    +0.013 C 
BRANCH  24  25
ATOM     25  C   UNL     1      34.444 -17.880 -22.500  0.00  0.00    -0.024 C 
ATOM     26  C   UNL     1      35.734 -17.515 -22.113  0.00  0.00    -0.004 C 
ATOM     27  C   UNL     1      33.831 -18.989 -21.919  0.00  0.00    -0.004 C 
ATOM     28  C   UNL     1      36.410 -18.258 -21.146  0.00  0.00    -0.000 C 
ATOM     29  C   UNL     1      34.506 -19.733 -20.951  0.00  0.00    -0.000 C 
ATOM     30  C   UNL     1      35.796 -19.368 -20.565  0.00  0.00    -0.000 C 
ENDBRANCH  24  25
ENDBRANCH  19  24
ENDBRANCH   7  19
TORSDOF 7
ENDMDL
MODEL 4
REMARK VINA RESULT:     -10.0      1.718      7.489
REMARK  Name = 25113125
REMARK  7 active torsions:
REMARK  status: ('A' for Active; 'I' for Inactive)
REMARK    1  A    between atoms: C_3  and  C_10
REMARK    2  A    between atoms: C_7  and  C_19
REMARK    3  A    between atoms: N_9  and  C_12
REMARK    4  A    between atoms: C_12  and  C_13
REMARK    5  A    between atoms: C_19  and  N_20
REMARK    6  A    between atoms: C_19  and  C_24
REMARK    7  A    between atoms: C_24  and  C_25
REMARK                            x       y       z     vdW  Elec       q    Type
REMARK                         _______ _______ _______ _____ _____    ______ ____
ROOT
ATOM      1  O   UNL     1      35.772 -21.670 -16.865  0.00  0.00    -0.277 OA
ATOM      2  N   UNL     1      33.593 -22.372 -16.527  0.00  0.00    -0.275 N 
ATOM      3  C   UNL     1      33.686 -22.513 -15.080  0.00  0.00    +0.152 C 
ATOM      4  C   UNL     1      32.240 -22.615 -14.607  0.00  0.00    +0.031 C 
ATOM      5  C   UNL     1      31.521 -23.245 -15.797  0.00  0.00    +0.024 C 
ATOM      6  C   UNL     1      32.237 -22.644 -16.996  0.00  0.00    +0.094 C 
ATOM      7  C   UNL     1      34.639 -21.887 -17.297  0.00  0.00    +0.206 C 
ENDROOT
BRANCH   3  10
ATOM      8  O   UNL     1      34.404 -24.737 -15.567  0.00  0.00    -0.273 OA
ATOM      9  N   UNL     1      35.164 -23.707 -13.623  0.00  0.00    -0.299 N 
ATOM     10  C   UNL     1      34.451 -23.774 -14.807  0.00  0.00    +0.241 C 
ATOM     11  H   UNL     1      35.123 -22.876 -13.097  0.00  0.00    +0.150 HD
BRANCH   9  12
ATOM     12  C   UNL     1      35.966 -24.800 -13.120  0.00  0.00    +0.116 C 
BRANCH  12  13
ATOM     13  C   UNL     1      37.369 -24.758 -13.653  0.00  0.00    -0.003 C 
ATOM     14  C   UNL     1      38.333 -25.632 -13.148  0.00  0.00    -0.003 C 
ATOM     15  C   UNL     1      37.709 -23.849 -14.654  0.00  0.00    -0.003 C 
ATOM     16  C   UNL     1      39.636 -25.595 -13.643  0.00  0.00    -0.000 C 
ATOM     17  C   UNL     1      39.012 -23.812 -15.150  0.00  0.00    -0.000 C 
ATOM     18  C   UNL     1      39.976 -24.684 -14.644  0.00  0.00    -0.000 C 
ENDBRANCH  12  13
ENDBRANCH   9  12
ENDBRANCH   3  10
BRANCH   7  19
ATOM     19  C   UNL     1      34.316 -21.639 -18.748  0.00  0.00    +0.018 C 
BRANCH  19  20
ATOM     20  N   UNL     1      33.793 -22.903 -19.248  0.00  0.00    +0.388 N 
ATOM     21  H   UNL     1      32.839 -23.033 -18.913  0.00  0.00    -0.089 HD
ATOM     22  H   UNL     1      34.379 -23.669 -18.914  0.00  0.00    -0.089 HD
ATOM     23  H   UNL     1      33.796 -22.893 -20.269  0.00  0.00    -0.089 HD
ENDBRANCH  19  20
BRANCH  19  24
ATOM     24  C   UNL     1      35.560 -21.207 -19.524  0.00  0.00    +0.013 C 
BRANCH  24  25
ATOM     25  C   UNL     1      35.313 -20.003 -20.403  0.00  0.00    -0.024 C 
ATOM     26  C   UNL     1      36.332 -19.076 -20.620  0.00  0.00    -0.004 C 
ATOM     27  C   UNL     1      34.065 -19.819 -21.000  0.00  0.00    -0.004 C 
ATOM     28  C   UNL     1      36.105 -17.966 -21.432  0.00  0.00    -0.000 C 
ATOM     29  C   UNL     1      33.838 -18.709 -21.813  0.00  0.00    -0.000 C 
ATOM     30  C   UNL     1      34.858 -17.781 -22.028  0.00  0.00    -0.000 C 
ENDBRANCH  24  25
ENDBRANCH  19  24
ENDBRANCH   7  19
TORSDOF 7
ENDMDL
MODEL 5
REMARK VINA RESULT:      -9.9      1.912      2.713
REMARK  Name = 25113125
REMARK  7 active torsions:
REMARK  status: ('A' for Active; 'I' for Inactive)
REMARK    1  A    between atoms: C_3  and  C_10
REMARK    2  A    between atoms: C_7  and  C_19
REMARK    3  A    between atoms: N_9  and  C_12
REMARK    4  A    between atoms: C_12  and  C_13
REMARK    5  A    between atoms: C_19  and  N_20
REMARK    6  A    between atoms: C_19  and  C_24
REMARK    7  A    between atoms: C_24  and  C_25
REMARK                            x       y       z     vdW  Elec       q    Type
REMARK                         _______ _______ _______ _____ _____    ______ ____
ROOT
ATOM      1  O   UNL     1      33.984 -23.291 -16.496  0.00  0.00    -0.277 OA
ATOM      2  N   UNL     1      32.205 -23.073 -15.031  0.00  0.00    -0.275 N 
ATOM      3  C   UNL     1      31.168 -23.496 -15.963  0.00  0.00    +0.152 C 
ATOM      4  C   UNL     1      29.954 -23.780 -15.088  0.00  0.00    +0.031 C 
ATOM      5  C   UNL     1      30.142 -22.838 -13.902  0.00  0.00    +0.024 C 
ATOM      6  C   UNL     1      31.650 -22.824 -13.704  0.00  0.00    +0.094 C 
ATOM      7  C   UNL     1      33.551 -23.076 -15.363  0.00  0.00    +0.206 C 
ENDROOT
BRANCH   3  10
ATOM      8  O   UNL     1      29.912 -21.661 -16.830  0.00  0.00    -0.273 OA
ATOM      9  N   UNL     1      31.942 -22.209 -17.829  0.00  0.00    -0.299 N 
ATOM     10  C   UNL     1      30.924 -22.351 -16.901  0.00  0.00    +0.241 C 
ATOM     11  H   UNL     1      32.707 -22.827 -17.784  0.00  0.00    +0.150 HD
BRANCH   9  12
ATOM     12  C   UNL     1      31.936 -21.194 -18.858  0.00  0.00    +0.116 C 
BRANCH  12  13
ATOM     13  C   UNL     1      33.324 -20.839 -19.305  0.00  0.00    -0.003 C 
ATOM     14  C   UNL     1      33.511 -19.910 -20.329  0.00  0.00    -0.003 C 
ATOM     15  C   UNL     1      34.428 -21.434 -18.694  0.00  0.00    -0.003 C 
ATOM     16  C   UNL     1      34.801 -19.578 -20.743  0.00  0.00    -0.000 C 
ATOM     17  C   UNL     1      35.718 -21.102 -19.108  0.00  0.00    -0.000 C 
ATOM     18  C   UNL     1      35.904 -20.174 -20.133  0.00  0.00    -0.000 C 
ENDBRANCH  12  13
ENDBRANCH   9  12
ENDBRANCH   3  10
BRANCH   7  19
ATOM     19  C   UNL     1      34.500 -22.780 -14.229  0.00  0.00    +0.018 C 
BRANCH  19  20
ATOM     20  N   UNL     1      35.710 -22.272 -14.863  0.00  0.00    +0.388 N 
ATOM     21  H   UNL     1      35.489 -21.426 -15.387  0.00  0.00    -0.089 HD
ATOM     22  H   UNL     1      36.083 -22.978 -15.497  0.00  0.00    -0.089 HD
ATOM     23  H   UNL     1      36.404 -22.056 -14.147  0.00  0.00    -0.089 HD
ENDBRANCH  19  20
BRANCH  19  24
ATOM     24  C   UNL     1      34.789 -24.037 -13.409  0.00  0.00    +0.013 C 
BRANCH  24  25
ATOM     25  C   UNL     1      36.244 -24.444 -13.456  0.00  0.00    -0.024 C 
ATOM     26  C   UNL     1      36.682 -25.358 -14.415  0.00  0.00    -0.004 C 
ATOM     27  C   UNL     1      37.149 -23.905 -12.543  0.00  0.00    -0.004 C 
ATOM     28  C   UNL     1      38.024 -25.733 -14.461  0.00  0.00    -0.000 C 
ATOM     29  C   UNL     1      38.492 -24.279 -12.589  0.00  0.00    -0.000 C 
ATOM     30  C   UNL     1      38.930 -25.194 -13.547  0.00  0.00    -0.000 C 
ENDBRANCH  24  25
ENDBRANCH  19  24
ENDBRANCH   7  19
TORSDOF 7
ENDMDL
MODEL 6
REMARK VINA RESULT:      -9.9      4.742     10.122
REMARK  Name = 25113125
REMARK  7 active torsions:
REMARK  status: ('A' for Active; 'I' for Inactive)
REMARK    1  A    between atoms: C_3  and  C_10
REMARK    2  A    between atoms: C_7  and  C_19
REMARK    3  A    between atoms: N_9  and  C_12
REMARK    4  A    between atoms: C_12  and  C_13
REMARK    5  A    between atoms: C_19  and  N_20
REMARK    6  A    between atoms: C_19  and  C_24
REMARK    7  A    between atoms: C_24  and  C_25
REMARK                            x       y       z     vdW  Elec       q    Type
REMARK                         _______ _______ _______ _____ _____    ______ ____
ROOT
ATOM      1  O   UNL     1      34.042 -15.730 -20.013  0.00  0.00    -0.277 OA
ATOM      2  N   UNL     1      34.225 -16.691 -22.110  0.00  0.00    -0.275 N 
ATOM      3  C   UNL     1      33.996 -18.066 -21.684  0.00  0.00    +0.152 C 
ATOM      4  C   UNL     1      33.707 -18.827 -22.972  0.00  0.00    +0.031 C 
ATOM      5  C   UNL     1      34.487 -18.048 -24.028  0.00  0.00    +0.024 C 
ATOM      6  C   UNL     1      34.360 -16.606 -23.562  0.00  0.00    +0.094 C 
ATOM      7  C   UNL     1      34.156 -15.619 -21.235  0.00  0.00    +0.206 C 
ENDROOT
BRANCH   3  10
ATOM      8  O   UNL     1      36.320 -17.938 -21.155  0.00  0.00    -0.273 OA
ATOM      9  N   UNL     1      35.068 -19.710 -20.312  0.00  0.00    -0.299 N 
ATOM     10  C   UNL     1      35.258 -18.540 -21.027  0.00  0.00    +0.241 C 
ATOM     11  H   UNL     1      34.165 -20.100 -20.283  0.00  0.00    +0.150 HD
BRANCH   9  12
ATOM     12  C   UNL     1      36.132 -20.386 -19.605  0.00  0.00    +0.116 C 
BRANCH  12  13
ATOM     13  C   UNL     1      35.623 -21.146 -18.416  0.00  0.00    -0.003 C 
ATOM     14  C   UNL     1      34.338 -21.690 -18.434  0.00  0.00    -0.003 C 
ATOM     15  C   UNL     1      36.434 -21.312 -17.293  0.00  0.00    -0.003 C 
ATOM     16  C   UNL     1      33.864 -22.398 -17.329  0.00  0.00    -0.000 C 
ATOM     17  C   UNL     1      35.960 -22.020 -16.188  0.00  0.00    -0.000 C 
ATOM     18  C   UNL     1      34.676 -22.562 -16.206  0.00  0.00    -0.000 C 
ENDBRANCH  12  13
ENDBRANCH   9  12
ENDBRANCH   3  10
BRANCH   7  19
ATOM     19  C   UNL     1      34.243 -14.255 -21.871  0.00  0.00    +0.018 C 
BRANCH  19  20
ATOM     20  N   UNL     1      34.327 -13.317 -20.760  0.00  0.00    +0.388 N 
ATOM     21  H   UNL     1      34.855 -13.740 -19.997  0.00  0.00    -0.089 HD
ATOM     22  H   UNL     1      33.387 -13.087 -20.437  0.00  0.00    -0.089 HD
ATOM     23  H   UNL     1      34.799 -12.466 -21.068  0.00  0.00    -0.089 HD
ENDBRANCH  19  20
BRANCH  19  24
ATOM     24  C   UNL     1      33.019 -13.974 -22.743  0.00  0.00    +0.013 C 
BRANCH  24  25
ATOM     25  C   UNL     1      32.465 -12.582 -22.541  0.00  0.00    -0.024 C 
ATOM     26  C   UNL     1      31.538 -12.340 -21.527  0.00  0.00    -0.004 C 
ATOM     27  C   UNL     1      32.881 -11.539 -23.368  0.00  0.00    -0.004 C 
ATOM     28  C   UNL     1      31.028 -11.056 -21.339  0.00  0.00    -0.000 C 
ATOM     29  C   UNL     1      32.371 -10.254 -23.180  0.00  0.00    -0.000 C 
ATOM     30  C   UNL     1      31.444 -10.013 -22.166  0.00  0.00    -0.000 C 
ENDBRANCH  24  25
ENDBRANCH  19  24
ENDBRANCH   7  19
TORSDOF 7
ENDMDL
MODEL 7
REMARK VINA RESULT:      -9.8      9.036     12.338
REMARK  Name = 25113125
REMARK  7 active torsions:
REMARK  status: ('A' for Active; 'I' for Inactive)
REMARK    1  A    between atoms: C_3  and  C_10
REMARK    2  A    between atoms: C_7  and  C_19
REMARK    3  A    between atoms: N_9  and  C_12
REMARK    4  A    between atoms: C_12  and  C_13
REMARK    5  A    between atoms: C_19  and  N_20
REMARK    6  A    between atoms: C_19  and  C_24
REMARK    7  A    between atoms: C_24  and  C_25
REMARK                            x       y       z     vdW  Elec       q    Type
REMARK                         _______ _______ _______ _____ _____    ______ ____
ROOT
ATOM      1  O   UNL     1      33.097 -12.586 -24.104  0.00  0.00    -0.277 OA
ATOM      2  N   UNL     1      32.164 -11.886 -22.105  0.00  0.00    -0.275 N 
ATOM      3  C   UNL     1      31.475 -10.720 -22.642  0.00  0.00    +0.152 C 
ATOM      4  C   UNL     1      30.490 -10.317 -21.552  0.00  0.00    +0.031 C 
ATOM      5  C   UNL     1      31.172 -10.780 -20.267  0.00  0.00    +0.024 C 
ATOM      6  C   UNL     1      31.869 -12.065 -20.686  0.00  0.00    +0.094 C 
ATOM      7  C   UNL     1      32.867 -12.771 -22.908  0.00  0.00    +0.206 C 
ENDROOT
BRANCH   3  10
ATOM      8  O   UNL     1      33.628  -9.934 -23.309  0.00  0.00    -0.273 OA
ATOM      9  N   UNL     1      32.064  -8.402 -22.520  0.00  0.00    -0.299 N 
ATOM     10  C   UNL     1      32.513  -9.662 -22.874  0.00  0.00    +0.241 C 
ATOM     11  H   UNL     1      31.144  -8.310 -22.181  0.00  0.00    +0.150 HD
BRANCH   9  12
ATOM     12  C   UNL     1      32.880  -7.213 -22.625  0.00  0.00    +0.116 C 
BRANCH  12  13
ATOM     13  C   UNL     1      32.897  -6.665 -24.023  0.00  0.00    -0.003 C 
ATOM     14  C   UNL     1      31.699  -6.469 -24.710  0.00  0.00    -0.003 C 
ATOM     15  C   UNL     1      34.111  -6.351 -24.634  0.00  0.00    -0.003 C 
ATOM     16  C   UNL     1      31.715  -5.958 -26.008  0.00  0.00    -0.000 C 
ATOM     17  C   UNL     1      34.127  -5.840 -25.932  0.00  0.00    -0.000 C 
ATOM     18  C   UNL     1      32.929  -5.645 -26.619  0.00  0.00    -0.000 C 
ENDBRANCH  12  13
ENDBRANCH   9  12
ENDBRANCH   3  10
BRANCH   7  19
ATOM     19  C   UNL     1      33.368 -14.015 -22.219  0.00  0.00    +0.018 C 
BRANCH  19  20
ATOM     20  N   UNL     1      34.018 -13.546 -21.003  0.00  0.00    +0.388 N 
ATOM     21  H   UNL     1      33.324 -13.123 -20.387  0.00  0.00    -0.089 HD
ATOM     22  H   UNL     1      34.728 -12.854 -21.242  0.00  0.00    -0.089 HD
ATOM     23  H   UNL     1      34.458 -14.334 -20.527  0.00  0.00    -0.089 HD
ENDBRANCH  19  20
BRANCH  19  24
ATOM     24  C   UNL     1      34.345 -14.783 -23.109  0.00  0.00    +0.013 C 
BRANCH  24  25
ATOM     25  C   UNL     1      34.351 -16.267 -22.826  0.00  0.00    -0.024 C 
ATOM     26  C   UNL     1      33.898 -17.164 -23.794  0.00  0.00    -0.004 C 
ATOM     27  C   UNL     1      34.811 -16.742 -21.597  0.00  0.00    -0.004 C 
ATOM     28  C   UNL     1      33.904 -18.534 -23.534  0.00  0.00    -0.000 C 
ATOM     29  C   UNL     1      34.818 -18.112 -21.337  0.00  0.00    -0.000 C 
ATOM     30  C   UNL     1      34.364 -19.008 -22.305  0.00  0.00    -0.000 C 
ENDBRANCH  24  25
ENDBRANCH  19  24
ENDBRANCH   7  19
TORSDOF 7
ENDMDL
MODEL 8
REMARK VINA RESULT:      -9.8      8.876     13.402
REMARK  Name = 25113125
REMARK  7 active torsions:
REMARK  status: ('A' for Active; 'I' for Inactive)
REMARK    1  A    between atoms: C_3  and  C_10
REMARK    2  A    between atoms: C_7  and  C_19
REMARK    3  A    between atoms: N_9  and  C_12
REMARK    4  A    between atoms: C_12  and  C_13
REMARK    5  A    between atoms: C_19  and  N_20
REMARK    6  A    between atoms: C_19  and  C_24
REMARK    7  A    between atoms: C_24  and  C_25
REMARK                            x       y       z     vdW  Elec       q    Type
REMARK                         _______ _______ _______ _____ _____    ______ ____
ROOT
ATOM      1  O   UNL     1      33.095 -10.225 -23.614  0.00  0.00    -0.277 OA
ATOM      2  N   UNL     1      32.383 -11.589 -21.885  0.00  0.00    -0.275 N 
ATOM      3  C   UNL     1      33.488 -12.535 -21.952  0.00  0.00    +0.152 C 
ATOM      4  C   UNL     1      33.408 -13.317 -20.647  0.00  0.00    +0.031 C 
ATOM      5  C   UNL     1      31.921 -13.282 -20.302  0.00  0.00    +0.024 C 
ATOM      6  C   UNL     1      31.485 -11.905 -20.777  0.00  0.00    +0.094 C 
ATOM      7  C   UNL     1      32.319 -10.459 -22.686  0.00  0.00    +0.206 C 
ENDROOT
BRANCH   3  10
ATOM      8  O   UNL     1      32.310 -13.215 -23.914  0.00  0.00    -0.273 OA
ATOM      9  N   UNL     1      34.166 -14.443 -23.231  0.00  0.00    -0.299 N 
ATOM     10  C   UNL     1      33.245 -13.413 -23.144  0.00  0.00    +0.241 C 
ATOM     11  H   UNL     1      34.874 -14.498 -22.550  0.00  0.00    +0.150 HD
BRANCH   9  12
ATOM     12  C   UNL     1      34.138 -15.442 -24.276  0.00  0.00    +0.116 C 
BRANCH  12  13
ATOM     13  C   UNL     1      34.234 -16.834 -23.726  0.00  0.00    -0.003 C 
ATOM     14  C   UNL     1      34.892 -17.062 -22.517  0.00  0.00    -0.003 C 
ATOM     15  C   UNL     1      33.664 -17.901 -24.421  0.00  0.00    -0.003 C 
ATOM     16  C   UNL     1      34.981 -18.357 -22.004  0.00  0.00    -0.000 C 
ATOM     17  C   UNL     1      33.753 -19.195 -23.908  0.00  0.00    -0.000 C 
ATOM     18  C   UNL     1      34.412 -19.423 -22.700  0.00  0.00    -0.000 C 
ENDBRANCH  12  13
ENDBRANCH   9  12
ENDBRANCH   3  10
BRANCH   7  19
ATOM     19  C   UNL     1      31.203  -9.497 -22.366  0.00  0.00    +0.018 C 
BRANCH  19  20
ATOM     20  N   UNL     1      30.925  -8.801 -23.615  0.00  0.00    +0.388 N 
ATOM     21  H   UNL     1      31.653  -9.019 -24.295  0.00  0.00    -0.089 HD
ATOM     22  H   UNL     1      30.907  -7.795 -23.446  0.00  0.00    -0.089 HD
ATOM     23  H   UNL     1      30.020  -9.101 -23.978  0.00  0.00    -0.089 HD
ENDBRANCH  19  20
BRANCH  19  24
ATOM     24  C   UNL     1      31.617  -8.520 -21.266  0.00  0.00    +0.013 C 
BRANCH  24  25
ATOM     25  C   UNL     1      31.885  -7.129 -21.791  0.00  0.00    -0.024 C 
ATOM     26  C   UNL     1      33.121  -6.825 -22.362  0.00  0.00    -0.004 C 
ATOM     27  C   UNL     1      30.897  -6.148 -21.706  0.00  0.00    -0.004 C 
ATOM     28  C   UNL     1      33.369  -5.542 -22.848  0.00  0.00    -0.000 C 
ATOM     29  C   UNL     1      31.145  -4.864 -22.193  0.00  0.00    -0.000 C 
ATOM     30  C   UNL     1      32.381  -4.561 -22.764  0.00  0.00    -0.000 C 
ENDBRANCH  24  25
ENDBRANCH  19  24
ENDBRANCH   7  19
TORSDOF 7
ENDMDL
MODEL 9
REMARK VINA RESULT:      -9.8      9.510     12.675
REMARK  Name = 25113125
REMARK  7 active torsions:
REMARK  status: ('A' for Active; 'I' for Inactive)
REMARK    1  A    between atoms: C_3  and  C_10
REMARK    2  A    between atoms: C_7  and  C_19
REMARK    3  A    between atoms: N_9  and  C_12
REMARK    4  A    between atoms: C_12  and  C_13
REMARK    5  A    between atoms: C_19  and  N_20
REMARK    6  A    between atoms: C_19  and  C_24
REMARK    7  A    between atoms: C_24  and  C_25
REMARK                            x       y       z     vdW  Elec       q    Type
REMARK                         _______ _______ _______ _____ _____    ______ ____
ROOT
ATOM      1  O   UNL     1      33.000 -12.627 -24.136  0.00  0.00    -0.277 OA
ATOM      2  N   UNL     1      32.143 -11.893 -22.115  0.00  0.00    -0.275 N 
ATOM      3  C   UNL     1      31.422 -10.744 -22.647  0.00  0.00    +0.152 C 
ATOM      4  C   UNL     1      30.478 -10.326 -21.527  0.00  0.00    +0.031 C 
ATOM      5  C   UNL     1      31.215 -10.757 -20.261  0.00  0.00    +0.024 C 
ATOM      6  C   UNL     1      31.907 -12.044 -20.682  0.00  0.00    +0.094 C 
ATOM      7  C   UNL     1      32.820 -12.789 -22.928  0.00  0.00    +0.206 C 
ENDROOT
BRANCH   3  10
ATOM      8  O   UNL     1      33.576  -9.961 -23.313  0.00  0.00    -0.273 OA
ATOM      9  N   UNL     1      31.946  -8.408 -22.725  0.00  0.00    -0.299 N 
ATOM     10  C   UNL     1      32.440  -9.683 -22.943  0.00  0.00    +0.241 C 
ATOM     11  H   UNL     1      31.012  -8.312 -22.427  0.00  0.00    +0.150 HD
BRANCH   9  12
ATOM     12  C   UNL     1      32.734  -7.212 -22.915  0.00  0.00    +0.116 C 
BRANCH  12  13
ATOM     13  C   UNL     1      31.930  -5.966 -22.683  0.00  0.00    -0.003 C 
ATOM     14  C   UNL     1      30.777  -6.016 -21.899  0.00  0.00    -0.003 C 
ATOM     15  C   UNL     1      32.337  -4.757 -23.249  0.00  0.00    -0.003 C 
ATOM     16  C   UNL     1      30.030  -4.858 -21.682  0.00  0.00    -0.000 C 
ATOM     17  C   UNL     1      31.590  -3.599 -23.032  0.00  0.00    -0.000 C 
ATOM     18  C   UNL     1      30.437  -3.650 -22.249  0.00  0.00    -0.000 C 
ENDBRANCH  12  13
ENDBRANCH   9  12
ENDBRANCH   3  10
BRANCH   7  19
ATOM     19  C   UNL     1      33.360 -14.014 -22.235  0.00  0.00    +0.018 C 
BRANCH  19  20
ATOM     20  N   UNL     1      34.049 -13.515 -21.053  0.00  0.00    +0.388 N 
ATOM     21  H   UNL     1      33.545 -12.712 -20.679  0.00  0.00    -0.089 HD
ATOM     22  H   UNL     1      34.997 -13.235 -21.305  0.00  0.00    -0.089 HD
ATOM     23  H   UNL     1      34.089 -14.251 -20.346  0.00  0.00    -0.089 HD
ENDBRANCH  19  20
BRANCH  19  24
ATOM     24  C   UNL     1      34.311 -14.789 -23.147  0.00  0.00    +0.013 C 
BRANCH  24  25
ATOM     25  C   UNL     1      34.337 -16.269 -22.841  0.00  0.00    -0.024 C 
ATOM     26  C   UNL     1      33.911 -17.187 -23.801  0.00  0.00    -0.004 C 
ATOM     27  C   UNL     1      34.789 -16.718 -21.600  0.00  0.00    -0.004 C 
ATOM     28  C   UNL     1      33.936 -18.553 -23.521  0.00  0.00    -0.000 C 
ATOM     29  C   UNL     1      34.815 -18.084 -21.320  0.00  0.00    -0.000 C 
ATOM     30  C   UNL     1      34.388 -19.002 -22.280  0.00  0.00    -0.000 C 
ENDBRANCH  24  25
ENDBRANCH  19  24
ENDBRANCH   7  19
TORSDOF 7
ENDMDL
