MODEL 1
REMARK VINA RESULT:     -11.4      0.000      0.000
REMARK  Name = 44511587
REMARK  4 active torsions:
REMARK  status: ('A' for Active; 'I' for Inactive)
REMARK    1  A    between atoms: C_3  and  N_11
REMARK    2  A    between atoms: C_4  and  C_22
REMARK    3  A    between atoms: C_12  and  C_16
REMARK    4  A    between atoms: C_22  and  C_24
REMARK                            x       y       z     vdW  Elec       q    Type
REMARK                         _______ _______ _______ _____ _____    ______ ____
ROOT
ATOM      1  N   UNL     1      35.181 -24.987 -13.346  0.00  0.00    +0.390 N 
ATOM      2  C   UNL     1      36.927 -23.204 -14.088  0.00  0.00    +0.012 C 
ATOM      3  C   UNL     1      35.489 -22.650 -14.189  0.00  0.00    +0.053 C 
ATOM      4  C   UNL     1      34.488 -23.809 -13.940  0.00  0.00    -0.035 C 
ATOM      5  C   UNL     1      37.039 -24.484 -14.936  0.00  0.00    -0.021 C 
ATOM      6  C   UNL     1      37.141 -23.610 -12.621  0.00  0.00    -0.021 C 
ATOM      7  C   UNL     1      36.077 -25.551 -14.385  0.00  0.00    -0.077 C 
ATOM      8  C   UNL     1      36.023 -24.578 -12.197  0.00  0.00    -0.077 C 
ATOM      9  H   UNL     1      34.485 -25.661 -13.027  0.00  0.00    -0.080 HD
ENDROOT
BRANCH   3  11
ATOM     10  O   UNL     1      34.066 -23.757 -16.423  0.00  0.00    -0.270 OA
ATOM     11  N   UNL     1      35.249 -22.010 -15.460  0.00  0.00    -0.304 N 
ATOM     12  C   UNL     1      34.548 -22.629 -16.484  0.00  0.00    +0.246 C 
ATOM     13  H   UNL     1      35.598 -21.101 -15.605  0.00  0.00    +0.150 HD
BRANCH  12  16
ATOM     14  F   UNL     1      36.494 -20.024 -20.100  0.00  0.00    -0.204 F 
ATOM     15  F   UNL     1      31.816 -20.758 -20.045  0.00  0.00    -0.204 F 
ATOM     16  C   UNL     1      34.410 -21.847 -17.740  0.00  0.00    +0.058 C 
ATOM     17  C   UNL     1      33.153 -21.666 -18.315  0.00  0.00    +0.034 C 
ATOM     18  C   UNL     1      35.539 -21.292 -18.343  0.00  0.00    +0.034 C 
ATOM     19  C   UNL     1      35.410 -20.557 -19.521  0.00  0.00    +0.143 C 
ATOM     20  C   UNL     1      33.024 -20.930 -19.492  0.00  0.00    +0.143 C 
ATOM     21  C   UNL     1      34.152 -20.376 -20.096  0.00  0.00    +0.059 C 
ENDBRANCH  12  16
ENDBRANCH   3  11
BRANCH   4  22
ATOM     22  C   UNL     1      33.302 -23.358 -13.083  0.00  0.00    +0.009 C 
BRANCH  22  24
ATOM     23  N   UNL     1      30.085 -24.978 -14.237  0.00  0.00    -0.243 NA
ATOM     24  C   UNL     1      31.997 -23.565 -13.797  0.00  0.00    -0.005 C 
ATOM     25  C   UNL     1      31.488 -22.597 -14.656  0.00  0.00    -0.001 C 
ATOM     26  C   UNL     1      31.264 -24.729 -13.624  0.00  0.00    +0.095 C 
ATOM     27  C   UNL     1      30.278 -22.818 -15.304  0.00  0.00    +0.020 C 
ATOM     28  C   UNL     1      29.622 -24.014 -15.063  0.00  0.00    +0.099 C 
ENDBRANCH  22  24
ENDBRANCH   4  22
TORSDOF 4
ENDMDL
MODEL 2
REMARK VINA RESULT:     -11.3      1.538      4.631
REMARK  Name = 44511587
REMARK  4 active torsions:
REMARK  status: ('A' for Active; 'I' for Inactive)
REMARK    1  A    between atoms: C_3  and  N_11
REMARK    2  A    between atoms: C_4  and  C_22
REMARK    3  A    between atoms: C_12  and  C_16
REMARK    4  A    between atoms: C_22  and  C_24
REMARK                            x       y       z     vdW  Elec       q    Type
REMARK                         _______ _______ _______ _____ _____    ______ ____
ROOT
ATOM      1  N   UNL     1      31.801 -23.441 -13.148  0.00  0.00    +0.390 N 
ATOM      2  C   UNL     1      30.457 -23.443 -15.377  0.00  0.00    +0.012 C 
ATOM      3  C   UNL     1      31.976 -23.524 -15.643  0.00  0.00    +0.053 C 
ATOM      4  C   UNL     1      32.730 -23.309 -14.305  0.00  0.00    -0.035 C 
ATOM      5  C   UNL     1      30.155 -22.185 -14.542  0.00  0.00    -0.021 C 
ATOM      6  C   UNL     1      30.095 -24.661 -14.513  0.00  0.00    -0.021 C 
ATOM      7  C   UNL     1      30.872 -22.286 -13.185  0.00  0.00    -0.077 C 
ATOM      8  C   UNL     1      30.990 -24.676 -13.263  0.00  0.00    -0.077 C 
ATOM      9  H   UNL     1      32.342 -23.476 -12.284  0.00  0.00    -0.080 HD
ENDROOT
BRANCH   3  11
ATOM     10  O   UNL     1      33.137 -24.127 -18.199  0.00  0.00    -0.270 OA
ATOM     11  N   UNL     1      32.396 -22.573 -16.645  0.00  0.00    -0.304 N 
ATOM     12  C   UNL     1      32.949 -22.963 -17.855  0.00  0.00    +0.246 C 
ATOM     13  H   UNL     1      32.286 -21.612 -16.460  0.00  0.00    +0.150 HD
BRANCH  12  16
ATOM     14  F   UNL     1      31.848 -19.510 -21.098  0.00  0.00    -0.204 F 
ATOM     15  F   UNL     1      36.369 -20.125 -19.830  0.00  0.00    -0.204 F 
ATOM     16  C   UNL     1      33.355 -21.861 -18.767  0.00  0.00    +0.058 C 
ATOM     17  C   UNL     1      34.698 -21.503 -18.873  0.00  0.00    +0.034 C 
ATOM     18  C   UNL     1      32.392 -21.189 -19.519  0.00  0.00    +0.034 C 
ATOM     19  C   UNL     1      32.773 -20.156 -20.375  0.00  0.00    +0.143 C 
ATOM     20  C   UNL     1      35.079 -20.471 -19.729  0.00  0.00    +0.143 C 
ATOM     21  C   UNL     1      34.116 -19.797 -20.481  0.00  0.00    +0.059 C 
ENDBRANCH  12  16
ENDBRANCH   3  11
BRANCH   4  22
ATOM     22  C   UNL     1      33.933 -24.249 -14.176  0.00  0.00    +0.009 C 
BRANCH  22  24
ATOM     23  N   UNL     1      37.580 -23.735 -15.035  0.00  0.00    -0.243 NA
ATOM     24  C   UNL     1      35.197 -23.592 -14.652  0.00  0.00    -0.005 C 
ATOM     25  C   UNL     1      35.191 -22.287 -15.131  0.00  0.00    -0.001 C 
ATOM     26  C   UNL     1      36.407 -24.267 -14.623  0.00  0.00    +0.095 C 
ATOM     27  C   UNL     1      36.377 -21.705 -15.563  0.00  0.00    +0.020 C 
ATOM     28  C   UNL     1      37.534 -22.465 -15.495  0.00  0.00    +0.099 C 
ENDBRANCH  22  24
ENDBRANCH   4  22
TORSDOF 4
ENDMDL
MODEL 3
REMARK VINA RESULT:     -11.3      1.538      4.366
REMARK  Name = 44511587
REMARK  4 active torsions:
REMARK  status: ('A' for Active; 'I' for Inactive)
REMARK    1  A    between atoms: C_3  and  N_11
REMARK    2  A    between atoms: C_4  and  C_22
REMARK    3  A    between atoms: C_12  and  C_16
REMARK    4  A    between atoms: C_22  and  C_24
REMARK                            x       y       z     vdW  Elec       q    Type
REMARK                         _______ _______ _______ _____ _____    ______ ____
ROOT
ATOM      1  N   UNL     1      31.751 -23.429 -13.163  0.00  0.00    +0.390 N 
ATOM      2  C   UNL     1      30.439 -23.449 -15.411  0.00  0.00    +0.012 C 
ATOM      3  C   UNL     1      31.962 -23.518 -15.655  0.00  0.00    +0.053 C 
ATOM      4  C   UNL     1      32.695 -23.293 -14.307  0.00  0.00    -0.035 C 
ATOM      5  C   UNL     1      30.114 -22.191 -14.584  0.00  0.00    -0.021 C 
ATOM      6  C   UNL     1      30.074 -24.667 -14.549  0.00  0.00    -0.021 C 
ATOM      7  C   UNL     1      30.813 -22.282 -13.217  0.00  0.00    -0.077 C 
ATOM      8  C   UNL     1      30.952 -24.671 -13.285  0.00  0.00    -0.077 C 
ATOM      9  H   UNL     1      32.280 -23.456 -12.291  0.00  0.00    -0.080 HD
ENDROOT
BRANCH   3  11
ATOM     10  O   UNL     1      33.145 -24.119 -18.202  0.00  0.00    -0.270 OA
ATOM     11  N   UNL     1      32.388 -22.567 -16.654  0.00  0.00    -0.304 N 
ATOM     12  C   UNL     1      32.952 -22.956 -17.859  0.00  0.00    +0.246 C 
ATOM     13  H   UNL     1      32.274 -21.606 -16.471  0.00  0.00    +0.150 HD
BRANCH  12  16
ATOM     14  F   UNL     1      36.378 -20.088 -19.781  0.00  0.00    -0.204 F 
ATOM     15  F   UNL     1      31.873 -19.520 -21.127  0.00  0.00    -0.204 F 
ATOM     16  C   UNL     1      33.363 -21.854 -18.768  0.00  0.00    +0.058 C 
ATOM     17  C   UNL     1      32.407 -21.191 -19.537  0.00  0.00    +0.034 C 
ATOM     18  C   UNL     1      34.704 -21.481 -18.850  0.00  0.00    +0.034 C 
ATOM     19  C   UNL     1      35.090 -20.446 -19.702  0.00  0.00    +0.143 C 
ATOM     20  C   UNL     1      32.791 -20.155 -20.388  0.00  0.00    +0.143 C 
ATOM     21  C   UNL     1      34.133 -19.783 -20.471  0.00  0.00    +0.059 C 
ENDBRANCH  12  16
ENDBRANCH   3  11
BRANCH   4  22
ATOM     22  C   UNL     1      33.904 -24.221 -14.158  0.00  0.00    +0.009 C 
BRANCH  22  24
ATOM     23  N   UNL     1      37.539 -23.720 -15.074  0.00  0.00    -0.243 NA
ATOM     24  C   UNL     1      35.164 -23.566 -14.647  0.00  0.00    -0.005 C 
ATOM     25  C   UNL     1      35.159 -22.254 -15.106  0.00  0.00    -0.001 C 
ATOM     26  C   UNL     1      36.370 -24.250 -14.650  0.00  0.00    +0.095 C 
ATOM     27  C   UNL     1      36.341 -21.674 -15.549  0.00  0.00    +0.020 C 
ATOM     28  C   UNL     1      37.494 -22.442 -15.514  0.00  0.00    +0.099 C 
ENDBRANCH  22  24
ENDBRANCH   4  22
TORSDOF 4
ENDMDL
MODEL 4
REMARK VINA RESULT:      -9.4      2.665      6.055
REMARK  Name = 44511587
REMARK  4 active torsions:
REMARK  status: ('A' for Active; 'I' for Inactive)
REMARK    1  A    between atoms: C_3  and  N_11
REMARK    2  A    between atoms: C_4  and  C_22
REMARK    3  A    between atoms: C_12  and  C_16
REMARK    4  A    between atoms: C_22  and  C_24
REMARK                            x       y       z     vdW  Elec       q    Type
REMARK                         _______ _______ _______ _____ _____    ______ ____
ROOT
ATOM      1  N   UNL     1      29.766 -23.762 -15.749  0.00  0.00    +0.390 N 
ATOM      2  C   UNL     1      31.065 -23.485 -13.511  0.00  0.00    +0.012 C 
ATOM      3  C   UNL     1      31.802 -22.784 -14.673  0.00  0.00    +0.053 C 
ATOM      4  C   UNL     1      31.102 -23.156 -16.005  0.00  0.00    -0.035 C 
ATOM      5  C   UNL     1      30.863 -24.971 -13.860  0.00  0.00    -0.021 C 
ATOM      6  C   UNL     1      29.671 -22.844 -13.422  0.00  0.00    -0.021 C 
ATOM      7  C   UNL     1      29.987 -25.086 -15.120  0.00  0.00    -0.077 C 
ATOM      8  C   UNL     1      28.987 -22.935 -14.797  0.00  0.00    -0.077 C 
ATOM      9  H   UNL     1      29.253 -23.832 -16.628  0.00  0.00    -0.080 HD
ENDROOT
BRANCH   3  11
ATOM     10  O   UNL     1      33.499 -23.246 -12.403  0.00  0.00    -0.270 OA
ATOM     11  N   UNL     1      33.205 -23.125 -14.700  0.00  0.00    -0.304 N 
ATOM     12  C   UNL     1      33.943 -23.329 -13.545  0.00  0.00    +0.246 C 
ATOM     13  H   UNL     1      33.653 -23.215 -15.572  0.00  0.00    +0.150 HD
BRANCH  12  16
ATOM     14  F   UNL     1      37.952 -25.804 -12.336  0.00  0.00    -0.204 F 
ATOM     15  F   UNL     1      38.157 -22.670 -15.880  0.00  0.00    -0.204 F 
ATOM     16  C   UNL     1      35.381 -23.648 -13.743  0.00  0.00    +0.058 C 
ATOM     17  C   UNL     1      36.109 -22.997 -14.738  0.00  0.00    +0.034 C 
ATOM     18  C   UNL     1      36.004 -24.596 -12.931  0.00  0.00    +0.034 C 
ATOM     19  C   UNL     1      37.354 -24.894 -13.116  0.00  0.00    +0.143 C 
ATOM     20  C   UNL     1      37.459 -23.294 -14.923  0.00  0.00    +0.143 C 
ATOM     21  C   UNL     1      38.081 -24.242 -14.111  0.00  0.00    +0.059 C 
ENDBRANCH  12  16
ENDBRANCH   3  11
BRANCH   4  22
ATOM     22  C   UNL     1      31.007 -21.953 -16.949  0.00  0.00    +0.009 C 
BRANCH  22  24
ATOM     23  N   UNL     1      34.559 -22.397 -18.168  0.00  0.00    -0.243 NA
ATOM     24  C   UNL     1      32.244 -21.814 -17.790  0.00  0.00    -0.005 C 
ATOM     25  C   UNL     1      32.253 -21.011 -18.925  0.00  0.00    -0.001 C 
ATOM     26  C   UNL     1      33.413 -22.480 -17.456  0.00  0.00    +0.095 C 
ATOM     27  C   UNL     1      33.413 -20.900 -19.682  0.00  0.00    +0.020 C 
ATOM     28  C   UNL     1      34.530 -21.608 -19.265  0.00  0.00    +0.099 C 
ENDBRANCH  22  24
ENDBRANCH   4  22
TORSDOF 4
ENDMDL
MODEL 5
REMARK VINA RESULT:      -9.1     13.756     17.511
REMARK  Name = 44511587
REMARK  4 active torsions:
REMARK  status: ('A' for Active; 'I' for Inactive)
REMARK    1  A    between atoms: C_3  and  N_11
REMARK    2  A    between atoms: C_4  and  C_22
REMARK    3  A    between atoms: C_12  and  C_16
REMARK    4  A    between atoms: C_22  and  C_24
REMARK                            x       y       z     vdW  Elec       q    Type
REMARK                         _______ _______ _______ _____ _____    ______ ____
ROOT
ATOM      1  N   UNL     1      32.815  -5.303 -25.254  0.00  0.00    +0.390 N 
ATOM      2  C   UNL     1      30.726  -6.801 -24.846  0.00  0.00    +0.012 C 
ATOM      3  C   UNL     1      31.802  -7.040 -23.764  0.00  0.00    +0.053 C 
ATOM      4  C   UNL     1      33.095  -6.286 -24.171  0.00  0.00    -0.035 C 
ATOM      5  C   UNL     1      31.337  -7.059 -26.236  0.00  0.00    -0.021 C 
ATOM      6  C   UNL     1      30.358  -5.310 -24.780  0.00  0.00    -0.021 C 
ATOM      7  C   UNL     1      32.488  -6.069 -26.481  0.00  0.00    -0.077 C 
ATOM      8  C   UNL     1      31.638  -4.469 -24.916  0.00  0.00    -0.077 C 
ATOM      9  H   UNL     1      33.628  -4.700 -25.380  0.00  0.00    -0.080 HD
ENDROOT
BRANCH   3  11
ATOM     10  O   UNL     1      30.640  -8.713 -21.741  0.00  0.00    -0.270 OA
ATOM     11  N   UNL     1      32.053  -8.447 -23.560  0.00  0.00    -0.304 N 
ATOM     12  C   UNL     1      31.441  -9.173 -22.550  0.00  0.00    +0.246 C 
ATOM     13  H   UNL     1      32.683  -8.907 -24.161  0.00  0.00    +0.150 HD
BRANCH  12  16
ATOM     14  F   UNL     1      31.651 -13.363 -20.091  0.00  0.00    -0.204 F 
ATOM     15  F   UNL     1      33.439 -13.168 -24.471  0.00  0.00    -0.204 F 
ATOM     16  C   UNL     1      31.826 -10.605 -22.456  0.00  0.00    +0.058 C 
ATOM     17  C   UNL     1      32.464 -11.227 -23.529  0.00  0.00    +0.034 C 
ATOM     18  C   UNL     1      31.552 -11.327 -21.294  0.00  0.00    +0.034 C 
ATOM     19  C   UNL     1      31.914 -12.671 -21.206  0.00  0.00    +0.143 C 
ATOM     20  C   UNL     1      32.828 -12.571 -23.440  0.00  0.00    +0.143 C 
ATOM     21  C   UNL     1      32.553 -13.292 -22.279  0.00  0.00    +0.059 C 
ENDBRANCH  12  16
ENDBRANCH   3  11
BRANCH   4  22
ATOM     22  C   UNL     1      33.767  -5.624 -22.964  0.00  0.00    +0.009 C 
BRANCH  22  24
ATOM     23  N   UNL     1      32.452  -6.770 -19.609  0.00  0.00    -0.243 NA
ATOM     24  C   UNL     1      32.907  -5.716 -21.736  0.00  0.00    -0.005 C 
ATOM     25  C   UNL     1      31.805  -4.885 -21.568  0.00  0.00    -0.001 C 
ATOM     26  C   UNL     1      33.185  -6.635 -20.736  0.00  0.00    +0.095 C 
ATOM     27  C   UNL     1      31.026  -4.995 -20.422  0.00  0.00    +0.020 C 
ATOM     28  C   UNL     1      31.389  -5.944 -19.481  0.00  0.00    +0.099 C 
ENDBRANCH  22  24
ENDBRANCH   4  22
TORSDOF 4
ENDMDL
MODEL 6
REMARK VINA RESULT:      -8.7      2.491      3.867
REMARK  Name = 44511587
REMARK  4 active torsions:
REMARK  status: ('A' for Active; 'I' for Inactive)
REMARK    1  A    between atoms: C_3  and  N_11
REMARK    2  A    between atoms: C_4  and  C_22
REMARK    3  A    between atoms: C_12  and  C_16
REMARK    4  A    between atoms: C_22  and  C_24
REMARK                            x       y       z     vdW  Elec       q    Type
REMARK                         _______ _______ _______ _____ _____    ______ ____
ROOT
ATOM      1  N   UNL     1      30.923 -24.886 -13.813  0.00  0.00    +0.390 N 
ATOM      2  C   UNL     1      31.256 -22.305 -13.735  0.00  0.00    +0.012 C 
ATOM      3  C   UNL     1      30.580 -22.739 -15.053  0.00  0.00    +0.053 C 
ATOM      4  C   UNL     1      30.597 -24.288 -15.137  0.00  0.00    -0.035 C 
ATOM      5  C   UNL     1      32.597 -23.048 -13.583  0.00  0.00    -0.021 C 
ATOM      6  C   UNL     1      30.342 -22.779 -12.593  0.00  0.00    -0.021 C 
ATOM      7  C   UNL     1      32.339 -24.563 -13.511  0.00  0.00    -0.077 C 
ATOM      8  C   UNL     1      30.086 -24.288 -12.746  0.00  0.00    -0.077 C 
ATOM      9  H   UNL     1      30.754 -25.892 -13.846  0.00  0.00    -0.080 HD
ENDROOT
BRANCH   3  11
ATOM     10  O   UNL     1      32.879 -23.738 -16.454  0.00  0.00    -0.270 OA
ATOM     11  N   UNL     1      31.215 -22.141 -16.203  0.00  0.00    -0.304 N 
ATOM     12  C   UNL     1      32.327 -22.701 -16.813  0.00  0.00    +0.246 C 
ATOM     13  H   UNL     1      30.845 -21.305 -16.567  0.00  0.00    +0.150 HD
BRANCH  12  16
ATOM     14  F   UNL     1      36.094 -21.208 -19.503  0.00  0.00    -0.204 F 
ATOM     15  F   UNL     1      31.716 -19.886 -20.731  0.00  0.00    -0.204 F 
ATOM     16  C   UNL     1      32.879 -21.948 -17.970  0.00  0.00    +0.058 C 
ATOM     17  C   UNL     1      32.022 -21.257 -18.825  0.00  0.00    +0.034 C 
ATOM     18  C   UNL     1      34.255 -21.932 -18.199  0.00  0.00    +0.034 C 
ATOM     19  C   UNL     1      34.773 -21.225 -19.284  0.00  0.00    +0.143 C 
ATOM     20  C   UNL     1      32.540 -20.549 -19.909  0.00  0.00    +0.143 C 
ATOM     21  C   UNL     1      33.915 -20.533 -20.139  0.00  0.00    +0.059 C 
ENDBRANCH  12  16
ENDBRANCH   3  11
BRANCH   4  22
ATOM     22  C   UNL     1      29.284 -24.839 -15.700  0.00  0.00    +0.009 C 
BRANCH  22  24
ATOM     23  N   UNL     1      26.926 -22.548 -17.571  0.00  0.00    -0.243 NA
ATOM     24  C   UNL     1      28.299 -23.739 -15.976  0.00  0.00    -0.005 C 
ATOM     25  C   UNL     1      27.850 -22.906 -14.957  0.00  0.00    -0.001 C 
ATOM     26  C   UNL     1      27.812 -23.520 -17.255  0.00  0.00    +0.095 C 
ATOM     27  C   UNL     1      26.940 -21.895 -15.243  0.00  0.00    +0.020 C 
ATOM     28  C   UNL     1      26.513 -21.759 -16.554  0.00  0.00    +0.099 C 
ENDBRANCH  22  24
ENDBRANCH   4  22
TORSDOF 4
ENDMDL
MODEL 7
REMARK VINA RESULT:      -8.7      1.450      4.205
REMARK  Name = 44511587
REMARK  4 active torsions:
REMARK  status: ('A' for Active; 'I' for Inactive)
REMARK    1  A    between atoms: C_3  and  N_11
REMARK    2  A    between atoms: C_4  and  C_22
REMARK    3  A    between atoms: C_12  and  C_16
REMARK    4  A    between atoms: C_22  and  C_24
REMARK                            x       y       z     vdW  Elec       q    Type
REMARK                         _______ _______ _______ _____ _____    ______ ____
ROOT
ATOM      1  N   UNL     1      33.111 -22.697 -13.253  0.00  0.00    +0.390 N 
ATOM      2  C   UNL     1      32.214 -23.862 -15.401  0.00  0.00    +0.012 C 
ATOM      3  C   UNL     1      33.580 -23.191 -15.661  0.00  0.00    +0.053 C 
ATOM      4  C   UNL     1      33.964 -22.342 -14.422  0.00  0.00    -0.035 C 
ATOM      5  C   UNL     1      31.220 -22.807 -14.881  0.00  0.00    -0.021 C 
ATOM      6  C   UNL     1      32.431 -24.880 -14.270  0.00  0.00    -0.021 C 
ATOM      7  C   UNL     1      31.733 -22.234 -13.548  0.00  0.00    -0.077 C 
ATOM      8  C   UNL     1      33.063 -24.166 -13.064  0.00  0.00    -0.077 C 
ATOM      9  H   UNL     1      33.493 -22.264 -12.413  0.00  0.00    -0.080 HD
ENDROOT
BRANCH   3  11
ATOM     10  O   UNL     1      35.863 -22.302 -17.159  0.00  0.00    -0.270 OA
ATOM     11  N   UNL     1      33.564 -22.392 -16.864  0.00  0.00    -0.304 N 
ATOM     12  C   UNL     1      34.725 -22.011 -17.518  0.00  0.00    +0.246 C 
ATOM     13  H   UNL     1      32.696 -22.108 -17.231  0.00  0.00    +0.150 HD
BRANCH  12  16
ATOM     14  F   UNL     1      31.868 -20.034 -20.921  0.00  0.00    -0.204 F 
ATOM     15  F   UNL     1      36.523 -19.170 -21.032  0.00  0.00    -0.204 F 
ATOM     16  C   UNL     1      34.540 -21.167 -18.728  0.00  0.00    +0.058 C 
ATOM     17  C   UNL     1      35.640 -20.552 -19.325  0.00  0.00    +0.034 C 
ATOM     18  C   UNL     1      33.266 -20.992 -19.267  0.00  0.00    +0.034 C 
ATOM     19  C   UNL     1      33.091 -20.201 -20.403  0.00  0.00    +0.143 C 
ATOM     20  C   UNL     1      35.466 -19.762 -20.460  0.00  0.00    +0.143 C 
ATOM     21  C   UNL     1      34.192 -19.586 -21.000  0.00  0.00    +0.059 C 
ENDBRANCH  12  16
ENDBRANCH   3  11
BRANCH   4  22
ATOM     22  C   UNL     1      35.455 -22.464 -14.092  0.00  0.00    +0.009 C 
BRANCH  22  24
ATOM     23  N   UNL     1      36.477 -25.669 -12.365  0.00  0.00    -0.243 NA
ATOM     24  C   UNL     1      35.858 -23.896 -13.887  0.00  0.00    -0.005 C 
ATOM     25  C   UNL     1      35.994 -24.764 -14.964  0.00  0.00    -0.001 C 
ATOM     26  C   UNL     1      36.110 -24.393 -12.618  0.00  0.00    +0.095 C 
ATOM     27  C   UNL     1      36.370 -26.084 -14.744  0.00  0.00    +0.020 C 
ATOM     28  C   UNL     1      36.598 -26.483 -13.437  0.00  0.00    +0.099 C 
ENDBRANCH  22  24
ENDBRANCH   4  22
TORSDOF 4
ENDMDL
MODEL 8
REMARK VINA RESULT:      -8.6     14.663     18.555
REMARK  Name = 44511587
REMARK  4 active torsions:
REMARK  status: ('A' for Active; 'I' for Inactive)
REMARK    1  A    between atoms: C_3  and  N_11
REMARK    2  A    between atoms: C_4  and  C_22
REMARK    3  A    between atoms: C_12  and  C_16
REMARK    4  A    between atoms: C_22  and  C_24
REMARK                            x       y       z     vdW  Elec       q    Type
REMARK                         _______ _______ _______ _____ _____    ______ ____
ROOT
ATOM      1  N   UNL     1      31.632  -4.442 -23.822  0.00  0.00    +0.390 N 
ATOM      2  C   UNL     1      31.086  -5.877 -21.720  0.00  0.00    +0.012 C 
ATOM      3  C   UNL     1      32.385  -6.360 -22.402  0.00  0.00    +0.053 C 
ATOM      4  C   UNL     1      32.547  -5.615 -23.752  0.00  0.00    -0.035 C 
ATOM      5  C   UNL     1      29.932  -5.915 -22.739  0.00  0.00    -0.021 C 
ATOM      6  C   UNL     1      31.309  -4.404 -21.341  0.00  0.00    -0.021 C 
ATOM      7  C   UNL     1      30.244  -4.960 -23.903  0.00  0.00    -0.077 C 
ATOM      8  C   UNL     1      31.736  -3.620 -22.594  0.00  0.00    -0.077 C 
ATOM      9  H   UNL     1      31.879  -3.869 -24.630  0.00  0.00    -0.080 HD
ENDROOT
BRANCH   3  11
ATOM     10  O   UNL     1      31.452  -8.331 -20.534  0.00  0.00    -0.270 OA
ATOM     11  N   UNL     1      32.392  -7.792 -22.585  0.00  0.00    -0.304 N 
ATOM     12  C   UNL     1      31.918  -8.667 -21.619  0.00  0.00    +0.246 C 
ATOM     13  H   UNL     1      32.747  -8.160 -23.426  0.00  0.00    +0.150 HD
BRANCH  12  16
ATOM     14  F   UNL     1      33.024 -12.250 -24.717  0.00  0.00    -0.204 F 
ATOM     15  F   UNL     1      31.387 -13.348 -20.411  0.00  0.00    -0.204 F 
ATOM     16  C   UNL     1      32.020 -10.113 -21.949  0.00  0.00    +0.058 C 
ATOM     17  C   UNL     1      31.649 -11.071 -21.007  0.00  0.00    +0.034 C 
ATOM     18  C   UNL     1      32.484 -10.511 -23.203  0.00  0.00    +0.034 C 
ATOM     19  C   UNL     1      32.579 -11.868 -23.513  0.00  0.00    +0.143 C 
ATOM     20  C   UNL     1      31.742 -12.428 -21.317  0.00  0.00    +0.143 C 
ATOM     21  C   UNL     1      32.207 -12.826 -22.570  0.00  0.00    +0.059 C 
ENDBRANCH  12  16
ENDBRANCH   3  11
BRANCH   4  22
ATOM     22  C   UNL     1      34.003  -5.214 -24.006  0.00  0.00    +0.009 C 
BRANCH  22  24
ATOM     23  N   UNL     1      33.623  -5.425 -27.763  0.00  0.00    -0.243 NA
ATOM     24  C   UNL     1      34.273  -5.017 -25.470  0.00  0.00    -0.005 C 
ATOM     25  C   UNL     1      35.371  -4.283 -25.905  0.00  0.00    -0.001 C 
ATOM     26  C   UNL     1      33.437  -5.564 -26.431  0.00  0.00    +0.095 C 
ATOM     27  C   UNL     1      35.596  -4.119 -27.266  0.00  0.00    +0.020 C 
ATOM     28  C   UNL     1      34.701  -4.705 -28.147  0.00  0.00    +0.099 C 
ENDBRANCH  22  24
ENDBRANCH   4  22
TORSDOF 4
ENDMDL
MODEL 9
REMARK VINA RESULT:      -8.6     14.599     18.529
REMARK  Name = 44511587
REMARK  4 active torsions:
REMARK  status: ('A' for Active; 'I' for Inactive)
REMARK    1  A    between atoms: C_3  and  N_11
REMARK    2  A    between atoms: C_4  and  C_22
REMARK    3  A    between atoms: C_12  and  C_16
REMARK    4  A    between atoms: C_22  and  C_24
REMARK                            x       y       z     vdW  Elec       q    Type
REMARK                         _______ _______ _______ _____ _____    ______ ____
ROOT
ATOM      1  N   UNL     1      31.556  -4.552 -23.866  0.00  0.00    +0.390 N 
ATOM      2  C   UNL     1      30.981  -5.988 -21.773  0.00  0.00    +0.012 C 
ATOM      3  C   UNL     1      32.310  -6.445 -22.413  0.00  0.00    +0.053 C 
ATOM      4  C   UNL     1      32.495  -5.703 -23.762  0.00  0.00    -0.035 C 
ATOM      5  C   UNL     1      29.859  -6.059 -22.826  0.00  0.00    -0.021 C 
ATOM      6  C   UNL     1      31.159  -4.509 -21.395  0.00  0.00    -0.021 C 
ATOM      7  C   UNL     1      30.184  -5.102 -23.986  0.00  0.00    -0.077 C 
ATOM      8  C   UNL     1      31.604  -3.722 -22.640  0.00  0.00    -0.077 C 
ATOM      9  H   UNL     1      31.814  -3.978 -24.669  0.00  0.00    -0.080 HD
ENDROOT
BRANCH   3  11
ATOM     10  O   UNL     1      31.327  -8.427 -20.582  0.00  0.00    -0.270 OA
ATOM     11  N   UNL     1      32.356  -7.877 -22.587  0.00  0.00    -0.304 N 
ATOM     12  C   UNL     1      31.853  -8.758 -21.642  0.00  0.00    +0.246 C 
ATOM     13  H   UNL     1      32.759  -8.242 -23.408  0.00  0.00    +0.150 HD
BRANCH  12  16
ATOM     14  F   UNL     1      31.444 -13.442 -20.400  0.00  0.00    -0.204 F 
ATOM     15  F   UNL     1      33.112 -12.331 -24.690  0.00  0.00    -0.204 F 
ATOM     16  C   UNL     1      32.000 -10.203 -21.958  0.00  0.00    +0.058 C 
ATOM     17  C   UNL     1      32.496 -10.597 -23.200  0.00  0.00    +0.034 C 
ATOM     18  C   UNL     1      31.645 -11.164 -21.012  0.00  0.00    +0.034 C 
ATOM     19  C   UNL     1      31.785 -12.519 -21.308  0.00  0.00    +0.143 C 
ATOM     20  C   UNL     1      32.637 -11.952 -23.497  0.00  0.00    +0.143 C 
ATOM     21  C   UNL     1      32.281 -12.913 -22.551  0.00  0.00    +0.059 C 
ENDBRANCH  12  16
ENDBRANCH   3  11
BRANCH   4  22
ATOM     22  C   UNL     1      33.949  -5.270 -23.974  0.00  0.00    +0.009 C 
BRANCH  22  24
ATOM     23  N   UNL     1      33.654  -5.425 -27.742  0.00  0.00    -0.243 NA
ATOM     24  C   UNL     1      34.251  -5.050 -25.429  0.00  0.00    -0.005 C 
ATOM     25  C   UNL     1      35.356  -4.307 -25.828  0.00  0.00    -0.001 C 
ATOM     26  C   UNL     1      33.438  -5.584 -26.417  0.00  0.00    +0.095 C 
ATOM     27  C   UNL     1      35.612  -4.122 -27.182  0.00  0.00    +0.020 C 
ATOM     28  C   UNL     1      34.737  -4.697 -28.091  0.00  0.00    +0.099 C 
ENDBRANCH  22  24
ENDBRANCH   4  22
TORSDOF 4
ENDMDL
