MODEL 1
REMARK VINA RESULT:     -12.5      0.000      0.000
REMARK  Name = 21078798
REMARK  5 active torsions:
REMARK  status: ('A' for Active; 'I' for Inactive)
REMARK    1  A    between atoms: C_1  and  C_22
REMARK    2  A    between atoms: C_4  and  C_7
REMARK    3  A    between atoms: C_10  and  C_17
REMARK    4  A    between atoms: N_21  and  C_24
REMARK    5  A    between atoms: C_24  and  C_25
REMARK                            x       y       z     vdW  Elec       q    Type
REMARK                         _______ _______ _______ _____ _____    ______ ____
ROOT
ATOM      1  C   UNL     1      34.683 -20.049 -20.234  0.00  0.00    +0.053 C 
ATOM      2  C   UNL     1      33.466 -20.539 -19.759  0.00  0.00    +0.005 C 
ATOM      3  C   UNL     1      35.865 -20.336 -19.552  0.00  0.00    +0.005 C 
ATOM      4  C   UNL     1      34.615 -21.605 -17.920  0.00  0.00    -0.000 C 
ATOM      5  C   UNL     1      33.432 -21.317 -18.603  0.00  0.00    +0.000 C 
ATOM      6  C   UNL     1      35.831 -21.115 -18.394  0.00  0.00    +0.000 C 
ENDROOT
BRANCH   4   7
ATOM      7  C   UNL     1      34.580 -22.411 -16.718  0.00  0.00    -0.004 C 
ATOM      8  C   UNL     1      33.378 -22.922 -16.230  0.00  0.00    -0.022 C 
ATOM      9  C   UNL     1      35.773 -22.672 -16.046  0.00  0.00    +0.004 C 
ATOM     10  C   UNL     1      35.764 -23.446 -14.885  0.00  0.00    +0.055 C 
ATOM     11  C   UNL     1      33.369 -23.696 -15.069  0.00  0.00    -0.004 C 
ATOM     12  C   UNL     1      34.562 -23.958 -14.397  0.00  0.00    +0.004 C 
ATOM     13  C   UNL     1      32.079 -22.662 -16.924  0.00  0.00    +0.031 C 
BRANCH  10  17
ATOM     14  O   UNL     1      37.824 -24.627 -14.775  0.00  0.00    -0.420 OA
ATOM     15  N   UNL     1      37.468 -23.228 -13.065  0.00  0.00    -0.107 NA
ATOM     16  N   UNL     1      38.692 -23.841 -12.868  0.00  0.00    -0.111 NA
ATOM     17  C   UNL     1      36.998 -23.718 -14.190  0.00  0.00    +0.250 A 
ATOM     18  C   UNL     1      38.858 -24.649 -13.889  0.00  0.00    +0.227 A 
ATOM     19  C   UNL     1      39.977 -25.548 -14.200  0.00  0.00    +0.097 C 
ENDBRANCH  10  17
ENDBRANCH   4   7
BRANCH   1  22
ATOM     20  O   UNL     1      34.234 -19.665 -22.503  0.00  0.00    -0.270 OA
ATOM     21  N   UNL     1      35.301 -17.968 -21.336  0.00  0.00    -0.301 N 
ATOM     22  C   UNL     1      34.720 -19.238 -21.441  0.00  0.00    +0.246 C 
ATOM     23  H   UNL     1      35.666 -17.695 -20.464  0.00  0.00    +0.150 HD
BRANCH  21  24
ATOM     24  C   UNL     1      35.392 -17.038 -22.439  0.00  0.00    +0.090 C 
BRANCH  24  25
ATOM     25  C   UNL     1      34.184 -16.166 -22.506  0.00  0.00    +0.020 C 
ATOM     26  C   UNL     1      34.297 -14.802 -23.122  0.00  0.00    +0.002 C 
ATOM     27  C   UNL     1      34.114 -14.943 -21.638  0.00  0.00    +0.002 C 
ENDBRANCH  24  25
ENDBRANCH  21  24
ENDBRANCH   1  22
TORSDOF 5
ENDMDL
MODEL 2
REMARK VINA RESULT:     -12.5      3.490      5.049
REMARK  Name = 21078798
REMARK  5 active torsions:
REMARK  status: ('A' for Active; 'I' for Inactive)
REMARK    1  A    between atoms: C_1  and  C_22
REMARK    2  A    between atoms: C_4  and  C_7
REMARK    3  A    between atoms: C_10  and  C_17
REMARK    4  A    between atoms: N_21  and  C_24
REMARK    5  A    between atoms: C_24  and  C_25
REMARK                            x       y       z     vdW  Elec       q    Type
REMARK                         _______ _______ _______ _____ _____    ______ ____
ROOT
ATOM      1  C   UNL     1      34.039 -19.535 -21.351  0.00  0.00    +0.053 C 
ATOM      2  C   UNL     1      32.747 -19.740 -20.868  0.00  0.00    +0.005 C 
ATOM      3  C   UNL     1      35.133 -20.064 -20.667  0.00  0.00    +0.005 C 
ATOM      4  C   UNL     1      33.642 -21.006 -19.015  0.00  0.00    -0.000 C 
ATOM      5  C   UNL     1      32.548 -20.476 -19.700  0.00  0.00    +0.000 C 
ATOM      6  C   UNL     1      34.935 -20.800 -19.498  0.00  0.00    +0.000 C 
ENDROOT
BRANCH   4   7
ATOM      7  C   UNL     1      33.437 -21.768 -17.802  0.00  0.00    -0.004 C 
ATOM      8  C   UNL     1      34.514 -22.147 -17.000  0.00  0.00    -0.022 C 
ATOM      9  C   UNL     1      32.139 -22.124 -17.439  0.00  0.00    +0.004 C 
ATOM     10  C   UNL     1      31.916 -22.859 -16.275  0.00  0.00    +0.055 C 
ATOM     11  C   UNL     1      34.291 -22.882 -15.835  0.00  0.00    -0.004 C 
ATOM     12  C   UNL     1      32.993 -23.237 -15.473  0.00  0.00    +0.004 C 
ATOM     13  C   UNL     1      35.920 -21.784 -17.357  0.00  0.00    +0.031 C 
BRANCH  10  17
ATOM     14  O   UNL     1      29.576 -22.470 -16.433  0.00  0.00    -0.420 OA
ATOM     15  N   UNL     1      30.141 -24.185 -15.112  0.00  0.00    -0.107 NA
ATOM     16  N   UNL     1      28.762 -24.077 -15.107  0.00  0.00    -0.111 NA
ATOM     17  C   UNL     1      30.573 -23.227 -15.899  0.00  0.00    +0.250 A 
ATOM     18  C   UNL     1      28.478 -23.064 -15.890  0.00  0.00    +0.227 A 
ATOM     19  C   UNL     1      27.172 -22.498 -16.254  0.00  0.00    +0.097 C 
ENDBRANCH  10  17
ENDBRANCH   4   7
BRANCH   1  22
ATOM     20  O   UNL     1      34.400 -19.346 -23.661  0.00  0.00    -0.270 OA
ATOM     21  N   UNL     1      34.243 -17.373 -22.452  0.00  0.00    -0.301 N 
ATOM     22  C   UNL     1      34.247 -18.768 -22.570  0.00  0.00    +0.246 C 
ATOM     23  H   UNL     1      34.116 -16.983 -21.557  0.00  0.00    +0.150 HD
BRANCH  21  24
ATOM     24  C   UNL     1      34.413 -16.476 -23.573  0.00  0.00    +0.090 C 
BRANCH  24  25
ATOM     25  C   UNL     1      34.540 -15.063 -23.114  0.00  0.00    +0.020 C 
ATOM     26  C   UNL     1      33.916 -14.655 -21.812  0.00  0.00    +0.002 C 
ATOM     27  C   UNL     1      33.323 -14.183 -23.107  0.00  0.00    +0.002 C 
ENDBRANCH  24  25
ENDBRANCH  21  24
ENDBRANCH   1  22
TORSDOF 5
ENDMDL
MODEL 3
REMARK VINA RESULT:     -12.5      5.052     10.040
REMARK  Name = 21078798
REMARK  5 active torsions:
REMARK  status: ('A' for Active; 'I' for Inactive)
REMARK    1  A    between atoms: C_1  and  C_22
REMARK    2  A    between atoms: C_4  and  C_7
REMARK    3  A    between atoms: C_10  and  C_17
REMARK    4  A    between atoms: N_21  and  C_24
REMARK    5  A    between atoms: C_24  and  C_25
REMARK                            x       y       z     vdW  Elec       q    Type
REMARK                         _______ _______ _______ _____ _____    ______ ____
ROOT
ATOM      1  C   UNL     1      31.964 -11.000 -21.383  0.00  0.00    +0.053 C 
ATOM      2  C   UNL     1      32.593 -11.040 -22.628  0.00  0.00    +0.005 C 
ATOM      3  C   UNL     1      31.838 -12.165 -20.628  0.00  0.00    +0.005 C 
ATOM      4  C   UNL     1      32.969 -13.411 -22.361  0.00  0.00    -0.000 C 
ATOM      5  C   UNL     1      33.096 -12.245 -23.117  0.00  0.00    +0.000 C 
ATOM      6  C   UNL     1      32.341 -13.371 -21.116  0.00  0.00    +0.000 C 
ENDROOT
BRANCH   4   7
ATOM      7  C   UNL     1      33.489 -14.663 -22.868  0.00  0.00    -0.004 C 
ATOM      8  C   UNL     1      33.457 -14.955 -24.231  0.00  0.00    -0.022 C 
ATOM      9  C   UNL     1      34.027 -15.584 -21.969  0.00  0.00    +0.004 C 
ATOM     10  C   UNL     1      34.533 -16.798 -22.434  0.00  0.00    +0.055 C 
ATOM     11  C   UNL     1      33.963 -16.170 -24.696  0.00  0.00    -0.004 C 
ATOM     12  C   UNL     1      34.501 -17.090 -23.798  0.00  0.00    +0.004 C 
ATOM     13  C   UNL     1      32.888 -13.993 -25.223  0.00  0.00    +0.031 C 
BRANCH  10  17
ATOM     14  O   UNL     1      34.307 -18.823 -21.210  0.00  0.00    -0.420 OA
ATOM     15  N   UNL     1      36.247 -17.758 -20.885  0.00  0.00    -0.107 NA
ATOM     16  N   UNL     1      36.256 -18.907 -20.115  0.00  0.00    -0.111 NA
ATOM     17  C   UNL     1      35.090 -17.750 -21.506  0.00  0.00    +0.250 A 
ATOM     18  C   UNL     1      35.105 -19.496 -20.336  0.00  0.00    +0.227 A 
ATOM     19  C   UNL     1      34.574 -20.750 -19.785  0.00  0.00    +0.097 C 
ENDBRANCH  10  17
ENDBRANCH   4   7
BRANCH   1  22
ATOM     20  O   UNL     1      30.820  -9.708 -19.795  0.00  0.00    -0.270 OA
ATOM     21  N   UNL     1      31.686  -8.594 -21.636  0.00  0.00    -0.301 N 
ATOM     22  C   UNL     1      31.440  -9.742 -20.872  0.00  0.00    +0.246 C 
ATOM     23  H   UNL     1      32.183  -8.695 -22.479  0.00  0.00    +0.150 HD
BRANCH  21  24
ATOM     24  C   UNL     1      31.251  -7.271 -21.250  0.00  0.00    +0.090 C 
BRANCH  24  25
ATOM     25  C   UNL     1      32.400  -6.323 -21.196  0.00  0.00    +0.020 C 
ATOM     26  C   UNL     1      32.492  -5.222 -22.212  0.00  0.00    +0.002 C 
ATOM     27  C   UNL     1      33.447  -6.378 -22.271  0.00  0.00    +0.002 C 
ENDBRANCH  24  25
ENDBRANCH  21  24
ENDBRANCH   1  22
TORSDOF 5
ENDMDL
MODEL 4
REMARK VINA RESULT:     -12.4      1.081      1.214
REMARK  Name = 21078798
REMARK  5 active torsions:
REMARK  status: ('A' for Active; 'I' for Inactive)
REMARK    1  A    between atoms: C_1  and  C_22
REMARK    2  A    between atoms: C_4  and  C_7
REMARK    3  A    between atoms: C_10  and  C_17
REMARK    4  A    between atoms: N_21  and  C_24
REMARK    5  A    between atoms: C_24  and  C_25
REMARK                            x       y       z     vdW  Elec       q    Type
REMARK                         _______ _______ _______ _____ _____    ______ ____
ROOT
ATOM      1  C   UNL     1      34.329 -19.760 -20.927  0.00  0.00    +0.053 C 
ATOM      2  C   UNL     1      33.092 -20.099 -20.378  0.00  0.00    +0.005 C 
ATOM      3  C   UNL     1      35.506 -20.170 -20.303  0.00  0.00    +0.005 C 
ATOM      4  C   UNL     1      34.211 -21.260 -18.579  0.00  0.00    -0.000 C 
ATOM      5  C   UNL     1      33.033 -20.849 -19.204  0.00  0.00    +0.000 C 
ATOM      6  C   UNL     1      35.448 -20.921 -19.128  0.00  0.00    +0.000 C 
ENDROOT
BRANCH   4   7
ATOM      7  C   UNL     1      34.151 -22.038 -17.360  0.00  0.00    -0.004 C 
ATOM      8  C   UNL     1      32.930 -22.455 -16.833  0.00  0.00    -0.022 C 
ATOM      9  C   UNL     1      35.340 -22.367 -16.710  0.00  0.00    +0.004 C 
ATOM     10  C   UNL     1      35.308 -23.115 -15.533  0.00  0.00    +0.055 C 
ATOM     11  C   UNL     1      32.897 -23.203 -15.655  0.00  0.00    -0.004 C 
ATOM     12  C   UNL     1      34.086 -23.533 -15.006  0.00  0.00    +0.004 C 
ATOM     13  C   UNL     1      31.635 -22.119 -17.501  0.00  0.00    +0.031 C 
BRANCH  10  17
ATOM     14  O   UNL     1      36.438 -24.389 -13.874  0.00  0.00    -0.420 OA
ATOM     15  N   UNL     1      37.760 -23.014 -15.043  0.00  0.00    -0.107 NA
ATOM     16  N   UNL     1      38.546 -23.683 -14.123  0.00  0.00    -0.111 NA
ATOM     17  C   UNL     1      36.537 -23.458 -14.861  0.00  0.00    +0.250 A 
ATOM     18  C   UNL     1      37.733 -24.473 -13.463  0.00  0.00    +0.227 A 
ATOM     19  C   UNL     1      38.021 -25.413 -12.372  0.00  0.00    +0.097 C 
ENDBRANCH  10  17
ENDBRANCH   4   7
BRANCH   1  22
ATOM     20  O   UNL     1      34.484 -19.541 -23.257  0.00  0.00    -0.270 OA
ATOM     21  N   UNL     1      34.320 -17.585 -22.021  0.00  0.00    -0.301 N 
ATOM     22  C   UNL     1      34.391 -18.977 -22.152  0.00  0.00    +0.246 C 
ATOM     23  H   UNL     1      34.248 -17.206 -21.116  0.00  0.00    +0.150 HD
BRANCH  21  24
ATOM     24  C   UNL     1      34.346 -16.675 -23.144  0.00  0.00    +0.090 C 
BRANCH  24  25
ATOM     25  C   UNL     1      34.621 -15.279 -22.697  0.00  0.00    +0.020 C 
ATOM     26  C   UNL     1      33.921 -14.747 -21.481  0.00  0.00    +0.002 C 
ATOM     27  C   UNL     1      33.548 -14.238 -22.844  0.00  0.00    +0.002 C 
ENDBRANCH  24  25
ENDBRANCH  21  24
ENDBRANCH   1  22
TORSDOF 5
ENDMDL
MODEL 5
REMARK VINA RESULT:     -12.0      2.695      9.920
REMARK  Name = 21078798
REMARK  5 active torsions:
REMARK  status: ('A' for Active; 'I' for Inactive)
REMARK    1  A    between atoms: C_1  and  C_22
REMARK    2  A    between atoms: C_4  and  C_7
REMARK    3  A    between atoms: C_10  and  C_17
REMARK    4  A    between atoms: N_21  and  C_24
REMARK    5  A    between atoms: C_24  and  C_25
REMARK                            x       y       z     vdW  Elec       q    Type
REMARK                         _______ _______ _______ _____ _____    ______ ____
ROOT
ATOM      1  C   UNL     1      34.153 -21.253 -18.999  0.00  0.00    +0.053 C 
ATOM      2  C   UNL     1      35.369 -20.752 -19.464  0.00  0.00    +0.005 C 
ATOM      3  C   UNL     1      32.954 -20.775 -19.526  0.00  0.00    +0.005 C 
ATOM      4  C   UNL     1      34.185 -19.294 -20.984  0.00  0.00    -0.000 C 
ATOM      5  C   UNL     1      35.385 -19.773 -20.457  0.00  0.00    +0.000 C 
ATOM      6  C   UNL     1      32.969 -19.796 -20.519  0.00  0.00    +0.000 C 
ENDROOT
BRANCH   4   7
ATOM      7  C   UNL     1      34.200 -18.277 -22.014  0.00  0.00    -0.004 C 
ATOM      8  C   UNL     1      34.343 -18.617 -23.358  0.00  0.00    -0.022 C 
ATOM      9  C   UNL     1      34.072 -16.939 -21.643  0.00  0.00    +0.004 C 
ATOM     10  C   UNL     1      34.085 -15.941 -22.616  0.00  0.00    +0.055 C 
ATOM     11  C   UNL     1      34.356 -17.618 -24.333  0.00  0.00    -0.004 C 
ATOM     12  C   UNL     1      34.226 -16.281 -23.961  0.00  0.00    +0.004 C 
ATOM     13  C   UNL     1      34.485 -20.040 -23.794  0.00  0.00    +0.031 C 
BRANCH  10  17
ATOM     14  O   UNL     1      33.613 -13.693 -23.229  0.00  0.00    -0.420 OA
ATOM     15  N   UNL     1      34.102 -13.978 -21.065  0.00  0.00    -0.107 NA
ATOM     16  N   UNL     1      33.853 -12.633 -21.273  0.00  0.00    -0.111 NA
ATOM     17  C   UNL     1      33.950 -14.557 -22.233  0.00  0.00    +0.250 A 
ATOM     18  C   UNL     1      33.573 -12.514 -22.550  0.00  0.00    +0.227 A 
ATOM     19  C   UNL     1      33.230 -11.314 -23.325  0.00  0.00    +0.097 C 
ENDBRANCH  10  17
ENDBRANCH   4   7
BRANCH   1  22
ATOM     20  O   UNL     1      33.494 -23.328 -18.127  0.00  0.00    -0.270 OA
ATOM     21  N   UNL     1      34.884 -22.022 -16.808  0.00  0.00    -0.301 N 
ATOM     22  C   UNL     1      34.136 -22.275 -17.964  0.00  0.00    +0.246 C 
ATOM     23  H   UNL     1      35.369 -21.167 -16.745  0.00  0.00    +0.150 HD
BRANCH  21  24
ATOM     24  C   UNL     1      34.985 -22.948 -15.702  0.00  0.00    +0.090 C 
BRANCH  24  25
ATOM     25  C   UNL     1      36.178 -22.649 -14.859  0.00  0.00    +0.020 C 
ATOM     26  C   UNL     1      37.520 -22.501 -15.514  0.00  0.00    +0.002 C 
ATOM     27  C   UNL     1      37.225 -23.708 -14.671  0.00  0.00    +0.002 C 
ENDBRANCH  24  25
ENDBRANCH  21  24
ENDBRANCH   1  22
TORSDOF 5
ENDMDL
MODEL 6
REMARK VINA RESULT:     -12.0      5.040      9.908
REMARK  Name = 21078798
REMARK  5 active torsions:
REMARK  status: ('A' for Active; 'I' for Inactive)
REMARK    1  A    between atoms: C_1  and  C_22
REMARK    2  A    between atoms: C_4  and  C_7
REMARK    3  A    between atoms: C_10  and  C_17
REMARK    4  A    between atoms: N_21  and  C_24
REMARK    5  A    between atoms: C_24  and  C_25
REMARK                            x       y       z     vdW  Elec       q    Type
REMARK                         _______ _______ _______ _____ _____    ______ ____
ROOT
ATOM      1  C   UNL     1      32.059 -11.095 -21.271  0.00  0.00    +0.053 C 
ATOM      2  C   UNL     1      31.989 -12.244 -20.485  0.00  0.00    +0.005 C 
ATOM      3  C   UNL     1      32.621 -11.155 -22.546  0.00  0.00    +0.005 C 
ATOM      4  C   UNL     1      33.042 -13.515 -22.250  0.00  0.00    -0.000 C 
ATOM      5  C   UNL     1      32.480 -13.455 -20.974  0.00  0.00    +0.000 C 
ATOM      6  C   UNL     1      33.112 -12.365 -23.036  0.00  0.00    +0.000 C 
ENDROOT
BRANCH   4   7
ATOM      7  C   UNL     1      33.553 -14.770 -22.757  0.00  0.00    -0.004 C 
ATOM      8  C   UNL     1      33.497 -15.071 -24.118  0.00  0.00    -0.022 C 
ATOM      9  C   UNL     1      34.106 -15.685 -21.862  0.00  0.00    +0.004 C 
ATOM     10  C   UNL     1      34.605 -16.902 -22.328  0.00  0.00    +0.055 C 
ATOM     11  C   UNL     1      33.996 -16.289 -24.584  0.00  0.00    -0.004 C 
ATOM     12  C   UNL     1      34.550 -17.203 -23.689  0.00  0.00    +0.004 C 
ATOM     13  C   UNL     1      32.911 -14.115 -25.107  0.00  0.00    +0.031 C 
BRANCH  10  17
ATOM     14  O   UNL     1      34.510 -19.025 -21.262  0.00  0.00    -0.420 OA
ATOM     15  N   UNL     1      36.257 -17.765 -20.658  0.00  0.00    -0.107 NA
ATOM     16  N   UNL     1      36.331 -18.958 -19.964  0.00  0.00    -0.111 NA
ATOM     17  C   UNL     1      35.179 -17.848 -21.403  0.00  0.00    +0.250 A 
ATOM     18  C   UNL     1      35.292 -19.662 -20.348  0.00  0.00    +0.227 A 
ATOM     19  C   UNL     1      34.868 -21.007 -19.937  0.00  0.00    +0.097 C 
ENDBRANCH  10  17
ENDBRANCH   4   7
BRANCH   1  22
ATOM     20  O   UNL     1      31.188  -9.729 -19.576  0.00  0.00    -0.270 OA
ATOM     21  N   UNL     1      31.500  -8.757 -21.658  0.00  0.00    -0.301 N 
ATOM     22  C   UNL     1      31.546  -9.832 -20.762  0.00  0.00    +0.246 C 
ATOM     23  H   UNL     1      31.799  -8.910 -22.584  0.00  0.00    +0.150 HD
BRANCH  21  24
ATOM     24  C   UNL     1      31.038  -7.436 -21.298  0.00  0.00    +0.090 C 
BRANCH  24  25
ATOM     25  C   UNL     1      31.638  -6.397 -22.184  0.00  0.00    +0.020 C 
ATOM     26  C   UNL     1      33.130  -6.238 -22.222  0.00  0.00    +0.002 C 
ATOM     27  C   UNL     1      32.279  -5.188 -21.566  0.00  0.00    +0.002 C 
ENDBRANCH  24  25
ENDBRANCH  21  24
ENDBRANCH   1  22
TORSDOF 5
ENDMDL
MODEL 7
REMARK VINA RESULT:     -11.8      2.558      4.166
REMARK  Name = 21078798
REMARK  5 active torsions:
REMARK  status: ('A' for Active; 'I' for Inactive)
REMARK    1  A    between atoms: C_1  and  C_22
REMARK    2  A    between atoms: C_4  and  C_7
REMARK    3  A    between atoms: C_10  and  C_17
REMARK    4  A    between atoms: N_21  and  C_24
REMARK    5  A    between atoms: C_24  and  C_25
REMARK                            x       y       z     vdW  Elec       q    Type
REMARK                         _______ _______ _______ _____ _____    ______ ____
ROOT
ATOM      1  C   UNL     1      34.769 -20.271 -19.874  0.00  0.00    +0.053 C 
ATOM      2  C   UNL     1      35.940 -20.424 -19.133  0.00  0.00    +0.005 C 
ATOM      3  C   UNL     1      33.579 -20.842 -19.424  0.00  0.00    +0.005 C 
ATOM      4  C   UNL     1      34.731 -21.717 -17.489  0.00  0.00    -0.000 C 
ATOM      5  C   UNL     1      35.922 -21.146 -17.940  0.00  0.00    +0.000 C 
ATOM      6  C   UNL     1      33.559 -21.565 -18.230  0.00  0.00    +0.000 C 
ENDROOT
BRANCH   4   7
ATOM      7  C   UNL     1      34.711 -22.469 -16.253  0.00  0.00    -0.004 C 
ATOM      8  C   UNL     1      35.893 -22.782 -15.582  0.00  0.00    -0.022 C 
ATOM      9  C   UNL     1      33.485 -22.883 -15.734  0.00  0.00    +0.004 C 
ATOM     10  C   UNL     1      33.440 -23.609 -14.544  0.00  0.00    +0.055 C 
ATOM     11  C   UNL     1      35.849 -23.508 -14.392  0.00  0.00    -0.004 C 
ATOM     12  C   UNL     1      34.622 -23.921 -13.873  0.00  0.00    +0.004 C 
ATOM     13  C   UNL     1      37.226 -22.356 -16.108  0.00  0.00    +0.031 C 
BRANCH  10  17
ATOM     14  O   UNL     1      31.115 -23.987 -14.861  0.00  0.00    -0.420 OA
ATOM     15  N   UNL     1      31.858 -24.471 -12.807  0.00  0.00    -0.107 NA
ATOM     16  N   UNL     1      30.501 -24.736 -12.844  0.00  0.00    -0.111 NA
ATOM     17  C   UNL     1      32.172 -24.036 -14.006  0.00  0.00    +0.250 A 
ATOM     18  C   UNL     1      30.110 -24.439 -14.061  0.00  0.00    +0.227 A 
ATOM     19  C   UNL     1      28.773 -24.526 -14.663  0.00  0.00    +0.097 C 
ENDBRANCH  10  17
ENDBRANCH   4   7
BRANCH   1  22
ATOM     20  O   UNL     1      34.212 -19.954 -22.130  0.00  0.00    -0.270 OA
ATOM     21  N   UNL     1      35.457 -18.287 -21.105  0.00  0.00    -0.301 N 
ATOM     22  C   UNL     1      34.787 -19.517 -21.118  0.00  0.00    +0.246 C 
ATOM     23  H   UNL     1      35.891 -18.003 -20.269  0.00  0.00    +0.150 HD
BRANCH  21  24
ATOM     24  C   UNL     1      35.543 -17.413 -22.254  0.00  0.00    +0.090 C 
BRANCH  24  25
ATOM     25  C   UNL     1      34.340 -16.538 -22.354  0.00  0.00    +0.020 C 
ATOM     26  C   UNL     1      34.482 -15.158 -22.925  0.00  0.00    +0.002 C 
ATOM     27  C   UNL     1      34.229 -15.340 -21.457  0.00  0.00    +0.002 C 
ENDBRANCH  24  25
ENDBRANCH  21  24
ENDBRANCH   1  22
TORSDOF 5
ENDMDL
MODEL 8
REMARK VINA RESULT:     -11.8      1.524      2.143
REMARK  Name = 21078798
REMARK  5 active torsions:
REMARK  status: ('A' for Active; 'I' for Inactive)
REMARK    1  A    between atoms: C_1  and  C_22
REMARK    2  A    between atoms: C_4  and  C_7
REMARK    3  A    between atoms: C_10  and  C_17
REMARK    4  A    between atoms: N_21  and  C_24
REMARK    5  A    between atoms: C_24  and  C_25
REMARK                            x       y       z     vdW  Elec       q    Type
REMARK                         _______ _______ _______ _____ _____    ______ ____
ROOT
ATOM      1  C   UNL     1      33.181 -21.168 -18.957  0.00  0.00    +0.053 C 
ATOM      2  C   UNL     1      32.131 -21.690 -18.201  0.00  0.00    +0.005 C 
ATOM      3  C   UNL     1      34.494 -21.285 -18.502  0.00  0.00    +0.005 C 
ATOM      4  C   UNL     1      33.709 -22.445 -16.534  0.00  0.00    -0.000 C 
ATOM      5  C   UNL     1      32.395 -22.329 -16.990  0.00  0.00    +0.000 C 
ATOM      6  C   UNL     1      34.758 -21.924 -17.290  0.00  0.00    +0.000 C 
ENDROOT
BRANCH   4   7
ATOM      7  C   UNL     1      33.983 -23.106 -15.277  0.00  0.00    -0.004 C 
ATOM      8  C   UNL     1      33.007 -23.196 -14.284  0.00  0.00    -0.022 C 
ATOM      9  C   UNL     1      35.246 -23.657 -15.064  0.00  0.00    +0.004 C 
ATOM     10  C   UNL     1      35.534 -24.298 -13.860  0.00  0.00    +0.055 C 
ATOM     11  C   UNL     1      33.296 -23.838 -13.079  0.00  0.00    -0.004 C 
ATOM     12  C   UNL     1      34.559 -24.388 -12.867  0.00  0.00    +0.004 C 
ATOM     13  C   UNL     1      31.642 -22.617 -14.475  0.00  0.00    +0.031 C 
BRANCH  10  17
ATOM     14  O   UNL     1      37.779 -24.591 -14.586  0.00  0.00    -0.420 OA
ATOM     15  N   UNL     1      37.286 -25.627 -12.665  0.00  0.00    -0.107 NA
ATOM     16  N   UNL     1      38.612 -25.885 -12.962  0.00  0.00    -0.111 NA
ATOM     17  C   UNL     1      36.841 -24.869 -13.640  0.00  0.00    +0.250 A 
ATOM     18  C   UNL     1      38.855 -25.261 -14.090  0.00  0.00    +0.227 A 
ATOM     19  C   UNL     1      40.098 -25.188 -14.870  0.00  0.00    +0.097 C 
ENDBRANCH  10  17
ENDBRANCH   4   7
BRANCH   1  22
ATOM     20  O   UNL     1      31.751 -20.467 -20.678  0.00  0.00    -0.270 OA
ATOM     21  N   UNL     1      33.992 -19.899 -20.870  0.00  0.00    -0.301 N 
ATOM     22  C   UNL     1      32.907 -20.503 -20.222  0.00  0.00    +0.246 C 
ATOM     23  H   UNL     1      34.880 -19.967 -20.452  0.00  0.00    +0.150 HD
BRANCH  21  24
ATOM     24  C   UNL     1      33.876 -19.182 -22.120  0.00  0.00    +0.090 C 
BRANCH  24  25
ATOM     25  C   UNL     1      35.101 -18.375 -22.391  0.00  0.00    +0.020 C 
ATOM     26  C   UNL     1      36.027 -18.043 -21.257  0.00  0.00    +0.002 C 
ATOM     27  C   UNL     1      35.181 -16.968 -21.875  0.00  0.00    +0.002 C 
ENDBRANCH  24  25
ENDBRANCH  21  24
ENDBRANCH   1  22
TORSDOF 5
ENDMDL
MODEL 9
REMARK VINA RESULT:     -11.6      7.263     13.997
REMARK  Name = 21078798
REMARK  5 active torsions:
REMARK  status: ('A' for Active; 'I' for Inactive)
REMARK    1  A    between atoms: C_1  and  C_22
REMARK    2  A    between atoms: C_4  and  C_7
REMARK    3  A    between atoms: C_10  and  C_17
REMARK    4  A    between atoms: N_21  and  C_24
REMARK    5  A    between atoms: C_24  and  C_25
REMARK                            x       y       z     vdW  Elec       q    Type
REMARK                         _______ _______ _______ _____ _____    ______ ____
ROOT
ATOM      1  C   UNL     1      33.525 -14.490 -23.670  0.00  0.00    +0.053 C 
ATOM      2  C   UNL     1      33.817 -14.015 -22.392  0.00  0.00    +0.005 C 
ATOM      3  C   UNL     1      32.784 -13.705 -24.553  0.00  0.00    +0.005 C 
ATOM      4  C   UNL     1      32.629 -11.969 -22.881  0.00  0.00    -0.000 C 
ATOM      5  C   UNL     1      33.370 -12.754 -21.997  0.00  0.00    +0.000 C 
ATOM      6  C   UNL     1      32.336 -12.444 -24.159  0.00  0.00    +0.000 C 
ENDROOT
BRANCH   4   7
ATOM      7  C   UNL     1      32.163 -10.661 -22.472  0.00  0.00    -0.004 C 
ATOM      8  C   UNL     1      31.555 -10.471 -21.231  0.00  0.00    -0.022 C 
ATOM      9  C   UNL     1      32.328  -9.583 -23.341  0.00  0.00    +0.004 C 
ATOM     10  C   UNL     1      31.886  -8.314 -22.969  0.00  0.00    +0.055 C 
ATOM     11  C   UNL     1      31.112  -9.200 -20.859  0.00  0.00    -0.004 C 
ATOM     12  C   UNL     1      31.278  -8.123 -21.728  0.00  0.00    +0.004 C 
ATOM     13  C   UNL     1      31.360 -11.603 -20.274  0.00  0.00    +0.031 C 
BRANCH  10  17
ATOM     14  O   UNL     1      33.242  -6.534 -23.772  0.00  0.00    -0.420 OA
ATOM     15  N   UNL     1      31.249  -6.702 -24.774  0.00  0.00    -0.107 NA
ATOM     16  N   UNL     1      31.922  -5.633 -25.338  0.00  0.00    -0.111 NA
ATOM     17  C   UNL     1      32.058  -7.198 -23.866  0.00  0.00    +0.250 A 
ATOM     18  C   UNL     1      33.079  -5.573 -24.722  0.00  0.00    +0.227 A 
ATOM     19  C   UNL     1      34.193  -4.635 -24.913  0.00  0.00    +0.097 C 
ENDBRANCH  10  17
ENDBRANCH   4   7
BRANCH   1  22
ATOM     20  O   UNL     1      34.249 -16.036 -25.277  0.00  0.00    -0.270 OA
ATOM     21  N   UNL     1      34.152 -16.766 -23.078  0.00  0.00    -0.301 N 
ATOM     22  C   UNL     1      33.992 -15.804 -24.083  0.00  0.00    +0.246 C 
ATOM     23  H   UNL     1      33.929 -16.514 -22.153  0.00  0.00    +0.150 HD
BRANCH  21  24
ATOM     24  C   UNL     1      34.629 -18.108 -23.326  0.00  0.00    +0.090 C 
BRANCH  24  25
ATOM     25  C   UNL     1      35.290 -18.675 -22.115  0.00  0.00    +0.020 C 
ATOM     26  C   UNL     1      35.446 -17.816 -20.894  0.00  0.00    +0.002 C 
ATOM     27  C   UNL     1      36.648 -18.172 -21.719  0.00  0.00    +0.002 C 
ENDBRANCH  24  25
ENDBRANCH  21  24
ENDBRANCH   1  22
TORSDOF 5
ENDMDL
