MODEL 1
REMARK VINA RESULT:     -12.6      0.000      0.000
REMARK  Name = 11659487
REMARK  5 active torsions:
REMARK  status: ('A' for Active; 'I' for Inactive)
REMARK    1  A    between atoms: C_1  and  C_15
REMARK    2  A    between atoms: C_2  and  C_7
REMARK    3  A    between atoms: C_10  and  O_13
REMARK    4  A    between atoms: C_15  and  C_16
REMARK    5  A    between atoms: C_16  and  C_18
REMARK                            x       y       z     vdW  Elec       q    Type
REMARK                         _______ _______ _______ _____ _____    ______ ____
ROOT
ATOM      1  C   UNL     1      34.113 -20.094 -20.165  0.00  0.00    -0.022 C 
ATOM      2  C   UNL     1      34.784 -18.219 -21.534  0.00  0.00    -0.000 C 
ATOM      3  C   UNL     1      33.784 -19.057 -21.037  0.00  0.00    -0.004 C 
ATOM      4  C   UNL     1      35.442 -20.295 -19.791  0.00  0.00    -0.004 C 
ATOM      5  C   UNL     1      36.112 -18.420 -21.160  0.00  0.00    -0.000 C 
ATOM      6  C   UNL     1      36.441 -19.459 -20.288  0.00  0.00    -0.000 C 
ENDROOT
BRANCH   2   7
ATOM      7  C   UNL     1      34.442 -17.142 -22.438  0.00  0.00    +0.003 C 
ATOM      8  C   UNL     1      34.473 -15.821 -21.992  0.00  0.00    +0.037 C 
ATOM      9  C   UNL     1      34.083 -17.425 -23.755  0.00  0.00    +0.000 C 
ATOM     10  C   UNL     1      34.145 -14.783 -22.864  0.00  0.00    +0.139 C 
ATOM     11  C   UNL     1      33.754 -16.388 -24.627  0.00  0.00    +0.003 C 
ATOM     12  C   UNL     1      33.786 -15.066 -24.181  0.00  0.00    +0.037 C 
BRANCH  10  13
ATOM     13  O   UNL     1      34.175 -13.493 -22.429  0.00  0.00    -0.471 OA
ATOM     14  C   UNL     1      33.408 -12.541 -23.164  0.00  0.00    +0.252 C 
ENDBRANCH  10  13
ENDBRANCH   2   7
BRANCH   1  15
ATOM     15  C   UNL     1      33.045 -20.989 -19.633  0.00  0.00    +0.034 C 
BRANCH  15  16
ATOM     16  C   UNL     1      33.576 -22.177 -18.806  0.00  0.00    +0.064 C 
BRANCH  16  18
ATOM     17  N   UNL     1      31.473 -22.235 -17.606  0.00  0.00    -0.396 NA
ATOM     18  C   UNL     1      32.805 -22.403 -17.528  0.00  0.00    +0.110 C 
ATOM     19  C   UNL     1      33.497 -22.756 -16.391  0.00  0.00    +0.023 C 
ATOM     20  C   UNL     1      32.757 -22.958 -15.231  0.00  0.00    -0.015 C 
ATOM     21  C   UNL     1      30.788 -22.438 -16.460  0.00  0.00    +0.158 C 
ATOM     22  C   UNL     1      31.376 -22.797 -15.257  0.00  0.00    +0.100 C 
ATOM     23  N   UNL     1      29.380 -22.280 -16.471  0.00  0.00    -0.336 N 
ATOM     24  H   UNL     1      28.920 -22.025 -17.302  0.00  0.00    +0.144 HD
ATOM     25  H   UNL     1      28.862 -22.423 -15.645  0.00  0.00    +0.144 HD
ENDBRANCH  16  18
ENDBRANCH  15  16
ENDBRANCH   1  15
TORSDOF 5
ENDMDL
MODEL 2
REMARK VINA RESULT:     -12.5      4.504      8.743
REMARK  Name = 11659487
REMARK  5 active torsions:
REMARK  status: ('A' for Active; 'I' for Inactive)
REMARK    1  A    between atoms: C_1  and  C_15
REMARK    2  A    between atoms: C_2  and  C_7
REMARK    3  A    between atoms: C_10  and  O_13
REMARK    4  A    between atoms: C_15  and  C_16
REMARK    5  A    between atoms: C_16  and  C_18
REMARK                            x       y       z     vdW  Elec       q    Type
REMARK                         _______ _______ _______ _____ _____    ______ ____
ROOT
ATOM      1  C   UNL     1      34.328 -16.323 -22.247  0.00  0.00    -0.022 C 
ATOM      2  C   UNL     1      34.348 -18.655 -21.615  0.00  0.00    -0.000 C 
ATOM      3  C   UNL     1      34.397 -17.306 -21.260  0.00  0.00    -0.004 C 
ATOM      4  C   UNL     1      34.211 -16.688 -23.588  0.00  0.00    -0.004 C 
ATOM      5  C   UNL     1      34.232 -19.020 -22.955  0.00  0.00    -0.000 C 
ATOM      6  C   UNL     1      34.163 -18.037 -23.943  0.00  0.00    -0.000 C 
ENDROOT
BRANCH   2   7
ATOM      7  C   UNL     1      34.419 -19.675 -20.591  0.00  0.00    +0.003 C 
ATOM      8  C   UNL     1      33.248 -20.243 -20.091  0.00  0.00    +0.037 C 
ATOM      9  C   UNL     1      35.658 -20.091 -20.105  0.00  0.00    +0.000 C 
ATOM     10  C   UNL     1      33.316 -21.227 -19.104  0.00  0.00    +0.139 C 
ATOM     11  C   UNL     1      35.727 -21.074 -19.119  0.00  0.00    +0.003 C 
ATOM     12  C   UNL     1      34.556 -21.643 -18.618  0.00  0.00    +0.037 C 
BRANCH  10  13
ATOM     13  O   UNL     1      32.173 -21.782 -18.615  0.00  0.00    -0.471 OA
ATOM     14  C   UNL     1      32.253 -22.422 -17.343  0.00  0.00    +0.252 C 
ENDBRANCH  10  13
ENDBRANCH   2   7
BRANCH   1  15
ATOM     15  C   UNL     1      34.379 -14.881 -21.869  0.00  0.00    +0.034 C 
BRANCH  15  16
ATOM     16  C   UNL     1      33.761 -13.935 -22.918  0.00  0.00    +0.064 C 
BRANCH  16  18
ATOM     17  N   UNL     1      32.759 -11.734 -23.037  0.00  0.00    -0.396 NA
ATOM     18  C   UNL     1      32.899 -12.856 -22.309  0.00  0.00    +0.110 C 
ATOM     19  C   UNL     1      32.326 -13.083 -21.077  0.00  0.00    +0.023 C 
ATOM     20  C   UNL     1      31.537 -12.068 -20.544  0.00  0.00    -0.015 C 
ATOM     21  C   UNL     1      31.987 -10.771 -22.487  0.00  0.00    +0.158 C 
ATOM     22  C   UNL     1      31.360 -10.887 -21.256  0.00  0.00    +0.100 C 
ATOM     23  N   UNL     1      31.795  -9.561 -23.200  0.00  0.00    -0.336 N 
ATOM     24  H   UNL     1      32.221  -9.435 -24.078  0.00  0.00    +0.144 HD
ATOM     25  H   UNL     1      31.236  -8.847 -22.817  0.00  0.00    +0.144 HD
ENDBRANCH  16  18
ENDBRANCH  15  16
ENDBRANCH   1  15
TORSDOF 5
ENDMDL
MODEL 3
REMARK VINA RESULT:     -12.4      2.527      5.299
REMARK  Name = 11659487
REMARK  5 active torsions:
REMARK  status: ('A' for Active; 'I' for Inactive)
REMARK    1  A    between atoms: C_1  and  C_15
REMARK    2  A    between atoms: C_2  and  C_7
REMARK    3  A    between atoms: C_10  and  O_13
REMARK    4  A    between atoms: C_15  and  C_16
REMARK    5  A    between atoms: C_16  and  C_18
REMARK                            x       y       z     vdW  Elec       q    Type
REMARK                         _______ _______ _______ _____ _____    ______ ____
ROOT
ATOM      1  C   UNL     1      34.333 -15.858 -22.297  0.00  0.00    -0.022 C 
ATOM      2  C   UNL     1      33.143 -13.803 -22.743  0.00  0.00    -0.000 C 
ATOM      3  C   UNL     1      33.745 -14.679 -21.839  0.00  0.00    -0.004 C 
ATOM      4  C   UNL     1      34.318 -16.162 -23.658  0.00  0.00    -0.004 C 
ATOM      5  C   UNL     1      33.129 -14.106 -24.104  0.00  0.00    -0.000 C 
ATOM      6  C   UNL     1      33.716 -15.285 -24.562  0.00  0.00    -0.000 C 
ENDROOT
BRANCH   2   7
ATOM      7  C   UNL     1      32.535 -12.579 -22.268  0.00  0.00    +0.003 C 
ATOM      8  C   UNL     1      32.538 -11.440 -23.072  0.00  0.00    +0.037 C 
ATOM      9  C   UNL     1      31.943 -12.539 -21.006  0.00  0.00    +0.000 C 
ATOM     10  C   UNL     1      31.950 -10.261 -22.614  0.00  0.00    +0.139 C 
ATOM     11  C   UNL     1      31.356 -11.360 -20.547  0.00  0.00    +0.003 C 
ATOM     12  C   UNL     1      31.359 -10.221 -21.352  0.00  0.00    +0.037 C 
BRANCH  10  13
ATOM     13  O   UNL     1      31.953  -9.149 -23.400  0.00  0.00    -0.471 OA
ATOM     14  C   UNL     1      31.140  -8.055 -22.980  0.00  0.00    +0.252 C 
ENDBRANCH  10  13
ENDBRANCH   2   7
BRANCH   1  15
ATOM     15  C   UNL     1      34.976 -16.795 -21.331  0.00  0.00    +0.034 C 
BRANCH  15  16
ATOM     16  C   UNL     1      35.207 -18.213 -21.892  0.00  0.00    +0.064 C 
BRANCH  16  18
ATOM     17  N   UNL     1      33.604 -19.610 -20.734  0.00  0.00    -0.396 NA
ATOM     18  C   UNL     1      34.903 -19.304 -20.894  0.00  0.00    +0.110 C 
ATOM     19  C   UNL     1      35.950 -19.900 -20.225  0.00  0.00    +0.023 C 
ATOM     20  C   UNL     1      35.636 -20.901 -19.313  0.00  0.00    -0.015 C 
ATOM     21  C   UNL     1      33.337 -20.587 -19.839  0.00  0.00    +0.158 C 
ATOM     22  C   UNL     1      34.307 -21.257 -19.110  0.00  0.00    +0.100 C 
ATOM     23  N   UNL     1      31.988 -20.962 -19.622  0.00  0.00    -0.336 N 
ATOM     24  H   UNL     1      31.266 -20.512 -20.117  0.00  0.00    +0.144 HD
ATOM     25  H   UNL     1      31.772 -21.671 -18.974  0.00  0.00    +0.144 HD
ENDBRANCH  16  18
ENDBRANCH  15  16
ENDBRANCH   1  15
TORSDOF 5
ENDMDL
MODEL 4
REMARK VINA RESULT:     -12.3      2.407      5.024
REMARK  Name = 11659487
REMARK  5 active torsions:
REMARK  status: ('A' for Active; 'I' for Inactive)
REMARK    1  A    between atoms: C_1  and  C_15
REMARK    2  A    between atoms: C_2  and  C_7
REMARK    3  A    between atoms: C_10  and  O_13
REMARK    4  A    between atoms: C_15  and  C_16
REMARK    5  A    between atoms: C_16  and  C_18
REMARK                            x       y       z     vdW  Elec       q    Type
REMARK                         _______ _______ _______ _____ _____    ______ ____
ROOT
ATOM      1  C   UNL     1      34.386 -16.120 -22.327  0.00  0.00    -0.022 C 
ATOM      2  C   UNL     1      33.388 -14.075 -23.137  0.00  0.00    -0.000 C 
ATOM      3  C   UNL     1      33.922 -14.827 -22.090  0.00  0.00    -0.004 C 
ATOM      4  C   UNL     1      34.316 -16.663 -23.610  0.00  0.00    -0.004 C 
ATOM      5  C   UNL     1      33.319 -14.616 -24.420  0.00  0.00    -0.000 C 
ATOM      6  C   UNL     1      33.782 -15.910 -24.657  0.00  0.00    -0.000 C 
ENDROOT
BRANCH   2   7
ATOM      7  C   UNL     1      32.908 -12.732 -22.892  0.00  0.00    +0.003 C 
ATOM      8  C   UNL     1      32.064 -12.480 -21.811  0.00  0.00    +0.037 C 
ATOM      9  C   UNL     1      33.291 -11.690 -23.736  0.00  0.00    +0.000 C 
ATOM     10  C   UNL     1      31.602 -11.185 -21.575  0.00  0.00    +0.139 C 
ATOM     11  C   UNL     1      32.829 -10.395 -23.500  0.00  0.00    +0.003 C 
ATOM     12  C   UNL     1      31.984 -10.142 -22.418  0.00  0.00    +0.037 C 
BRANCH  10  13
ATOM     13  O   UNL     1      30.778 -10.938 -20.519  0.00  0.00    -0.471 OA
ATOM     14  C   UNL     1      31.098  -9.822 -19.691  0.00  0.00    +0.252 C 
ENDBRANCH  10  13
ENDBRANCH   2   7
BRANCH   1  15
ATOM     15  C   UNL     1      34.956 -16.925 -21.208  0.00  0.00    +0.034 C 
BRANCH  15  16
ATOM     16  C   UNL     1      35.459 -18.320 -21.631  0.00  0.00    +0.064 C 
BRANCH  16  18
ATOM     17  N   UNL     1      33.726 -19.678 -20.621  0.00  0.00    -0.396 NA
ATOM     18  C   UNL     1      35.044 -19.415 -20.678  0.00  0.00    +0.110 C 
ATOM     19  C   UNL     1      36.017 -20.059 -19.945  0.00  0.00    +0.023 C 
ATOM     20  C   UNL     1      35.601 -21.063 -19.077  0.00  0.00    -0.015 C 
ATOM     21  C   UNL     1      33.360 -20.658 -19.767  0.00  0.00    +0.158 C 
ATOM     22  C   UNL     1      34.250 -21.375 -18.980  0.00  0.00    +0.100 C 
ATOM     23  N   UNL     1      31.987 -20.989 -19.657  0.00  0.00    -0.336 N 
ATOM     24  H   UNL     1      31.320 -20.506 -20.196  0.00  0.00    +0.144 HD
ATOM     25  H   UNL     1      31.699 -21.701 -19.039  0.00  0.00    +0.144 HD
ENDBRANCH  16  18
ENDBRANCH  15  16
ENDBRANCH   1  15
TORSDOF 5
ENDMDL
MODEL 5
REMARK VINA RESULT:     -12.3      4.185      8.235
REMARK  Name = 11659487
REMARK  5 active torsions:
REMARK  status: ('A' for Active; 'I' for Inactive)
REMARK    1  A    between atoms: C_1  and  C_15
REMARK    2  A    between atoms: C_2  and  C_7
REMARK    3  A    between atoms: C_10  and  O_13
REMARK    4  A    between atoms: C_15  and  C_16
REMARK    5  A    between atoms: C_16  and  C_18
REMARK                            x       y       z     vdW  Elec       q    Type
REMARK                         _______ _______ _______ _____ _____    ______ ____
ROOT
ATOM      1  C   UNL     1      34.661 -18.312 -22.379  0.00  0.00    -0.022 C 
ATOM      2  C   UNL     1      34.858 -19.752 -20.449  0.00  0.00    -0.000 C 
ATOM      3  C   UNL     1      34.076 -19.167 -21.446  0.00  0.00    -0.004 C 
ATOM      4  C   UNL     1      36.028 -18.040 -22.315  0.00  0.00    -0.004 C 
ATOM      5  C   UNL     1      36.224 -19.480 -20.385  0.00  0.00    -0.000 C 
ATOM      6  C   UNL     1      36.810 -18.624 -21.318  0.00  0.00    -0.000 C 
ENDROOT
BRANCH   2   7
ATOM      7  C   UNL     1      34.252 -20.640 -19.482  0.00  0.00    +0.003 C 
ATOM      8  C   UNL     1      35.042 -21.268 -18.519  0.00  0.00    +0.037 C 
ATOM      9  C   UNL     1      32.876 -20.868 -19.511  0.00  0.00    +0.000 C 
ATOM     10  C   UNL     1      34.456 -22.124 -17.586  0.00  0.00    +0.139 C 
ATOM     11  C   UNL     1      32.290 -21.724 -18.579  0.00  0.00    +0.003 C 
ATOM     12  C   UNL     1      33.081 -22.352 -17.615  0.00  0.00    +0.037 C 
BRANCH  10  13
ATOM     13  O   UNL     1      35.227 -22.737 -16.646  0.00  0.00    -0.471 OA
ATOM     14  C   UNL     1      36.350 -22.010 -16.151  0.00  0.00    +0.252 C 
ENDBRANCH  10  13
ENDBRANCH   2   7
BRANCH   1  15
ATOM     15  C   UNL     1      33.826 -17.687 -23.445  0.00  0.00    +0.034 C 
BRANCH  15  16
ATOM     16  C   UNL     1      34.381 -16.349 -23.973  0.00  0.00    +0.064 C 
BRANCH  16  18
ATOM     17  N   UNL     1      33.543 -14.087 -23.759  0.00  0.00    -0.396 NA
ATOM     18  C   UNL     1      34.007 -15.168 -23.109  0.00  0.00    +0.110 C 
ATOM     19  C   UNL     1      34.162 -15.271 -21.744  0.00  0.00    +0.023 C 
ATOM     20  C   UNL     1      33.808 -14.166 -20.978  0.00  0.00    -0.015 C 
ATOM     21  C   UNL     1      33.210 -13.033 -22.982  0.00  0.00    +0.158 C 
ATOM     22  C   UNL     1      33.322 -13.022 -21.600  0.00  0.00    +0.100 C 
ATOM     23  N   UNL     1      32.712 -11.860 -23.601  0.00  0.00    -0.336 N 
ATOM     24  H   UNL     1      32.616 -11.823 -24.580  0.00  0.00    +0.144 HD
ATOM     25  H   UNL     1      32.464 -11.081 -23.052  0.00  0.00    +0.144 HD
ENDBRANCH  16  18
ENDBRANCH  15  16
ENDBRANCH   1  15
TORSDOF 5
ENDMDL
MODEL 6
REMARK VINA RESULT:     -12.2      4.019      5.484
REMARK  Name = 11659487
REMARK  5 active torsions:
REMARK  status: ('A' for Active; 'I' for Inactive)
REMARK    1  A    between atoms: C_1  and  C_15
REMARK    2  A    between atoms: C_2  and  C_7
REMARK    3  A    between atoms: C_10  and  O_13
REMARK    4  A    between atoms: C_15  and  C_16
REMARK    5  A    between atoms: C_16  and  C_18
REMARK                            x       y       z     vdW  Elec       q    Type
REMARK                         _______ _______ _______ _____ _____    ______ ____
ROOT
ATOM      1  C   UNL     1      35.788 -21.660 -17.376  0.00  0.00    -0.022 C 
ATOM      2  C   UNL     1      34.937 -20.608 -19.378  0.00  0.00    -0.000 C 
ATOM      3  C   UNL     1      35.971 -20.804 -18.462  0.00  0.00    -0.004 C 
ATOM      4  C   UNL     1      34.570 -22.318 -17.205  0.00  0.00    -0.004 C 
ATOM      5  C   UNL     1      33.720 -21.266 -19.208  0.00  0.00    -0.000 C 
ATOM      6  C   UNL     1      33.536 -22.122 -18.121  0.00  0.00    -0.000 C 
ENDROOT
BRANCH   2   7
ATOM      7  C   UNL     1      35.128 -19.722 -20.505  0.00  0.00    +0.003 C 
ATOM      8  C   UNL     1      34.139 -19.612 -21.482  0.00  0.00    +0.037 C 
ATOM      9  C   UNL     1      36.302 -18.976 -20.615  0.00  0.00    +0.000 C 
ATOM     10  C   UNL     1      34.324 -18.757 -22.569  0.00  0.00    +0.139 C 
ATOM     11  C   UNL     1      36.487 -18.121 -21.701  0.00  0.00    +0.003 C 
ATOM     12  C   UNL     1      35.497 -18.011 -22.678  0.00  0.00    +0.037 C 
BRANCH  10  13
ATOM     13  O   UNL     1      33.358 -18.649 -23.523  0.00  0.00    -0.471 OA
ATOM     14  C   UNL     1      33.501 -17.598 -24.476  0.00  0.00    +0.252 C 
ENDBRANCH  10  13
ENDBRANCH   2   7
BRANCH   1  15
ATOM     15  C   UNL     1      36.892 -21.870 -16.396  0.00  0.00    +0.034 C 
BRANCH  15  16
ATOM     16  C   UNL     1      36.410 -22.200 -14.969  0.00  0.00    +0.064 C 
BRANCH  16  18
ATOM     17  N   UNL     1      38.311 -23.701 -14.957  0.00  0.00    -0.396 NA
ATOM     18  C   UNL     1      37.184 -23.327 -14.327  0.00  0.00    +0.110 C 
ATOM     19  C   UNL     1      36.698 -23.886 -13.166  0.00  0.00    +0.023 C 
ATOM     20  C   UNL     1      37.434 -24.921 -12.600  0.00  0.00    -0.015 C 
ATOM     21  C   UNL     1      39.000 -24.709 -14.379  0.00  0.00    +0.158 C 
ATOM     22  C   UNL     1      38.608 -25.347 -13.211  0.00  0.00    +0.100 C 
ATOM     23  N   UNL     1      40.199 -25.154 -14.989  0.00  0.00    -0.336 N 
ATOM     24  H   UNL     1      40.515 -24.731 -15.819  0.00  0.00    +0.144 HD
ATOM     25  H   UNL     1      40.715 -25.888 -14.583  0.00  0.00    +0.144 HD
ENDBRANCH  16  18
ENDBRANCH  15  16
ENDBRANCH   1  15
TORSDOF 5
ENDMDL
MODEL 7
REMARK VINA RESULT:     -12.0      4.238      8.876
REMARK  Name = 11659487
REMARK  5 active torsions:
REMARK  status: ('A' for Active; 'I' for Inactive)
REMARK    1  A    between atoms: C_1  and  C_15
REMARK    2  A    between atoms: C_2  and  C_7
REMARK    3  A    between atoms: C_10  and  O_13
REMARK    4  A    between atoms: C_15  and  C_16
REMARK    5  A    between atoms: C_16  and  C_18
REMARK                            x       y       z     vdW  Elec       q    Type
REMARK                         _______ _______ _______ _____ _____    ______ ____
ROOT
ATOM      1  C   UNL     1      34.532 -19.790 -20.574  0.00  0.00    -0.022 C 
ATOM      2  C   UNL     1      34.487 -21.136 -18.568  0.00  0.00    -0.000 C 
ATOM      3  C   UNL     1      35.194 -20.359 -19.487  0.00  0.00    -0.004 C 
ATOM      4  C   UNL     1      33.163 -20.000 -20.744  0.00  0.00    -0.004 C 
ATOM      5  C   UNL     1      33.119 -21.346 -18.738  0.00  0.00    -0.000 C 
ATOM      6  C   UNL     1      32.457 -20.778 -19.826  0.00  0.00    -0.000 C 
ENDROOT
BRANCH   2   7
ATOM      7  C   UNL     1      35.174 -21.724 -17.439  0.00  0.00    +0.003 C 
ATOM      8  C   UNL     1      34.488 -22.567 -16.566  0.00  0.00    +0.037 C 
ATOM      9  C   UNL     1      36.525 -21.449 -17.224  0.00  0.00    +0.000 C 
ATOM     10  C   UNL     1      35.151 -23.135 -15.478  0.00  0.00    +0.139 C 
ATOM     11  C   UNL     1      37.188 -22.016 -16.136  0.00  0.00    +0.003 C 
ATOM     12  C   UNL     1      36.501 -22.860 -15.263  0.00  0.00    +0.037 C 
BRANCH  10  13
ATOM     13  O   UNL     1      34.480 -23.958 -14.625  0.00  0.00    -0.471 OA
ATOM     14  C   UNL     1      33.107 -23.661 -14.381  0.00  0.00    +0.252 C 
ENDBRANCH  10  13
ENDBRANCH   2   7
BRANCH   1  15
ATOM     15  C   UNL     1      35.286 -18.959 -21.556  0.00  0.00    +0.034 C 
BRANCH  15  16
ATOM     16  C   UNL     1      35.280 -17.451 -21.238  0.00  0.00    +0.064 C 
BRANCH  16  18
ATOM     17  N   UNL     1      34.482 -15.312 -22.049  0.00  0.00    -0.396 NA
ATOM     18  C   UNL     1      34.659 -16.615 -22.331  0.00  0.00    +0.110 C 
ATOM     19  C   UNL     1      34.320 -17.225 -23.519  0.00  0.00    +0.023 C 
ATOM     20  C   UNL     1      33.751 -16.427 -24.506  0.00  0.00    -0.015 C 
ATOM     21  C   UNL     1      33.926 -14.569 -23.030  0.00  0.00    +0.158 C 
ATOM     22  C   UNL     1      33.547 -15.073 -24.265  0.00  0.00    +0.100 C 
ATOM     23  N   UNL     1      33.713 -13.187 -22.801  0.00  0.00    -0.336 N 
ATOM     24  H   UNL     1      33.966 -12.787 -21.939  0.00  0.00    +0.144 HD
ATOM     25  H   UNL     1      33.308 -12.628 -23.504  0.00  0.00    +0.144 HD
ENDBRANCH  16  18
ENDBRANCH  15  16
ENDBRANCH   1  15
TORSDOF 5
ENDMDL
MODEL 8
REMARK VINA RESULT:     -11.9      1.942      2.628
REMARK  Name = 11659487
REMARK  5 active torsions:
REMARK  status: ('A' for Active; 'I' for Inactive)
REMARK    1  A    between atoms: C_1  and  C_15
REMARK    2  A    between atoms: C_2  and  C_7
REMARK    3  A    between atoms: C_10  and  O_13
REMARK    4  A    between atoms: C_15  and  C_16
REMARK    5  A    between atoms: C_16  and  C_18
REMARK                            x       y       z     vdW  Elec       q    Type
REMARK                         _______ _______ _______ _____ _____    ______ ____
ROOT
ATOM      1  C   UNL     1      34.654 -19.369 -20.596  0.00  0.00    -0.022 C 
ATOM      2  C   UNL     1      34.930 -17.290 -21.796  0.00  0.00    -0.000 C 
ATOM      3  C   UNL     1      34.112 -18.195 -21.118  0.00  0.00    -0.004 C 
ATOM      4  C   UNL     1      36.014 -19.640 -20.753  0.00  0.00    -0.004 C 
ATOM      5  C   UNL     1      36.289 -17.560 -21.952  0.00  0.00    -0.000 C 
ATOM      6  C   UNL     1      36.831 -18.735 -21.431  0.00  0.00    -0.000 C 
ENDROOT
BRANCH   2   7
ATOM      7  C   UNL     1      34.368 -16.071 -22.335  0.00  0.00    +0.003 C 
ATOM      8  C   UNL     1      34.056 -15.987 -23.692  0.00  0.00    +0.037 C 
ATOM      9  C   UNL     1      34.138 -14.979 -21.499  0.00  0.00    +0.000 C 
ATOM     10  C   UNL     1      33.514 -14.812 -24.212  0.00  0.00    +0.139 C 
ATOM     11  C   UNL     1      33.596 -13.804 -22.018  0.00  0.00    +0.003 C 
ATOM     12  C   UNL     1      33.283 -13.720 -23.375  0.00  0.00    +0.037 C 
BRANCH  10  13
ATOM     13  O   UNL     1      33.208 -14.730 -25.536  0.00  0.00    -0.471 OA
ATOM     14  C   UNL     1      32.819 -13.452 -26.036  0.00  0.00    +0.252 C 
ENDBRANCH  10  13
ENDBRANCH   2   7
BRANCH   1  15
ATOM     15  C   UNL     1      33.780 -20.337 -19.872  0.00  0.00    +0.034 C 
BRANCH  15  16
ATOM     16  C   UNL     1      34.457 -21.690 -19.571  0.00  0.00    +0.064 C 
BRANCH  16  18
ATOM     17  N   UNL     1      34.029 -22.423 -17.303  0.00  0.00    -0.396 NA
ATOM     18  C   UNL     1      34.901 -21.825 -18.134  0.00  0.00    +0.110 C 
ATOM     19  C   UNL     1      36.138 -21.338 -17.775  0.00  0.00    +0.023 C 
ATOM     20  C   UNL     1      36.517 -21.479 -16.444  0.00  0.00    -0.015 C 
ATOM     21  C   UNL     1      34.431 -22.541 -16.018  0.00  0.00    +0.158 C 
ATOM     22  C   UNL     1      35.653 -22.091 -15.543  0.00  0.00    +0.100 C 
ATOM     23  N   UNL     1      33.562 -23.163 -15.087  0.00  0.00    -0.336 N 
ATOM     24  H   UNL     1      32.685 -23.498 -15.381  0.00  0.00    +0.144 HD
ATOM     25  H   UNL     1      33.837 -23.259 -14.146  0.00  0.00    +0.144 HD
ENDBRANCH  16  18
ENDBRANCH  15  16
ENDBRANCH   1  15
TORSDOF 5
ENDMDL
MODEL 9
REMARK VINA RESULT:     -11.9      4.830      9.311
REMARK  Name = 11659487
REMARK  5 active torsions:
REMARK  status: ('A' for Active; 'I' for Inactive)
REMARK    1  A    between atoms: C_1  and  C_15
REMARK    2  A    between atoms: C_2  and  C_7
REMARK    3  A    between atoms: C_10  and  O_13
REMARK    4  A    between atoms: C_15  and  C_16
REMARK    5  A    between atoms: C_16  and  C_18
REMARK                            x       y       z     vdW  Elec       q    Type
REMARK                         _______ _______ _______ _____ _____    ______ ____
ROOT
ATOM      1  C   UNL     1      34.001 -14.792 -22.707  0.00  0.00    -0.022 C 
ATOM      2  C   UNL     1      34.446 -17.141 -22.359  0.00  0.00    -0.000 C 
ATOM      3  C   UNL     1      34.339 -15.844 -21.856  0.00  0.00    -0.004 C 
ATOM      4  C   UNL     1      33.773 -15.036 -24.061  0.00  0.00    -0.004 C 
ATOM      5  C   UNL     1      34.218 -17.385 -23.713  0.00  0.00    -0.000 C 
ATOM      6  C   UNL     1      33.881 -16.333 -24.564  0.00  0.00    -0.000 C 
ENDROOT
BRANCH   2   7
ATOM      7  C   UNL     1      34.795 -18.233 -21.476  0.00  0.00    +0.003 C 
ATOM      8  C   UNL     1      33.806 -19.103 -21.018  0.00  0.00    +0.037 C 
ATOM      9  C   UNL     1      36.121 -18.417 -21.085  0.00  0.00    +0.000 C 
ATOM     10  C   UNL     1      34.143 -20.156 -20.167  0.00  0.00    +0.139 C 
ATOM     11  C   UNL     1      36.458 -19.469 -20.234  0.00  0.00    +0.003 C 
ATOM     12  C   UNL     1      35.469 -20.339 -19.775  0.00  0.00    +0.037 C 
BRANCH  10  13
ATOM     13  O   UNL     1      33.177 -21.005 -19.719  0.00  0.00    -0.471 OA
ATOM     14  C   UNL     1      33.611 -22.188 -19.052  0.00  0.00    +0.252 C 
ENDBRANCH  10  13
ENDBRANCH   2   7
BRANCH   1  15
ATOM     15  C   UNL     1      33.886 -13.405 -22.170  0.00  0.00    +0.034 C 
BRANCH  15  16
ATOM     16  C   UNL     1      33.419 -12.367 -23.209  0.00  0.00    +0.064 C 
BRANCH  16  18
ATOM     17  N   UNL     1      32.385 -10.177 -23.253  0.00  0.00    -0.396 NA
ATOM     18  C   UNL     1      32.417 -11.382 -22.657  0.00  0.00    +0.110 C 
ATOM     19  C   UNL     1      31.620 -11.770 -21.603  0.00  0.00    +0.023 C 
ATOM     20  C   UNL     1      30.707 -10.839 -21.118  0.00  0.00    -0.015 C 
ATOM     21  C   UNL     1      31.487  -9.300 -22.755  0.00  0.00    +0.158 C 
ATOM     22  C   UNL     1      30.633  -9.579 -21.699  0.00  0.00    +0.100 C 
ATOM     23  N   UNL     1      31.398  -8.011 -23.337  0.00  0.00    -0.336 N 
ATOM     24  H   UNL     1      31.985  -7.769 -24.089  0.00  0.00    +0.144 HD
ATOM     25  H   UNL     1      30.750  -7.356 -22.988  0.00  0.00    +0.144 HD
ENDBRANCH  16  18
ENDBRANCH  15  16
ENDBRANCH   1  15
TORSDOF 5
ENDMDL
