MODEL 1
REMARK VINA RESULT:     -12.8      0.000      0.000
REMARK  Name = 5287492
REMARK  6 active torsions:
REMARK  status: ('A' for Active; 'I' for Inactive)
REMARK    1  A    between atoms: N_2  and  C_12
REMARK    2  A    between atoms: C_8  and  C_24
REMARK    3  A    between atoms: C_12  and  C_15
REMARK    4  A    between atoms: C_15  and  C_17
REMARK    5  A    between atoms: C_24  and  C_25
REMARK    6  A    between atoms: C_26  and  N_31
REMARK                            x       y       z     vdW  Elec       q    Type
REMARK                         _______ _______ _______ _____ _____    ______ ____
ROOT
ATOM      1  O   UNL     1      34.814 -22.835 -15.939  0.00  0.00    -0.446 OA
ATOM      2  N   UNL     1      35.189 -20.244 -19.783  0.00  0.00    -0.312 N 
ATOM      3  N   UNL     1      33.078 -21.244 -19.258  0.00  0.00    -0.227 NA
ATOM      4  N   UNL     1      36.172 -21.571 -17.242  0.00  0.00    -0.369 NA
ATOM      5  C   UNL     1      34.396 -21.024 -18.956  0.00  0.00    +0.158 C 
ATOM      6  C   UNL     1      34.914 -21.612 -17.792  0.00  0.00    +0.187 C 
ATOM      7  C   UNL     1      34.080 -22.384 -16.998  0.00  0.00    +0.246 C 
ATOM      8  C   UNL     1      36.051 -22.306 -16.158  0.00  0.00    +0.257 C 
ATOM      9  C   UNL     1      32.746 -22.628 -17.269  0.00  0.00    +0.045 C 
ATOM     10  C   UNL     1      32.315 -22.011 -18.436  0.00  0.00    +0.100 C 
ATOM     11  H   UNL     1      36.131 -20.112 -19.531  0.00  0.00    +0.148 HD
ENDROOT
BRANCH   2  12
ATOM     12  C   UNL     1      34.710 -19.617 -20.992  0.00  0.00    +0.153 C 
BRANCH  12  15
ATOM     13  F   UNL     1      36.839 -18.643 -21.245  0.00  0.00    -0.205 F 
ATOM     14  F   UNL     1      35.283 -17.438 -20.306  0.00  0.00    -0.205 F 
ATOM     15  C   UNL     1      35.515 -18.363 -21.266  0.00  0.00    +0.265 C 
BRANCH  15  17
ATOM     16  N   UNL     1      34.923 -16.308 -22.441  0.00  0.00    +0.389 N 
ATOM     17  C   UNL     1      35.179 -17.742 -22.620  0.00  0.00    +0.003 C 
ATOM     18  C   UNL     1      33.960 -18.438 -23.243  0.00  0.00    -0.016 C 
ATOM     19  C   UNL     1      33.561 -17.779 -24.560  0.00  0.00    -0.004 C 
ATOM     20  C   UNL     1      33.384 -16.277 -24.375  0.00  0.00    -0.023 C 
ATOM     21  C   UNL     1      34.609 -15.653 -23.711  0.00  0.00    -0.081 C 
ATOM     22  H   UNL     1      35.753 -15.871 -22.040  0.00  0.00    -0.084 HD
ATOM     23  H   UNL     1      34.120 -16.202 -21.822  0.00  0.00    -0.084 HD
ENDBRANCH  15  17
ENDBRANCH  12  15
ENDBRANCH   2  12
BRANCH   8  24
ATOM     24  C   UNL     1      37.075 -22.631 -15.155  0.00  0.00    +0.127 C 
BRANCH  24  25
ATOM     25  C   UNL     1      36.519 -23.224 -13.865  0.00  0.00    +0.004 C 
ATOM     26  C   UNL     1      37.176 -24.262 -13.238  0.00  0.00    +0.072 C 
ATOM     27  C   UNL     1      35.351 -22.684 -13.365  0.00  0.00    -0.002 C 
ATOM     28  C   UNL     1      36.643 -24.783 -12.058  0.00  0.00    +0.016 C 
ATOM     29  C   UNL     1      34.818 -23.206 -12.186  0.00  0.00    -0.000 C 
ATOM     30  C   UNL     1      35.464 -24.255 -11.533  0.00  0.00    +0.001 C 
BRANCH  26  31
ATOM     31  N   UNL     1      38.347 -24.801 -13.742  0.00  0.00    -0.169 N 
ATOM     32  N   UNL     1      39.536 -24.192 -13.586  0.00  0.00    -0.150 NA
ATOM     33  N   UNL     1      39.748 -26.150 -14.750  0.00  0.00    -0.203 NA
ATOM     34  C   UNL     1      38.487 -25.966 -14.437  0.00  0.00    +0.190 C 
ATOM     35  C   UNL     1      40.348 -25.047 -14.213  0.00  0.00    +0.219 C 
ENDBRANCH  26  31
ENDBRANCH  24  25
ENDBRANCH   8  24
TORSDOF 6
ENDMDL
MODEL 2
REMARK VINA RESULT:     -12.7      1.318      2.517
REMARK  Name = 5287492
REMARK  6 active torsions:
REMARK  status: ('A' for Active; 'I' for Inactive)
REMARK    1  A    between atoms: N_2  and  C_12
REMARK    2  A    between atoms: C_8  and  C_24
REMARK    3  A    between atoms: C_12  and  C_15
REMARK    4  A    between atoms: C_15  and  C_17
REMARK    5  A    between atoms: C_24  and  C_25
REMARK    6  A    between atoms: C_26  and  N_31
REMARK                            x       y       z     vdW  Elec       q    Type
REMARK                         _______ _______ _______ _____ _____    ______ ____
ROOT
ATOM      1  O   UNL     1      34.869 -22.668 -15.530  0.00  0.00    -0.446 OA
ATOM      2  N   UNL     1      35.488 -20.407 -19.546  0.00  0.00    -0.312 N 
ATOM      3  N   UNL     1      33.487 -21.681 -19.228  0.00  0.00    -0.227 NA
ATOM      4  N   UNL     1      36.224 -21.325 -16.754  0.00  0.00    -0.369 NA
ATOM      5  C   UNL     1      34.692 -21.226 -18.762  0.00  0.00    +0.158 C 
ATOM      6  C   UNL     1      35.092 -21.616 -17.475  0.00  0.00    +0.187 C 
ATOM      7  C   UNL     1      34.261 -22.437 -16.730  0.00  0.00    +0.246 C 
ATOM      8  C   UNL     1      36.036 -21.970 -15.623  0.00  0.00    +0.257 C 
ATOM      9  C   UNL     1      33.038 -22.916 -17.164  0.00  0.00    +0.045 C 
ATOM     10  C   UNL     1      32.719 -22.484 -18.445  0.00  0.00    +0.100 C 
ATOM     11  H   UNL     1      36.348 -20.103 -19.175  0.00  0.00    +0.148 HD
ENDROOT
BRANCH   2  12
ATOM     12  C   UNL     1      35.127 -19.976 -20.876  0.00  0.00    +0.153 C 
BRANCH  12  15
ATOM     13  F   UNL     1      37.037 -18.611 -21.058  0.00  0.00    -0.205 F 
ATOM     14  F   UNL     1      35.246 -17.727 -20.184  0.00  0.00    -0.205 F 
ATOM     15  C   UNL     1      35.686 -18.591 -21.129  0.00  0.00    +0.265 C 
BRANCH  15  17
ATOM     16  N   UNL     1      35.023 -16.605 -22.385  0.00  0.00    +0.389 N 
ATOM     17  C   UNL     1      35.287 -18.045 -22.499  0.00  0.00    +0.003 C 
ATOM     18  C   UNL     1      34.051 -18.784 -23.032  0.00  0.00    -0.016 C 
ATOM     19  C   UNL     1      33.590 -18.199 -24.364  0.00  0.00    -0.004 C 
ATOM     20  C   UNL     1      33.404 -16.691 -24.251  0.00  0.00    -0.023 C 
ATOM     21  C   UNL     1      34.649 -16.022 -23.673  0.00  0.00    -0.081 C 
ATOM     22  H   UNL     1      35.864 -16.141 -22.043  0.00  0.00    -0.084 HD
ATOM     23  H   UNL     1      34.245 -16.474 -21.739  0.00  0.00    -0.084 HD
ENDBRANCH  15  17
ENDBRANCH  12  15
ENDBRANCH   2  12
BRANCH   8  24
ATOM     24  C   UNL     1      36.919 -22.034 -14.450  0.00  0.00    +0.127 C 
BRANCH  24  25
ATOM     25  C   UNL     1      37.707 -23.335 -14.333  0.00  0.00    +0.004 C 
ATOM     26  C   UNL     1      37.472 -24.198 -13.283  0.00  0.00    +0.072 C 
ATOM     27  C   UNL     1      38.648 -23.601 -15.307  0.00  0.00    -0.002 C 
ATOM     28  C   UNL     1      38.208 -25.381 -13.204  0.00  0.00    +0.016 C 
ATOM     29  C   UNL     1      39.385 -24.784 -15.228  0.00  0.00    -0.000 C 
ATOM     30  C   UNL     1      39.165 -25.673 -14.176  0.00  0.00    +0.001 C 
BRANCH  26  31
ATOM     31  N   UNL     1      36.527 -23.928 -12.308  0.00  0.00    -0.169 N 
ATOM     32  N   UNL     1      36.866 -23.409 -11.115  0.00  0.00    -0.150 NA
ATOM     33  N   UNL     1      34.609 -23.752 -11.265  0.00  0.00    -0.203 NA
ATOM     34  C   UNL     1      35.181 -24.128 -12.385  0.00  0.00    +0.190 C 
ATOM     35  C   UNL     1      35.672 -23.323 -10.523  0.00  0.00    +0.219 C 
ENDBRANCH  26  31
ENDBRANCH  24  25
ENDBRANCH   8  24
TORSDOF 6
ENDMDL
MODEL 3
REMARK VINA RESULT:     -12.0      2.092      3.374
REMARK  Name = 5287492
REMARK  6 active torsions:
REMARK  status: ('A' for Active; 'I' for Inactive)
REMARK    1  A    between atoms: N_2  and  C_12
REMARK    2  A    between atoms: C_8  and  C_24
REMARK    3  A    between atoms: C_12  and  C_15
REMARK    4  A    between atoms: C_15  and  C_17
REMARK    5  A    between atoms: C_24  and  C_25
REMARK    6  A    between atoms: C_26  and  N_31
REMARK                            x       y       z     vdW  Elec       q    Type
REMARK                         _______ _______ _______ _____ _____    ______ ____
ROOT
ATOM      1  O   UNL     1      34.597 -22.817 -14.090  0.00  0.00    -0.446 OA
ATOM      2  N   UNL     1      34.010 -21.978 -18.626  0.00  0.00    -0.312 N 
ATOM      3  N   UNL     1      32.137 -22.712 -17.330  0.00  0.00    -0.227 NA
ATOM      4  N   UNL     1      35.565 -22.163 -16.032  0.00  0.00    -0.369 NA
ATOM      5  C   UNL     1      33.461 -22.372 -17.417  0.00  0.00    +0.158 C 
ATOM      6  C   UNL     1      34.238 -22.437 -16.250  0.00  0.00    +0.187 C 
ATOM      7  C   UNL     1      33.641 -22.838 -15.065  0.00  0.00    +0.246 C 
ATOM      8  C   UNL     1      35.716 -22.404 -14.749  0.00  0.00    +0.257 C 
ATOM      9  C   UNL     1      32.310 -23.188 -14.937  0.00  0.00    +0.045 C 
ATOM     10  C   UNL     1      31.614 -23.096 -16.135  0.00  0.00    +0.100 C 
ATOM     11  H   UNL     1      34.966 -21.743 -18.647  0.00  0.00    +0.148 HD
ENDROOT
BRANCH   2  12
ATOM     12  C   UNL     1      33.259 -21.893 -19.857  0.00  0.00    +0.153 C 
BRANCH  12  15
ATOM     13  F   UNL     1      32.951 -19.678 -19.123  0.00  0.00    -0.205 F 
ATOM     14  F   UNL     1      31.929 -20.286 -20.950  0.00  0.00    -0.205 F 
ATOM     15  C   UNL     1      33.068 -20.439 -20.235  0.00  0.00    +0.265 C 
BRANCH  15  17
ATOM     16  N   UNL     1      35.159 -19.180 -20.183  0.00  0.00    +0.389 N 
ATOM     17  C   UNL     1      34.231 -19.899 -21.066  0.00  0.00    +0.003 C 
ATOM     18  C   UNL     1      33.714 -18.975 -22.178  0.00  0.00    -0.016 C 
ATOM     19  C   UNL     1      34.866 -18.363 -22.968  0.00  0.00    -0.004 C 
ATOM     20  C   UNL     1      35.864 -17.696 -22.029  0.00  0.00    -0.023 C 
ATOM     21  C   UNL     1      36.305 -18.650 -20.921  0.00  0.00    -0.081 C 
ATOM     22  H   UNL     1      35.495 -19.822 -19.465  0.00  0.00    -0.084 HD
ATOM     23  H   UNL     1      34.658 -18.395 -19.766  0.00  0.00    -0.084 HD
ENDBRANCH  15  17
ENDBRANCH  12  15
ENDBRANCH   2  12
BRANCH   8  24
ATOM     24  C   UNL     1      36.935 -22.286 -13.934  0.00  0.00    +0.127 C 
BRANCH  24  25
ATOM     25  C   UNL     1      37.810 -23.534 -13.937  0.00  0.00    +0.004 C 
ATOM     26  C   UNL     1      37.724 -24.447 -12.906  0.00  0.00    +0.072 C 
ATOM     27  C   UNL     1      38.676 -23.705 -14.998  0.00  0.00    -0.002 C 
ATOM     28  C   UNL     1      38.538 -25.579 -12.937  0.00  0.00    +0.016 C 
ATOM     29  C   UNL     1      39.491 -24.837 -15.029  0.00  0.00    -0.000 C 
ATOM     30  C   UNL     1      39.421 -25.774 -13.998  0.00  0.00    +0.001 C 
BRANCH  26  31
ATOM     31  N   UNL     1      36.854 -24.272 -11.842  0.00  0.00    -0.169 N 
ATOM     32  N   UNL     1      37.088 -23.371 -10.872  0.00  0.00    -0.150 NA
ATOM     33  N   UNL     1      35.135 -24.505 -10.505  0.00  0.00    -0.203 NA
ATOM     34  C   UNL     1      35.689 -24.941 -11.612  0.00  0.00    +0.190 C 
ATOM     35  C   UNL     1      36.021 -23.552 -10.090  0.00  0.00    +0.219 C 
ENDBRANCH  26  31
ENDBRANCH  24  25
ENDBRANCH   8  24
TORSDOF 6
ENDMDL
MODEL 4
REMARK VINA RESULT:     -11.9      9.328     16.522
REMARK  Name = 5287492
REMARK  6 active torsions:
REMARK  status: ('A' for Active; 'I' for Inactive)
REMARK    1  A    between atoms: N_2  and  C_12
REMARK    2  A    between atoms: C_8  and  C_24
REMARK    3  A    between atoms: C_12  and  C_15
REMARK    4  A    between atoms: C_15  and  C_17
REMARK    5  A    between atoms: C_24  and  C_25
REMARK    6  A    between atoms: C_26  and  N_31
REMARK                            x       y       z     vdW  Elec       q    Type
REMARK                         _______ _______ _______ _____ _____    ______ ____
ROOT
ATOM      1  O   UNL     1      32.225  -7.066 -21.840  0.00  0.00    -0.446 OA
ATOM      2  N   UNL     1      32.909 -11.339 -23.543  0.00  0.00    -0.312 N 
ATOM      3  N   UNL     1      31.304 -11.029 -21.795  0.00  0.00    -0.227 NA
ATOM      4  N   UNL     1      33.361  -8.350 -23.323  0.00  0.00    -0.369 NA
ATOM      5  C   UNL     1      32.239 -10.514 -22.653  0.00  0.00    +0.158 C 
ATOM      6  C   UNL     1      32.496  -9.136 -22.602  0.00  0.00    +0.187 C 
ATOM      7  C   UNL     1      31.799  -8.355 -21.693  0.00  0.00    +0.246 C 
ATOM      8  C   UNL     1      33.156  -7.148 -22.832  0.00  0.00    +0.257 C 
ATOM      9  C   UNL     1      30.849  -8.836 -20.812  0.00  0.00    +0.045 C 
ATOM     10  C   UNL     1      30.656 -10.207 -20.929  0.00  0.00    +0.100 C 
ATOM     11  H   UNL     1      33.575 -10.930 -24.143  0.00  0.00    +0.148 HD
ENDROOT
BRANCH   2  12
ATOM     12  C   UNL     1      32.686 -12.762 -23.640  0.00  0.00    +0.153 C 
BRANCH  12  15
ATOM     13  F   UNL     1      32.489 -13.811 -21.541  0.00  0.00    -0.205 F 
ATOM     14  F   UNL     1      34.286 -12.635 -21.916  0.00  0.00    -0.205 F 
ATOM     15  C   UNL     1      33.385 -13.463 -22.493  0.00  0.00    +0.265 C 
BRANCH  15  17
ATOM     16  N   UNL     1      33.316 -15.404 -23.972  0.00  0.00    +0.389 N 
ATOM     17  C   UNL     1      34.117 -14.726 -22.946  0.00  0.00    +0.003 C 
ATOM     18  C   UNL     1      34.372 -15.657 -21.751  0.00  0.00    -0.016 C 
ATOM     19  C   UNL     1      35.031 -16.959 -22.197  0.00  0.00    -0.004 C 
ATOM     20  C   UNL     1      34.232 -17.605 -23.322  0.00  0.00    -0.023 C 
ATOM     21  C   UNL     1      33.975 -16.617 -24.457  0.00  0.00    -0.081 C 
ATOM     22  H   UNL     1      33.176 -14.767 -24.757  0.00  0.00    -0.084 HD
ATOM     23  H   UNL     1      32.424 -15.671 -23.555  0.00  0.00    -0.084 HD
ENDBRANCH  15  17
ENDBRANCH  12  15
ENDBRANCH   2  12
BRANCH   8  24
ATOM     24  C   UNL     1      33.802  -5.883 -23.213  0.00  0.00    +0.127 C 
BRANCH  24  25
ATOM     25  C   UNL     1      33.516  -5.443 -24.645  0.00  0.00    +0.004 C 
ATOM     26  C   UNL     1      32.428  -4.642 -24.922  0.00  0.00    +0.072 C 
ATOM     27  C   UNL     1      34.379  -5.877 -25.631  0.00  0.00    -0.002 C 
ATOM     28  C   UNL     1      32.193  -4.256 -26.242  0.00  0.00    +0.016 C 
ATOM     29  C   UNL     1      34.144  -5.491 -26.951  0.00  0.00    -0.000 C 
ATOM     30  C   UNL     1      33.051  -4.681 -27.256  0.00  0.00    +0.001 C 
BRANCH  26  31
ATOM     31  N   UNL     1      31.563  -4.209 -23.930  0.00  0.00    -0.169 N 
ATOM     32  N   UNL     1      31.783  -3.077 -23.240  0.00  0.00    -0.150 NA
ATOM     33  N   UNL     1      29.862  -4.114 -22.554  0.00  0.00    -0.203 NA
ATOM     34  C   UNL     1      30.417  -4.818 -23.513  0.00  0.00    +0.190 C 
ATOM     35  C   UNL     1      30.728  -3.065 -22.422  0.00  0.00    +0.219 C 
ENDBRANCH  26  31
ENDBRANCH  24  25
ENDBRANCH   8  24
TORSDOF 6
ENDMDL
MODEL 5
REMARK VINA RESULT:     -11.9      7.421     11.478
REMARK  Name = 5287492
REMARK  6 active torsions:
REMARK  status: ('A' for Active; 'I' for Inactive)
REMARK    1  A    between atoms: N_2  and  C_12
REMARK    2  A    between atoms: C_8  and  C_24
REMARK    3  A    between atoms: C_12  and  C_15
REMARK    4  A    between atoms: C_15  and  C_17
REMARK    5  A    between atoms: C_24  and  C_25
REMARK    6  A    between atoms: C_26  and  N_31
REMARK                            x       y       z     vdW  Elec       q    Type
REMARK                         _______ _______ _______ _____ _____    ______ ____
ROOT
ATOM      1  O   UNL     1      33.384 -14.440 -21.631  0.00  0.00    -0.446 OA
ATOM      2  N   UNL     1      32.494 -10.237 -23.411  0.00  0.00    -0.312 N 
ATOM      3  N   UNL     1      31.518 -10.838 -21.310  0.00  0.00    -0.227 NA
ATOM      4  N   UNL     1      33.738 -12.999 -23.345  0.00  0.00    -0.369 NA
ATOM      5  C   UNL     1      32.306 -11.150 -22.386  0.00  0.00    +0.158 C 
ATOM      6  C   UNL     1      32.912 -12.415 -22.416  0.00  0.00    +0.187 C 
ATOM      7  C   UNL     1      32.692 -13.293 -21.366  0.00  0.00    +0.246 C 
ATOM      8  C   UNL     1      33.981 -14.184 -22.829  0.00  0.00    +0.257 C 
ATOM      9  C   UNL     1      31.904 -13.015 -20.265  0.00  0.00    +0.045 C 
ATOM     10  C   UNL     1      31.344 -11.746 -20.313  0.00  0.00    +0.100 C 
ATOM     11  H   UNL     1      33.067 -10.500 -24.167  0.00  0.00    +0.148 HD
ENDROOT
BRANCH   2  12
ATOM     12  C   UNL     1      31.896  -8.923 -23.433  0.00  0.00    +0.153 C 
BRANCH  12  15
ATOM     13  F   UNL     1      32.978  -7.085 -24.430  0.00  0.00    -0.205 F 
ATOM     14  F   UNL     1      34.198  -8.457 -23.253  0.00  0.00    -0.205 F 
ATOM     15  C   UNL     1      32.981  -7.870 -23.328  0.00  0.00    +0.265 C 
BRANCH  15  17
ATOM     16  N   UNL     1      31.939  -7.657 -21.130  0.00  0.00    +0.389 N 
ATOM     17  C   UNL     1      32.804  -6.976 -22.102  0.00  0.00    +0.003 C 
ATOM     18  C   UNL     1      32.206  -5.621 -22.506  0.00  0.00    -0.016 C 
ATOM     19  C   UNL     1      31.948  -4.744 -21.285  0.00  0.00    -0.004 C 
ATOM     20  C   UNL     1      31.122  -5.498 -20.250  0.00  0.00    -0.023 C 
ATOM     21  C   UNL     1      31.744  -6.853 -19.924  0.00  0.00    -0.081 C 
ATOM     22  H   UNL     1      32.369  -8.545 -20.871  0.00  0.00    -0.084 HD
ATOM     23  H   UNL     1      31.028  -7.805 -21.564  0.00  0.00    -0.084 HD
ENDBRANCH  15  17
ENDBRANCH  12  15
ENDBRANCH   2  12
BRANCH   8  24
ATOM     24  C   UNL     1      34.811 -15.267 -23.377  0.00  0.00    +0.127 C 
BRANCH  24  25
ATOM     25  C   UNL     1      34.020 -16.483 -23.847  0.00  0.00    +0.004 C 
ATOM     26  C   UNL     1      34.239 -17.718 -23.273  0.00  0.00    +0.072 C 
ATOM     27  C   UNL     1      33.094 -16.293 -24.852  0.00  0.00    -0.002 C 
ATOM     28  C   UNL     1      33.499 -18.812 -23.724  0.00  0.00    +0.016 C 
ATOM     29  C   UNL     1      32.354 -17.387 -25.303  0.00  0.00    -0.000 C 
ATOM     30  C   UNL     1      32.557 -18.646 -24.739  0.00  0.00    +0.001 C 
BRANCH  26  31
ATOM     31  N   UNL     1      35.169 -17.906 -22.265  0.00  0.00    -0.169 N 
ATOM     32  N   UNL     1      36.415 -18.342 -22.519  0.00  0.00    -0.150 NA
ATOM     33  N   UNL     1      36.097 -17.979 -20.283  0.00  0.00    -0.203 NA
ATOM     34  C   UNL     1      34.992 -17.693 -20.930  0.00  0.00    +0.190 C 
ATOM     35  C   UNL     1      36.934 -18.369 -21.289  0.00  0.00    +0.219 C 
ENDBRANCH  26  31
ENDBRANCH  24  25
ENDBRANCH   8  24
TORSDOF 6
ENDMDL
MODEL 6
REMARK VINA RESULT:     -11.8      9.578     16.269
REMARK  Name = 5287492
REMARK  6 active torsions:
REMARK  status: ('A' for Active; 'I' for Inactive)
REMARK    1  A    between atoms: N_2  and  C_12
REMARK    2  A    between atoms: C_8  and  C_24
REMARK    3  A    between atoms: C_12  and  C_15
REMARK    4  A    between atoms: C_15  and  C_17
REMARK    5  A    between atoms: C_24  and  C_25
REMARK    6  A    between atoms: C_26  and  N_31
REMARK                            x       y       z     vdW  Elec       q    Type
REMARK                         _______ _______ _______ _____ _____    ______ ____
ROOT
ATOM      1  O   UNL     1      30.911  -7.429 -21.768  0.00  0.00    -0.446 OA
ATOM      2  N   UNL     1      31.887 -11.932 -22.396  0.00  0.00    -0.312 N 
ATOM      3  N   UNL     1      31.634 -11.100 -20.167  0.00  0.00    -0.227 NA
ATOM      4  N   UNL     1      31.314  -9.085 -23.262  0.00  0.00    -0.369 NA
ATOM      5  C   UNL     1      31.635 -10.889 -21.520  0.00  0.00    +0.158 C 
ATOM      6  C   UNL     1      31.377  -9.591 -21.987  0.00  0.00    +0.187 C 
ATOM      7  C   UNL     1      31.132  -8.581 -21.070  0.00  0.00    +0.246 C 
ATOM      8  C   UNL     1      31.038  -7.814 -23.069  0.00  0.00    +0.257 C 
ATOM      9  C   UNL     1      31.121  -8.754 -19.698  0.00  0.00    +0.045 C 
ATOM     10  C   UNL     1      31.385 -10.065 -19.322  0.00  0.00    +0.100 C 
ATOM     11  H   UNL     1      31.880 -11.739 -23.362  0.00  0.00    +0.148 HD
ENDROOT
BRANCH   2  12
ATOM     12  C   UNL     1      32.160 -13.286 -21.973  0.00  0.00    +0.153 C 
BRANCH  12  15
ATOM     13  F   UNL     1      34.006 -13.776 -20.597  0.00  0.00    -0.205 F 
ATOM     14  F   UNL     1      34.312 -12.365 -22.231  0.00  0.00    -0.205 F 
ATOM     15  C   UNL     1      33.657 -13.494 -21.874  0.00  0.00    +0.265 C 
BRANCH  15  17
ATOM     16  N   UNL     1      33.161 -14.863 -23.833  0.00  0.00    +0.389 N 
ATOM     17  C   UNL     1      34.144 -14.633 -22.767  0.00  0.00    +0.003 C 
ATOM     18  C   UNL     1      34.358 -15.910 -21.941  0.00  0.00    -0.016 C 
ATOM     19  C   UNL     1      34.769 -17.080 -22.829  0.00  0.00    -0.004 C 
ATOM     20  C   UNL     1      33.784 -17.250 -23.980  0.00  0.00    -0.023 C 
ATOM     21  C   UNL     1      33.581 -15.937 -24.732  0.00  0.00    -0.081 C 
ATOM     22  H   UNL     1      33.051 -14.004 -24.372  0.00  0.00    -0.084 HD
ATOM     23  H   UNL     1      32.279 -15.138 -23.399  0.00  0.00    -0.084 HD
ENDBRANCH  15  17
ENDBRANCH  12  15
ENDBRANCH   2  12
BRANCH   8  24
ATOM     24  C   UNL     1      30.849  -6.757 -24.074  0.00  0.00    +0.127 C 
BRANCH  24  25
ATOM     25  C   UNL     1      32.129  -6.019 -24.450  0.00  0.00    +0.004 C 
ATOM     26  C   UNL     1      32.331  -4.721 -24.030  0.00  0.00    +0.072 C 
ATOM     27  C   UNL     1      33.055  -6.696 -25.217  0.00  0.00    -0.002 C 
ATOM     28  C   UNL     1      33.513  -4.072 -24.390  0.00  0.00    +0.016 C 
ATOM     29  C   UNL     1      34.236  -6.047 -25.577  0.00  0.00    -0.000 C 
ATOM     30  C   UNL     1      34.465  -4.735 -25.164  0.00  0.00    +0.001 C 
BRANCH  26  31
ATOM     31  N   UNL     1      31.399  -4.044 -23.261  0.00  0.00    -0.169 N 
ATOM     32  N   UNL     1      31.290  -4.243 -21.936  0.00  0.00    -0.150 NA
ATOM     33  N   UNL     1      29.777  -2.694 -22.675  0.00  0.00    -0.203 NA
ATOM     34  C   UNL     1      30.493  -3.119 -23.689  0.00  0.00    +0.190 C 
ATOM     35  C   UNL     1      30.297  -3.405 -21.631  0.00  0.00    +0.219 C 
ENDBRANCH  26  31
ENDBRANCH  24  25
ENDBRANCH   8  24
TORSDOF 6
ENDMDL
MODEL 7
REMARK VINA RESULT:     -11.6      9.533     16.034
REMARK  Name = 5287492
REMARK  6 active torsions:
REMARK  status: ('A' for Active; 'I' for Inactive)
REMARK    1  A    between atoms: N_2  and  C_12
REMARK    2  A    between atoms: C_8  and  C_24
REMARK    3  A    between atoms: C_12  and  C_15
REMARK    4  A    between atoms: C_15  and  C_17
REMARK    5  A    between atoms: C_24  and  C_25
REMARK    6  A    between atoms: C_26  and  N_31
REMARK                            x       y       z     vdW  Elec       q    Type
REMARK                         _______ _______ _______ _____ _____    ______ ____
ROOT
ATOM      1  O   UNL     1      30.805  -7.558 -21.577  0.00  0.00    -0.446 OA
ATOM      2  N   UNL     1      31.855 -12.036 -22.262  0.00  0.00    -0.312 N 
ATOM      3  N   UNL     1      31.765 -11.194 -20.023  0.00  0.00    -0.227 NA
ATOM      4  N   UNL     1      31.130  -9.213 -23.091  0.00  0.00    -0.369 NA
ATOM      5  C   UNL     1      31.647 -10.993 -21.373  0.00  0.00    +0.158 C 
ATOM      6  C   UNL     1      31.314  -9.707 -21.823  0.00  0.00    +0.187 C 
ATOM      7  C   UNL     1      31.116  -8.698 -20.894  0.00  0.00    +0.246 C 
ATOM      8  C   UNL     1      30.834  -7.949 -22.882  0.00  0.00    +0.257 C 
ATOM      9  C   UNL     1      31.225  -8.861 -19.525  0.00  0.00    +0.045 C 
ATOM     10  C   UNL     1      31.557 -10.160 -19.165  0.00  0.00    +0.100 C 
ATOM     11  H   UNL     1      31.762 -11.850 -23.224  0.00  0.00    +0.148 HD
ENDROOT
BRANCH   2  12
ATOM     12  C   UNL     1      32.201 -13.378 -21.855  0.00  0.00    +0.153 C 
BRANCH  12  15
ATOM     13  F   UNL     1      34.145 -13.776 -20.589  0.00  0.00    -0.205 F 
ATOM     14  F   UNL     1      34.299 -12.389 -22.265  0.00  0.00    -0.205 F 
ATOM     15  C   UNL     1      33.707 -13.532 -21.846  0.00  0.00    +0.265 C 
BRANCH  15  17
ATOM     16  N   UNL     1      33.174 -14.907 -23.791  0.00  0.00    +0.389 N 
ATOM     17  C   UNL     1      34.179 -14.673 -22.747  0.00  0.00    +0.003 C 
ATOM     18  C   UNL     1      34.414 -15.946 -21.923  0.00  0.00    -0.016 C 
ATOM     19  C   UNL     1      34.809 -17.118 -22.817  0.00  0.00    -0.004 C 
ATOM     20  C   UNL     1      33.800 -17.293 -23.946  0.00  0.00    -0.023 C 
ATOM     21  C   UNL     1      33.577 -15.982 -24.697  0.00  0.00    -0.081 C 
ATOM     22  H   UNL     1      33.050 -14.050 -24.330  0.00  0.00    -0.084 HD
ATOM     23  H   UNL     1      32.302 -15.184 -23.338  0.00  0.00    -0.084 HD
ENDBRANCH  15  17
ENDBRANCH  12  15
ENDBRANCH   2  12
BRANCH   8  24
ATOM     24  C   UNL     1      30.531  -6.905 -23.873  0.00  0.00    +0.127 C 
BRANCH  24  25
ATOM     25  C   UNL     1      30.751  -5.483 -23.368  0.00  0.00    +0.004 C 
ATOM     26  C   UNL     1      31.738  -4.694 -23.922  0.00  0.00    +0.072 C 
ATOM     27  C   UNL     1      29.934  -5.033 -22.351  0.00  0.00    -0.002 C 
ATOM     28  C   UNL     1      31.914  -3.397 -23.438  0.00  0.00    +0.016 C 
ATOM     29  C   UNL     1      30.111  -3.736 -21.868  0.00  0.00    -0.000 C 
ATOM     30  C   UNL     1      31.101  -2.918 -22.411  0.00  0.00    +0.001 C 
BRANCH  26  31
ATOM     31  N   UNL     1      32.556  -5.149 -24.942  0.00  0.00    -0.169 N 
ATOM     32  N   UNL     1      32.224  -5.007 -26.237  0.00  0.00    -0.150 NA
ATOM     33  N   UNL     1      34.242  -6.059 -26.003  0.00  0.00    -0.203 NA
ATOM     34  C   UNL     1      33.760  -5.777 -24.815  0.00  0.00    +0.190 C 
ATOM     35  C   UNL     1      33.275  -5.573 -26.835  0.00  0.00    +0.219 C 
ENDBRANCH  26  31
ENDBRANCH  24  25
ENDBRANCH   8  24
TORSDOF 6
ENDMDL
MODEL 8
REMARK VINA RESULT:     -11.5      7.446     11.491
REMARK  Name = 5287492
REMARK  6 active torsions:
REMARK  status: ('A' for Active; 'I' for Inactive)
REMARK    1  A    between atoms: N_2  and  C_12
REMARK    2  A    between atoms: C_8  and  C_24
REMARK    3  A    between atoms: C_12  and  C_15
REMARK    4  A    between atoms: C_15  and  C_17
REMARK    5  A    between atoms: C_24  and  C_25
REMARK    6  A    between atoms: C_26  and  N_31
REMARK                            x       y       z     vdW  Elec       q    Type
REMARK                         _______ _______ _______ _____ _____    ______ ____
ROOT
ATOM      1  O   UNL     1      33.384 -14.419 -21.574  0.00  0.00    -0.446 OA
ATOM      2  N   UNL     1      32.399 -10.240 -23.361  0.00  0.00    -0.312 N 
ATOM      3  N   UNL     1      31.465 -10.846 -21.243  0.00  0.00    -0.227 NA
ATOM      4  N   UNL     1      33.688 -12.982 -23.301  0.00  0.00    -0.369 NA
ATOM      5  C   UNL     1      32.242 -11.151 -22.329  0.00  0.00    +0.158 C 
ATOM      6  C   UNL     1      32.867 -12.406 -22.363  0.00  0.00    +0.187 C 
ATOM      7  C   UNL     1      32.678 -13.282 -21.305  0.00  0.00    +0.246 C 
ATOM      8  C   UNL     1      33.958 -14.160 -22.783  0.00  0.00    +0.257 C 
ATOM      9  C   UNL     1      31.902 -13.012 -20.193  0.00  0.00    +0.045 C 
ATOM     10  C   UNL     1      31.321 -11.751 -20.239  0.00  0.00    +0.100 C 
ATOM     11  H   UNL     1      32.965 -10.498 -24.125  0.00  0.00    +0.148 HD
ENDROOT
BRANCH   2  12
ATOM     12  C   UNL     1      31.780  -8.936 -23.381  0.00  0.00    +0.153 C 
BRANCH  12  15
ATOM     13  F   UNL     1      34.037  -8.289 -23.213  0.00  0.00    -0.205 F 
ATOM     14  F   UNL     1      32.707  -7.743 -21.574  0.00  0.00    -0.205 F 
ATOM     15  C   UNL     1      32.777  -7.894 -22.917  0.00  0.00    +0.265 C 
BRANCH  15  17
ATOM     16  N   UNL     1      31.828  -6.724 -24.837  0.00  0.00    +0.389 N 
ATOM     17  C   UNL     1      32.537  -6.533 -23.566  0.00  0.00    +0.003 C 
ATOM     18  C   UNL     1      33.868  -5.801 -23.791  0.00  0.00    -0.016 C 
ATOM     19  C   UNL     1      33.654  -4.473 -24.511  0.00  0.00    -0.004 C 
ATOM     20  C   UNL     1      32.842  -4.679 -25.784  0.00  0.00    -0.023 C 
ATOM     21  C   UNL     1      31.555  -5.450 -25.501  0.00  0.00    -0.081 C 
ATOM     22  H   UNL     1      30.943  -7.198 -24.654  0.00  0.00    -0.084 HD
ATOM     23  H   UNL     1      32.421  -7.282 -25.452  0.00  0.00    -0.084 HD
ENDBRANCH  15  17
ENDBRANCH  12  15
ENDBRANCH   2  12
BRANCH   8  24
ATOM     24  C   UNL     1      34.797 -15.232 -23.338  0.00  0.00    +0.127 C 
BRANCH  24  25
ATOM     25  C   UNL     1      34.015 -16.445 -23.832  0.00  0.00    +0.004 C 
ATOM     26  C   UNL     1      34.240 -17.689 -23.281  0.00  0.00    +0.072 C 
ATOM     27  C   UNL     1      33.090 -16.242 -24.836  0.00  0.00    -0.002 C 
ATOM     28  C   UNL     1      33.508 -18.779 -23.754  0.00  0.00    +0.016 C 
ATOM     29  C   UNL     1      32.358 -17.332 -25.309  0.00  0.00    -0.000 C 
ATOM     30  C   UNL     1      32.567 -18.600 -24.768  0.00  0.00    +0.001 C 
BRANCH  26  31
ATOM     31  N   UNL     1      35.170 -17.889 -22.274  0.00  0.00    -0.169 N 
ATOM     32  N   UNL     1      36.403 -18.359 -22.528  0.00  0.00    -0.150 NA
ATOM     33  N   UNL     1      36.103 -17.965 -20.295  0.00  0.00    -0.203 NA
ATOM     34  C   UNL     1      35.003 -17.659 -20.941  0.00  0.00    +0.190 C 
ATOM     35  C   UNL     1      36.926 -18.386 -21.300  0.00  0.00    +0.219 C 
ENDBRANCH  26  31
ENDBRANCH  24  25
ENDBRANCH   8  24
TORSDOF 6
ENDMDL
MODEL 9
REMARK VINA RESULT:     -11.3      2.446     10.217
REMARK  Name = 5287492
REMARK  6 active torsions:
REMARK  status: ('A' for Active; 'I' for Inactive)
REMARK    1  A    between atoms: N_2  and  C_12
REMARK    2  A    between atoms: C_8  and  C_24
REMARK    3  A    between atoms: C_12  and  C_15
REMARK    4  A    between atoms: C_15  and  C_17
REMARK    5  A    between atoms: C_24  and  C_25
REMARK    6  A    between atoms: C_26  and  N_31
REMARK                            x       y       z     vdW  Elec       q    Type
REMARK                         _______ _______ _______ _____ _____    ______ ____
ROOT
ATOM      1  O   UNL     1      33.716 -19.757 -20.525  0.00  0.00    -0.446 OA
ATOM      2  N   UNL     1      35.889 -21.959 -17.053  0.00  0.00    -0.312 N 
ATOM      3  N   UNL     1      33.564 -22.389 -17.425  0.00  0.00    -0.227 NA
ATOM      4  N   UNL     1      35.664 -20.066 -19.409  0.00  0.00    -0.369 NA
ATOM      5  C   UNL     1      34.720 -21.738 -17.765  0.00  0.00    +0.158 C 
ATOM      6  C   UNL     1      34.684 -20.847 -18.847  0.00  0.00    +0.187 C 
ATOM      7  C   UNL     1      33.490 -20.661 -19.527  0.00  0.00    +0.246 C 
ATOM      8  C   UNL     1      35.037 -19.451 -20.387  0.00  0.00    +0.257 C 
ATOM      9  C   UNL     1      32.303 -21.298 -19.215  0.00  0.00    +0.045 C 
ATOM     10  C   UNL     1      32.427 -22.161 -18.134  0.00  0.00    +0.100 C 
ATOM     11  H   UNL     1      36.698 -21.471 -17.328  0.00  0.00    +0.148 HD
ENDROOT
BRANCH   2  12
ATOM     12  C   UNL     1      35.985 -22.862 -15.931  0.00  0.00    +0.153 C 
BRANCH  12  15
ATOM     13  F   UNL     1      37.195 -21.516 -14.426  0.00  0.00    -0.205 F 
ATOM     14  F   UNL     1      38.292 -22.417 -16.081  0.00  0.00    -0.205 F 
ATOM     15  C   UNL     1      37.288 -22.624 -15.197  0.00  0.00    +0.265 C 
BRANCH  15  17
ATOM     16  N   UNL     1      37.050 -25.024 -14.820  0.00  0.00    +0.389 N 
ATOM     17  C   UNL     1      37.673 -23.800 -14.302  0.00  0.00    +0.003 C 
ATOM     18  C   UNL     1      37.236 -23.539 -12.853  0.00  0.00    -0.016 C 
ATOM     19  C   UNL     1      37.541 -24.737 -11.959  0.00  0.00    -0.004 C 
ATOM     20  C   UNL     1      36.960 -26.013 -12.557  0.00  0.00    -0.023 C 
ATOM     21  C   UNL     1      37.395 -26.191 -14.010  0.00  0.00    -0.081 C 
ATOM     22  H   UNL     1      37.370 -25.178 -15.777  0.00  0.00    -0.084 HD
ATOM     23  H   UNL     1      36.037 -24.903 -14.789  0.00  0.00    -0.084 HD
ENDBRANCH  15  17
ENDBRANCH  12  15
ENDBRANCH   2  12
BRANCH   8  24
ATOM     24  C   UNL     1      35.575 -18.478 -21.349  0.00  0.00    +0.127 C 
BRANCH  24  25
ATOM     25  C   UNL     1      34.794 -18.396 -22.657  0.00  0.00    +0.004 C 
ATOM     26  C   UNL     1      34.133 -17.234 -22.999  0.00  0.00    +0.072 C 
ATOM     27  C   UNL     1      34.779 -19.515 -23.463  0.00  0.00    -0.002 C 
ATOM     28  C   UNL     1      33.427 -17.190 -24.202  0.00  0.00    +0.016 C 
ATOM     29  C   UNL     1      34.073 -19.471 -24.666  0.00  0.00    -0.000 C 
ATOM     30  C   UNL     1      33.398 -18.308 -25.035  0.00  0.00    +0.001 C 
BRANCH  26  31
ATOM     31  N   UNL     1      34.149 -16.113 -22.187  0.00  0.00    -0.169 N 
ATOM     32  N   UNL     1      34.135 -14.868 -22.694  0.00  0.00    -0.150 NA
ATOM     33  N   UNL     1      34.187 -14.838 -20.407  0.00  0.00    -0.203 NA
ATOM     34  C   UNL     1      34.181 -16.082 -20.824  0.00  0.00    +0.190 C 
ATOM     35  C   UNL     1      34.159 -14.136 -21.577  0.00  0.00    +0.219 C 
ENDBRANCH  26  31
ENDBRANCH  24  25
ENDBRANCH   8  24
TORSDOF 6
ENDMDL
