MODEL 1
REMARK VINA RESULT:     -13.3      0.000      0.000
REMARK  Name = 10430360
REMARK  6 active torsions:
REMARK  status: ('A' for Active; 'I' for Inactive)
REMARK    1  A    between atoms: C_4  and  C_18
REMARK    2  A    between atoms: C_7  and  C_14
REMARK    3  A    between atoms: C_17  and  O_23
REMARK    4  A    between atoms: O_23  and  C_24
REMARK    5  A    between atoms: C_24  and  C_25
REMARK    6  A    between atoms: C_25  and  N_26
REMARK                            x       y       z     vdW  Elec       q    Type
REMARK                         _______ _______ _______ _____ _____    ______ ____
ROOT
ATOM      1  N   UNL     1      31.726 -21.341 -19.272  0.00  0.00    -0.276 N 
ATOM      2  N   UNL     1      32.264 -20.533 -20.201  0.00  0.00    -0.173 NA
ATOM      3  C   UNL     1      33.837 -21.226 -18.691  0.00  0.00    +0.036 A 
ATOM      4  C   UNL     1      33.552 -20.463 -19.847  0.00  0.00    +0.102 A 
ATOM      5  C   UNL     1      32.618 -21.791 -18.336  0.00  0.00    +0.075 A 
ATOM      6  C   UNL     1      34.975 -21.499 -17.913  0.00  0.00    +0.006 C 
ATOM      7  C   UNL     1      34.838 -22.338 -16.800  0.00  0.00    +0.033 C 
ATOM      8  C   UNL     1      32.460 -22.629 -17.231  0.00  0.00    +0.019 C 
ATOM      9  C   UNL     1      33.601 -22.892 -16.466  0.00  0.00    +0.004 C 
ATOM     10  H   UNL     1      30.773 -21.587 -19.265  0.00  0.00    +0.189 HD
ENDROOT
BRANCH   7  14
ATOM     11  N   UNL     1      37.252 -22.248 -16.326  0.00  0.00    -0.218 N 
ATOM     12  N   UNL     1      36.017 -23.282 -14.849  0.00  0.00    -0.206 NA
ATOM     13  N   UNL     1      38.142 -22.645 -15.403  0.00  0.00    -0.157 NA
ATOM     14  C   UNL     1      35.994 -22.632 -15.986  0.00  0.00    +0.149 C 
ATOM     15  C   UNL     1      37.346 -23.265 -14.532  0.00  0.00    +0.218 C 
ATOM     16  H   UNL     1      37.481 -21.745 -17.140  0.00  0.00    +0.176 HD
ENDBRANCH   7  14
BRANCH   4  18
ATOM     17  C   UNL     1      34.971 -18.367 -22.576  0.00  0.00    +0.138 C 
ATOM     18  C   UNL     1      34.473 -19.675 -20.618  0.00  0.00    +0.022 C 
ATOM     19  C   UNL     1      34.073 -19.129 -21.837  0.00  0.00    +0.038 C 
ATOM     20  C   UNL     1      36.263 -18.146 -22.113  0.00  0.00    +0.037 C 
ATOM     21  C   UNL     1      35.767 -19.458 -20.146  0.00  0.00    +0.002 C 
ATOM     22  C   UNL     1      36.663 -18.693 -20.894  0.00  0.00    +0.003 C 
BRANCH  17  23
ATOM     23  O   UNL     1      34.579 -17.829 -23.774  0.00  0.00    -0.478 OA
BRANCH  23  24
ATOM     24  C   UNL     1      33.686 -16.723 -23.718  0.00  0.00    +0.183 C 
BRANCH  24  25
ATOM     25  C   UNL     1      34.449 -15.460 -24.082  0.00  0.00    -0.029 C 
BRANCH  25  26
ATOM     26  N   UNL     1      34.125 -14.376 -23.156  0.00  0.00    +0.389 N 
ATOM     27  C   UNL     1      32.884 -13.703 -23.565  0.00  0.00    -0.077 C 
ATOM     28  C   UNL     1      34.025 -14.887 -21.781  0.00  0.00    -0.077 C 
ATOM     29  C   UNL     1      32.556 -12.536 -22.633  0.00  0.00    -0.023 C 
ATOM     30  C   UNL     1      33.735 -13.757 -20.792  0.00  0.00    -0.023 C 
ATOM     31  C   UNL     1      32.475 -12.989 -21.180  0.00  0.00    -0.004 C 
ATOM     32  H   UNL     1      34.878 -13.688 -23.181  0.00  0.00    -0.080 HD
ENDBRANCH  25  26
ENDBRANCH  24  25
ENDBRANCH  23  24
ENDBRANCH  17  23
ENDBRANCH   4  18
TORSDOF 6
ENDMDL
MODEL 2
REMARK VINA RESULT:     -13.0      3.043      6.188
REMARK  Name = 10430360
REMARK  6 active torsions:
REMARK  status: ('A' for Active; 'I' for Inactive)
REMARK    1  A    between atoms: C_4  and  C_18
REMARK    2  A    between atoms: C_7  and  C_14
REMARK    3  A    between atoms: C_17  and  O_23
REMARK    4  A    between atoms: O_23  and  C_24
REMARK    5  A    between atoms: C_24  and  C_25
REMARK    6  A    between atoms: C_25  and  N_26
REMARK                            x       y       z     vdW  Elec       q    Type
REMARK                         _______ _______ _______ _____ _____    ______ ____
ROOT
ATOM      1  N   UNL     1      33.336 -24.290 -13.167  0.00  0.00    -0.276 N 
ATOM      2  N   UNL     1      34.330 -23.803 -13.929  0.00  0.00    -0.173 NA
ATOM      3  C   UNL     1      32.283 -23.362 -14.853  0.00  0.00    +0.036 A 
ATOM      4  C   UNL     1      33.688 -23.237 -14.957  0.00  0.00    +0.102 A 
ATOM      5  C   UNL     1      32.082 -24.059 -13.667  0.00  0.00    +0.075 A 
ATOM      6  C   UNL     1      31.171 -22.972 -15.618  0.00  0.00    +0.006 C 
ATOM      7  C   UNL     1      29.892 -23.300 -15.155  0.00  0.00    +0.033 C 
ATOM      8  C   UNL     1      30.815 -24.397 -13.187  0.00  0.00    +0.019 C 
ATOM      9  C   UNL     1      29.719 -24.001 -13.960  0.00  0.00    +0.004 C 
ATOM     10  H   UNL     1      33.496 -24.771 -12.324  0.00  0.00    +0.189 HD
ENDROOT
BRANCH   7  14
ATOM     11  N   UNL     1      28.114 -23.743 -16.799  0.00  0.00    -0.218 N 
ATOM     12  N   UNL     1      28.130 -21.747 -15.912  0.00  0.00    -0.206 NA
ATOM     13  N   UNL     1      27.070 -23.137 -17.385  0.00  0.00    -0.157 NA
ATOM     14  C   UNL     1      28.735 -22.909 -15.926  0.00  0.00    +0.149 C 
ATOM     15  C   UNL     1      27.123 -21.933 -16.815  0.00  0.00    +0.218 C 
ATOM     16  H   UNL     1      28.391 -24.671 -16.977  0.00  0.00    +0.176 HD
ENDBRANCH   7  14
BRANCH   4  18
ATOM     17  C   UNL     1      34.579 -21.816 -18.280  0.00  0.00    +0.138 C 
ATOM     18  C   UNL     1      34.427 -22.592 -16.006  0.00  0.00    +0.022 C 
ATOM     19  C   UNL     1      33.857 -22.442 -17.271  0.00  0.00    +0.038 C 
ATOM     20  C   UNL     1      35.863 -21.340 -18.043  0.00  0.00    +0.037 C 
ATOM     21  C   UNL     1      35.715 -22.117 -15.761  0.00  0.00    +0.002 C 
ATOM     22  C   UNL     1      36.433 -21.490 -16.779  0.00  0.00    +0.003 C 
BRANCH  17  23
ATOM     23  O   UNL     1      34.019 -21.667 -19.522  0.00  0.00    -0.478 OA
BRANCH  23  24
ATOM     24  C   UNL     1      33.625 -20.352 -19.894  0.00  0.00    +0.183 C 
BRANCH  24  25
ATOM     25  C   UNL     1      34.769 -19.694 -20.647  0.00  0.00    -0.029 C 
BRANCH  25  26
ATOM     26  N   UNL     1      34.276 -18.594 -21.476  0.00  0.00    +0.389 N 
ATOM     27  C   UNL     1      35.101 -17.393 -21.281  0.00  0.00    -0.077 C 
ATOM     28  C   UNL     1      34.240 -18.991 -22.890  0.00  0.00    -0.077 C 
ATOM     29  C   UNL     1      34.570 -16.219 -22.105  0.00  0.00    -0.023 C 
ATOM     30  C   UNL     1      33.680 -17.869 -23.765  0.00  0.00    -0.023 C 
ATOM     31  C   UNL     1      34.469 -16.577 -23.583  0.00  0.00    -0.004 C 
ATOM     32  H   UNL     1      33.323 -18.370 -21.189  0.00  0.00    -0.080 HD
ENDBRANCH  25  26
ENDBRANCH  24  25
ENDBRANCH  23  24
ENDBRANCH  17  23
ENDBRANCH   4  18
TORSDOF 6
ENDMDL
MODEL 3
REMARK VINA RESULT:     -12.9      1.945      3.204
REMARK  Name = 10430360
REMARK  6 active torsions:
REMARK  status: ('A' for Active; 'I' for Inactive)
REMARK    1  A    between atoms: C_4  and  C_18
REMARK    2  A    between atoms: C_7  and  C_14
REMARK    3  A    between atoms: C_17  and  O_23
REMARK    4  A    between atoms: O_23  and  C_24
REMARK    5  A    between atoms: C_24  and  C_25
REMARK    6  A    between atoms: C_25  and  N_26
REMARK                            x       y       z     vdW  Elec       q    Type
REMARK                         _______ _______ _______ _____ _____    ______ ____
ROOT
ATOM      1  N   UNL     1      30.559 -22.499 -16.663  0.00  0.00    -0.276 N 
ATOM      2  N   UNL     1      31.165 -21.896 -17.700  0.00  0.00    -0.173 NA
ATOM      3  C   UNL     1      32.693 -22.714 -16.205  0.00  0.00    +0.036 A 
ATOM      4  C   UNL     1      32.467 -22.027 -17.420  0.00  0.00    +0.102 A 
ATOM      5  C   UNL     1      31.420 -23.010 -15.730  0.00  0.00    +0.075 A 
ATOM      6  C   UNL     1      33.815 -23.114 -15.459  0.00  0.00    +0.006 C 
ATOM      7  C   UNL     1      33.610 -23.801 -14.257  0.00  0.00    +0.033 C 
ATOM      8  C   UNL     1      31.193 -23.695 -14.534  0.00  0.00    +0.019 C 
ATOM      9  C   UNL     1      32.320 -24.085 -13.804  0.00  0.00    +0.004 C 
ATOM     10  H   UNL     1      29.580 -22.565 -16.582  0.00  0.00    +0.189 HD
ENDROOT
BRANCH   7  14
ATOM     11  N   UNL     1      34.677 -24.472 -12.143  0.00  0.00    -0.218 N 
ATOM     12  N   UNL     1      35.973 -24.413 -13.901  0.00  0.00    -0.206 NA
ATOM     13  N   UNL     1      35.872 -24.843 -11.657  0.00  0.00    -0.157 NA
ATOM     14  C   UNL     1      34.749 -24.220 -13.475  0.00  0.00    +0.149 C 
ATOM     15  C   UNL     1      36.621 -24.791 -12.760  0.00  0.00    +0.218 C 
ATOM     16  H   UNL     1      33.857 -24.395 -11.604  0.00  0.00    +0.176 HD
ENDBRANCH   7  14
BRANCH   4  18
ATOM     17  C   UNL     1      34.034 -20.197 -20.256  0.00  0.00    +0.138 C 
ATOM     18  C   UNL     1      33.457 -21.500 -18.316  0.00  0.00    +0.022 C 
ATOM     19  C   UNL     1      33.070 -20.704 -19.394  0.00  0.00    +0.038 C 
ATOM     20  C   UNL     1      35.382 -20.475 -20.055  0.00  0.00    +0.037 C 
ATOM     21  C   UNL     1      34.807 -21.783 -18.108  0.00  0.00    +0.002 C 
ATOM     22  C   UNL     1      35.770 -21.270 -18.977  0.00  0.00    +0.003 C 
BRANCH  17  23
ATOM     23  O   UNL     1      33.654 -19.414 -21.315  0.00  0.00    -0.478 OA
BRANCH  23  24
ATOM     24  C   UNL     1      34.696 -18.855 -22.106  0.00  0.00    +0.183 C 
BRANCH  24  25
ATOM     25  C   UNL     1      35.151 -17.554 -21.465  0.00  0.00    -0.029 C 
BRANCH  25  26
ATOM     26  N   UNL     1      34.934 -16.428 -22.372  0.00  0.00    +0.389 N 
ATOM     27  C   UNL     1      34.248 -16.875 -23.593  0.00  0.00    -0.077 C 
ATOM     28  C   UNL     1      34.178 -15.363 -21.698  0.00  0.00    -0.077 C 
ATOM     29  C   UNL     1      34.055 -15.718 -24.573  0.00  0.00    -0.023 C 
ATOM     30  C   UNL     1      33.984 -14.156 -22.618  0.00  0.00    -0.023 C 
ATOM     31  C   UNL     1      33.310 -14.558 -23.925  0.00  0.00    -0.004 C 
ATOM     32  H   UNL     1      35.840 -16.046 -22.643  0.00  0.00    -0.080 HD
ENDBRANCH  25  26
ENDBRANCH  24  25
ENDBRANCH  23  24
ENDBRANCH  17  23
ENDBRANCH   4  18
TORSDOF 6
ENDMDL
MODEL 4
REMARK VINA RESULT:     -12.7      2.318      4.216
REMARK  Name = 10430360
REMARK  6 active torsions:
REMARK  status: ('A' for Active; 'I' for Inactive)
REMARK    1  A    between atoms: C_4  and  C_18
REMARK    2  A    between atoms: C_7  and  C_14
REMARK    3  A    between atoms: C_17  and  O_23
REMARK    4  A    between atoms: O_23  and  C_24
REMARK    5  A    between atoms: C_24  and  C_25
REMARK    6  A    between atoms: C_25  and  N_26
REMARK                            x       y       z     vdW  Elec       q    Type
REMARK                         _______ _______ _______ _____ _____    ______ ____
ROOT
ATOM      1  N   UNL     1      37.111 -22.439 -16.091  0.00  0.00    -0.276 N 
ATOM      2  N   UNL     1      36.804 -21.852 -17.260  0.00  0.00    -0.173 NA
ATOM      3  C   UNL     1      34.918 -22.442 -16.107  0.00  0.00    +0.036 A 
ATOM      4  C   UNL     1      35.466 -21.854 -17.270  0.00  0.00    +0.102 A 
ATOM      5  C   UNL     1      36.023 -22.818 -15.351  0.00  0.00    +0.075 A 
ATOM      6  C   UNL     1      33.628 -22.698 -15.613  0.00  0.00    +0.006 C 
ATOM      7  C   UNL     1      33.501 -23.326 -14.367  0.00  0.00    +0.033 C 
ATOM      8  C   UNL     1      35.918 -23.444 -14.108  0.00  0.00    +0.019 C 
ATOM      9  C   UNL     1      34.628 -23.692 -13.630  0.00  0.00    +0.004 C 
ATOM     10  H   UNL     1      38.038 -22.584 -15.793  0.00  0.00    +0.189 HD
ENDROOT
BRANCH   7  14
ATOM     11  N   UNL     1      31.875 -24.748 -13.187  0.00  0.00    -0.218 N 
ATOM     12  N   UNL     1      31.129 -22.825 -13.907  0.00  0.00    -0.206 NA
ATOM     13  N   UNL     1      30.589 -24.753 -12.802  0.00  0.00    -0.157 NA
ATOM     14  C   UNL     1      32.184 -23.599 -13.841  0.00  0.00    +0.149 C 
ATOM     15  C   UNL     1      30.182 -23.569 -13.262  0.00  0.00    +0.218 C 
ATOM     16  H   UNL     1      32.510 -25.481 -13.015  0.00  0.00    +0.176 HD
ENDBRANCH   7  14
BRANCH   4  18
ATOM     17  C   UNL     1      34.731 -20.041 -20.436  0.00  0.00    +0.138 C 
ATOM     18  C   UNL     1      34.749 -21.296 -18.382  0.00  0.00    +0.022 C 
ATOM     19  C   UNL     1      35.433 -20.578 -19.363  0.00  0.00    +0.038 C 
ATOM     20  C   UNL     1      33.355 -20.213 -20.541  0.00  0.00    +0.037 C 
ATOM     21  C   UNL     1      33.370 -21.473 -18.481  0.00  0.00    +0.002 C 
ATOM     22  C   UNL     1      32.672 -20.932 -19.560  0.00  0.00    +0.003 C 
BRANCH  17  23
ATOM     23  O   UNL     1      35.402 -19.336 -21.401  0.00  0.00    -0.478 OA
BRANCH  23  24
ATOM     24  C   UNL     1      34.663 -18.342 -22.099  0.00  0.00    +0.183 C 
BRANCH  24  25
ATOM     25  C   UNL     1      34.976 -16.984 -21.491  0.00  0.00    -0.029 C 
BRANCH  25  26
ATOM     26  N   UNL     1      34.755 -15.918 -22.468  0.00  0.00    +0.389 N 
ATOM     27  C   UNL     1      34.036 -16.436 -23.641  0.00  0.00    -0.077 C 
ATOM     28  C   UNL     1      34.030 -14.798 -21.852  0.00  0.00    -0.077 C 
ATOM     29  C   UNL     1      33.839 -15.344 -24.693  0.00  0.00    -0.023 C 
ATOM     30  C   UNL     1      33.833 -13.654 -22.847  0.00  0.00    -0.023 C 
ATOM     31  C   UNL     1      33.124 -14.131 -24.109  0.00  0.00    -0.004 C 
ATOM     32  H   UNL     1      35.660 -15.569 -22.783  0.00  0.00    -0.080 HD
ENDBRANCH  25  26
ENDBRANCH  24  25
ENDBRANCH  23  24
ENDBRANCH  17  23
ENDBRANCH   4  18
TORSDOF 6
ENDMDL
MODEL 5
REMARK VINA RESULT:     -12.2      2.462      4.523
REMARK  Name = 10430360
REMARK  6 active torsions:
REMARK  status: ('A' for Active; 'I' for Inactive)
REMARK    1  A    between atoms: C_4  and  C_18
REMARK    2  A    between atoms: C_7  and  C_14
REMARK    3  A    between atoms: C_17  and  O_23
REMARK    4  A    between atoms: O_23  and  C_24
REMARK    5  A    between atoms: C_24  and  C_25
REMARK    6  A    between atoms: C_25  and  N_26
REMARK                            x       y       z     vdW  Elec       q    Type
REMARK                         _______ _______ _______ _____ _____    ______ ____
ROOT
ATOM      1  N   UNL     1      35.975 -22.816 -15.698  0.00  0.00    -0.276 N 
ATOM      2  N   UNL     1      36.108 -22.104 -16.830  0.00  0.00    -0.173 NA
ATOM      3  C   UNL     1      33.912 -22.593 -16.411  0.00  0.00    +0.036 A 
ATOM      4  C   UNL     1      34.850 -21.968 -17.265  0.00  0.00    +0.102 A 
ATOM      5  C   UNL     1      34.681 -23.142 -15.390  0.00  0.00    +0.075 A 
ATOM      6  C   UNL     1      32.517 -22.757 -16.384  0.00  0.00    +0.006 C 
ATOM      7  C   UNL     1      31.947 -23.472 -15.323  0.00  0.00    +0.033 C 
ATOM      8  C   UNL     1      34.134 -23.858 -14.324  0.00  0.00    +0.019 C 
ATOM      9  C   UNL     1      32.743 -24.012 -14.312  0.00  0.00    +0.004 C 
ATOM     10  H   UNL     1      36.741 -23.080 -15.140  0.00  0.00    +0.189 HD
ENDROOT
BRANCH   7  14
ATOM     11  N   UNL     1      29.912 -24.566 -14.473  0.00  0.00    -0.218 N 
ATOM     12  N   UNL     1      29.613 -23.001 -15.968  0.00  0.00    -0.206 NA
ATOM     13  N   UNL     1      28.579 -24.532 -14.620  0.00  0.00    -0.157 NA
ATOM     14  C   UNL     1      30.515 -23.652 -15.277  0.00  0.00    +0.149 C 
ATOM     15  C   UNL     1      28.449 -23.570 -15.535  0.00  0.00    +0.218 C 
ATOM     16  H   UNL     1      30.390 -25.172 -13.861  0.00  0.00    +0.176 HD
ENDBRANCH   7  14
BRANCH   4  18
ATOM     17  C   UNL     1      35.323 -19.854 -20.291  0.00  0.00    +0.138 C 
ATOM     18  C   UNL     1      34.575 -21.247 -18.476  0.00  0.00    +0.022 C 
ATOM     19  C   UNL     1      35.597 -20.548 -19.119  0.00  0.00    +0.038 C 
ATOM     20  C   UNL     1      34.041 -19.847 -20.829  0.00  0.00    +0.037 C 
ATOM     21  C   UNL     1      33.287 -21.246 -19.009  0.00  0.00    +0.002 C 
ATOM     22  C   UNL     1      33.019 -20.546 -20.186  0.00  0.00    +0.003 C 
BRANCH  17  23
ATOM     23  O   UNL     1      36.327 -19.168 -20.924  0.00  0.00    -0.478 OA
BRANCH  23  24
ATOM     24  C   UNL     1      35.942 -18.302 -21.984  0.00  0.00    +0.183 C 
BRANCH  24  25
ATOM     25  C   UNL     1      35.163 -17.134 -21.402  0.00  0.00    -0.029 C 
BRANCH  25  26
ATOM     26  N   UNL     1      34.903 -16.124 -22.428  0.00  0.00    +0.389 N 
ATOM     27  C   UNL     1      34.229 -16.728 -23.586  0.00  0.00    -0.077 C 
ATOM     28  C   UNL     1      34.114 -15.016 -21.871  0.00  0.00    -0.077 C 
ATOM     29  C   UNL     1      33.993 -15.695 -24.688  0.00  0.00    -0.023 C 
ATOM     30  C   UNL     1      33.875 -13.928 -22.919  0.00  0.00    -0.023 C 
ATOM     31  C   UNL     1      33.210 -14.496 -24.168  0.00  0.00    -0.004 C 
ATOM     32  H   UNL     1      35.795 -15.744 -22.747  0.00  0.00    -0.080 HD
ENDBRANCH  25  26
ENDBRANCH  24  25
ENDBRANCH  23  24
ENDBRANCH  17  23
ENDBRANCH   4  18
TORSDOF 6
ENDMDL
MODEL 6
REMARK VINA RESULT:     -11.6      2.611      5.210
REMARK  Name = 10430360
REMARK  6 active torsions:
REMARK  status: ('A' for Active; 'I' for Inactive)
REMARK    1  A    between atoms: C_4  and  C_18
REMARK    2  A    between atoms: C_7  and  C_14
REMARK    3  A    between atoms: C_17  and  O_23
REMARK    4  A    between atoms: O_23  and  C_24
REMARK    5  A    between atoms: C_24  and  C_25
REMARK    6  A    between atoms: C_25  and  N_26
REMARK                            x       y       z     vdW  Elec       q    Type
REMARK                         _______ _______ _______ _____ _____    ______ ____
ROOT
ATOM      1  N   UNL     1      32.983 -23.337 -12.982  0.00  0.00    -0.276 N 
ATOM      2  N   UNL     1      32.576 -22.846 -14.165  0.00  0.00    -0.173 NA
ATOM      3  C   UNL     1      34.764 -23.512 -14.250  0.00  0.00    +0.036 A 
ATOM      4  C   UNL     1      33.663 -22.953 -14.939  0.00  0.00    +0.102 A 
ATOM      5  C   UNL     1      34.288 -23.753 -12.966  0.00  0.00    +0.075 A 
ATOM      6  C   UNL     1      36.095 -23.836 -14.562  0.00  0.00    +0.006 C 
ATOM      7  C   UNL     1      36.899 -24.396 -13.561  0.00  0.00    +0.033 C 
ATOM      8  C   UNL     1      35.072 -24.309 -11.954  0.00  0.00    +0.019 C 
ATOM      9  C   UNL     1      36.395 -24.627 -12.280  0.00  0.00    +0.004 C 
ATOM     10  H   UNL     1      32.395 -23.390 -12.195  0.00  0.00    +0.189 HD
ENDROOT
BRANCH   7  14
ATOM     11  N   UNL     1      38.894 -25.820 -13.330  0.00  0.00    -0.218 N 
ATOM     12  N   UNL     1      39.093 -24.088 -14.647  0.00  0.00    -0.206 NA
ATOM     13  N   UNL     1      40.160 -25.909 -13.766  0.00  0.00    -0.157 NA
ATOM     14  C   UNL     1      38.271 -24.736 -13.860  0.00  0.00    +0.149 C 
ATOM     15  C   UNL     1      40.231 -24.839 -14.559  0.00  0.00    +0.218 C 
ATOM     16  H   UNL     1      38.473 -26.457 -12.709  0.00  0.00    +0.176 HD
ENDBRANCH   7  14
BRANCH   4  18
ATOM     17  C   UNL     1      34.729 -21.633 -18.251  0.00  0.00    +0.138 C 
ATOM     18  C   UNL     1      33.621 -22.524 -16.309  0.00  0.00    +0.022 C 
ATOM     19  C   UNL     1      34.778 -22.045 -16.925  0.00  0.00    +0.038 C 
ATOM     20  C   UNL     1      33.540 -21.692 -18.970  0.00  0.00    +0.037 C 
ATOM     21  C   UNL     1      32.425 -22.587 -17.023  0.00  0.00    +0.002 C 
ATOM     22  C   UNL     1      32.384 -22.171 -18.353  0.00  0.00    +0.003 C 
BRANCH  17  23
ATOM     23  O   UNL     1      35.865 -21.163 -18.858  0.00  0.00    -0.478 OA
BRANCH  23  24
ATOM     24  C   UNL     1      35.730 -20.686 -20.191  0.00  0.00    +0.183 C 
BRANCH  24  25
ATOM     25  C   UNL     1      35.995 -19.190 -20.202  0.00  0.00    -0.029 C 
BRANCH  25  26
ATOM     26  N   UNL     1      35.051 -18.505 -21.086  0.00  0.00    +0.389 N 
ATOM     27  C   UNL     1      35.533 -17.155 -21.407  0.00  0.00    -0.077 C 
ATOM     28  C   UNL     1      34.825 -19.293 -22.306  0.00  0.00    -0.077 C 
ATOM     29  C   UNL     1      34.534 -16.408 -22.292  0.00  0.00    -0.023 C 
ATOM     30  C   UNL     1      33.802 -18.616 -23.219  0.00  0.00    -0.023 C 
ATOM     31  C   UNL     1      34.223 -17.191 -23.562  0.00  0.00    -0.004 C 
ATOM     32  H   UNL     1      34.158 -18.414 -20.602  0.00  0.00    -0.080 HD
ENDBRANCH  25  26
ENDBRANCH  24  25
ENDBRANCH  23  24
ENDBRANCH  17  23
ENDBRANCH   4  18
TORSDOF 6
ENDMDL
MODEL 7
REMARK VINA RESULT:     -11.6      3.710     11.233
REMARK  Name = 10430360
REMARK  6 active torsions:
REMARK  status: ('A' for Active; 'I' for Inactive)
REMARK    1  A    between atoms: C_4  and  C_18
REMARK    2  A    between atoms: C_7  and  C_14
REMARK    3  A    between atoms: C_17  and  O_23
REMARK    4  A    between atoms: O_23  and  C_24
REMARK    5  A    between atoms: C_24  and  C_25
REMARK    6  A    between atoms: C_25  and  N_26
REMARK                            x       y       z     vdW  Elec       q    Type
REMARK                         _______ _______ _______ _____ _____    ______ ____
ROOT
ATOM      1  N   UNL     1      31.540 -11.781 -19.970  0.00  0.00    -0.276 N 
ATOM      2  N   UNL     1      31.976 -12.863 -20.636  0.00  0.00    -0.173 NA
ATOM      3  C   UNL     1      31.986 -11.005 -21.972  0.00  0.00    +0.036 A 
ATOM      4  C   UNL     1      32.248 -12.390 -21.858  0.00  0.00    +0.102 A 
ATOM      5  C   UNL     1      31.521 -10.633 -20.716  0.00  0.00    +0.075 A 
ATOM      6  C   UNL     1      32.086 -10.035 -22.983  0.00  0.00    +0.006 C 
ATOM      7  C   UNL     1      31.712  -8.718 -22.687  0.00  0.00    +0.033 C 
ATOM      8  C   UNL     1      31.143  -9.327 -20.399  0.00  0.00    +0.019 C 
ATOM      9  C   UNL     1      31.249  -8.373 -21.417  0.00  0.00    +0.004 C 
ATOM     10  H   UNL     1      31.258 -11.812 -19.028  0.00  0.00    +0.189 HD
ENDROOT
BRANCH   7  14
ATOM     11  N   UNL     1      32.931  -6.974 -23.925  0.00  0.00    -0.218 N 
ATOM     12  N   UNL     1      30.873  -7.345 -24.557  0.00  0.00    -0.206 NA
ATOM     13  N   UNL     1      32.757  -6.104 -24.931  0.00  0.00    -0.157 NA
ATOM     14  C   UNL     1      31.807  -7.706 -23.712  0.00  0.00    +0.149 C 
ATOM     15  C   UNL     1      31.496  -6.368 -25.280  0.00  0.00    +0.218 C 
ATOM     16  H   UNL     1      33.765  -7.070 -23.410  0.00  0.00    +0.176 HD
ENDBRANCH   7  14
BRANCH   4  18
ATOM     17  C   UNL     1      33.974 -15.238 -23.521  0.00  0.00    +0.138 C 
ATOM     18  C   UNL     1      32.751 -13.266 -22.879  0.00  0.00    +0.022 C 
ATOM     19  C   UNL     1      33.491 -14.395 -22.527  0.00  0.00    +0.038 C 
ATOM     20  C   UNL     1      33.727 -14.966 -24.863  0.00  0.00    +0.037 C 
ATOM     21  C   UNL     1      32.500 -12.987 -24.222  0.00  0.00    +0.002 C 
ATOM     22  C   UNL     1      32.988 -13.837 -25.214  0.00  0.00    +0.003 C 
BRANCH  17  23
ATOM     23  O   UNL     1      34.699 -16.348 -23.177  0.00  0.00    -0.478 OA
BRANCH  23  24
ATOM     24  C   UNL     1      34.770 -16.663 -21.792  0.00  0.00    +0.183 C 
BRANCH  24  25
ATOM     25  C   UNL     1      35.673 -17.873 -21.612  0.00  0.00    -0.029 C 
BRANCH  25  26
ATOM     26  N   UNL     1      35.133 -18.773 -20.593  0.00  0.00    +0.389 N 
ATOM     27  C   UNL     1      33.861 -19.355 -21.042  0.00  0.00    -0.077 C 
ATOM     28  C   UNL     1      36.110 -19.819 -20.261  0.00  0.00    -0.077 C 
ATOM     29  C   UNL     1      33.259 -20.261 -19.966  0.00  0.00    -0.023 C 
ATOM     30  C   UNL     1      35.581 -20.740 -19.160  0.00  0.00    -0.023 C 
ATOM     31  C   UNL     1      34.238 -21.351 -19.546  0.00  0.00    -0.004 C 
ATOM     32  H   UNL     1      34.951 -18.234 -19.745  0.00  0.00    -0.080 HD
ENDBRANCH  25  26
ENDBRANCH  24  25
ENDBRANCH  23  24
ENDBRANCH  17  23
ENDBRANCH   4  18
TORSDOF 6
ENDMDL
MODEL 8
REMARK VINA RESULT:     -10.8      4.829      9.026
REMARK  Name = 10430360
REMARK  6 active torsions:
REMARK  status: ('A' for Active; 'I' for Inactive)
REMARK    1  A    between atoms: C_4  and  C_18
REMARK    2  A    between atoms: C_7  and  C_14
REMARK    3  A    between atoms: C_17  and  O_23
REMARK    4  A    between atoms: O_23  and  C_24
REMARK    5  A    between atoms: C_24  and  C_25
REMARK    6  A    between atoms: C_25  and  N_26
REMARK                            x       y       z     vdW  Elec       q    Type
REMARK                         _______ _______ _______ _____ _____    ______ ____
ROOT
ATOM      1  N   UNL     1      32.426 -13.135 -25.447  0.00  0.00    -0.276 N 
ATOM      2  N   UNL     1      31.974 -12.196 -24.599  0.00  0.00    -0.173 NA
ATOM      3  C   UNL     1      33.073 -13.863 -23.482  0.00  0.00    +0.036 A 
ATOM      4  C   UNL     1      32.368 -12.639 -23.401  0.00  0.00    +0.102 A 
ATOM      5  C   UNL     1      33.094 -14.164 -24.839  0.00  0.00    +0.075 A 
ATOM      6  C   UNL     1      33.688 -14.741 -22.573  0.00  0.00    +0.006 C 
ATOM      7  C   UNL     1      34.305 -15.895 -23.072  0.00  0.00    +0.033 C 
ATOM      8  C   UNL     1      33.703 -15.309 -25.357  0.00  0.00    +0.019 C 
ATOM      9  C   UNL     1      34.310 -16.173 -24.439  0.00  0.00    +0.004 C 
ATOM     10  H   UNL     1      32.287 -13.088 -26.420  0.00  0.00    +0.189 HD
ENDROOT
BRANCH   7  14
ATOM     11  N   UNL     1      34.794 -16.728 -20.807  0.00  0.00    -0.218 N 
ATOM     12  N   UNL     1      35.725 -17.817 -22.457  0.00  0.00    -0.206 NA
ATOM     13  N   UNL     1      35.489 -17.694 -20.186  0.00  0.00    -0.157 NA
ATOM     14  C   UNL     1      34.942 -16.811 -22.155  0.00  0.00    +0.149 C 
ATOM     15  C   UNL     1      36.033 -18.325 -21.228  0.00  0.00    +0.218 C 
ATOM     16  H   UNL     1      34.249 -16.051 -20.346  0.00  0.00    +0.176 HD
ENDBRANCH   7  14
BRANCH   4  18
ATOM     17  C   UNL     1      31.499  -9.804 -21.152  0.00  0.00    +0.138 C 
ATOM     18  C   UNL     1      32.067 -11.888 -22.215  0.00  0.00    +0.022 C 
ATOM     19  C   UNL     1      31.790 -10.524 -22.305  0.00  0.00    +0.038 C 
ATOM     20  C   UNL     1      31.482 -10.430 -19.910  0.00  0.00    +0.037 C 
ATOM     21  C   UNL     1      32.053 -12.522 -20.973  0.00  0.00    +0.002 C 
ATOM     22  C   UNL     1      31.760 -11.794 -19.820  0.00  0.00    +0.003 C 
BRANCH  17  23
ATOM     23  O   UNL     1      31.225  -8.464 -21.240  0.00  0.00    -0.478 OA
BRANCH  23  24
ATOM     24  C   UNL     1      31.513  -7.674 -20.092  0.00  0.00    +0.183 C 
BRANCH  24  25
ATOM     25  C   UNL     1      32.659  -6.733 -20.423  0.00  0.00    -0.029 C 
BRANCH  25  26
ATOM     26  N   UNL     1      32.592  -6.310 -21.823  0.00  0.00    +0.389 N 
ATOM     27  C   UNL     1      32.109  -4.926 -21.920  0.00  0.00    -0.077 C 
ATOM     28  C   UNL     1      33.903  -6.463 -22.469  0.00  0.00    -0.077 C 
ATOM     29  C   UNL     1      31.987  -4.486 -23.379  0.00  0.00    -0.023 C 
ATOM     30  C   UNL     1      33.839  -6.072 -23.946  0.00  0.00    -0.023 C 
ATOM     31  C   UNL     1      33.307  -4.655 -24.123  0.00  0.00    -0.004 C 
ATOM     32  H   UNL     1      31.929  -6.910 -22.314  0.00  0.00    -0.080 HD
ENDBRANCH  25  26
ENDBRANCH  24  25
ENDBRANCH  23  24
ENDBRANCH  17  23
ENDBRANCH   4  18
TORSDOF 6
ENDMDL
MODEL 9
REMARK VINA RESULT:     -10.6      1.686      3.012
REMARK  Name = 10430360
REMARK  6 active torsions:
REMARK  status: ('A' for Active; 'I' for Inactive)
REMARK    1  A    between atoms: C_4  and  C_18
REMARK    2  A    between atoms: C_7  and  C_14
REMARK    3  A    between atoms: C_17  and  O_23
REMARK    4  A    between atoms: O_23  and  C_24
REMARK    5  A    between atoms: C_24  and  C_25
REMARK    6  A    between atoms: C_25  and  N_26
REMARK                            x       y       z     vdW  Elec       q    Type
REMARK                         _______ _______ _______ _____ _____    ______ ____
ROOT
ATOM      1  N   UNL     1      31.176 -22.829 -16.209  0.00  0.00    -0.276 N 
ATOM      2  N   UNL     1      31.159 -22.098 -17.337  0.00  0.00    -0.173 NA
ATOM      3  C   UNL     1      33.302 -22.530 -16.659  0.00  0.00    +0.036 A 
ATOM      4  C   UNL     1      32.456 -21.916 -17.612  0.00  0.00    +0.102 A 
ATOM      5  C   UNL     1      32.432 -23.122 -15.750  0.00  0.00    +0.075 A 
ATOM      6  C   UNL     1      34.688 -22.652 -16.464  0.00  0.00    +0.006 C 
ATOM      7  C   UNL     1      35.146 -23.370 -15.353  0.00  0.00    +0.033 C 
ATOM      8  C   UNL     1      32.868 -23.841 -14.636  0.00  0.00    +0.019 C 
ATOM      9  C   UNL     1      34.251 -23.953 -14.455  0.00  0.00    +0.004 C 
ATOM     10  H   UNL     1      30.356 -23.126 -15.753  0.00  0.00    +0.189 HD
ENDROOT
BRANCH   7  14
ATOM     11  N   UNL     1      37.489 -22.739 -15.770  0.00  0.00    -0.218 N 
ATOM     12  N   UNL     1      37.166 -24.347 -14.327  0.00  0.00    -0.206 NA
ATOM     13  N   UNL     1      38.734 -23.066 -15.389  0.00  0.00    -0.157 NA
ATOM     14  C   UNL     1      36.567 -23.506 -15.133  0.00  0.00    +0.149 C 
ATOM     15  C   UNL     1      38.484 -24.043 -14.516  0.00  0.00    +0.218 C 
ATOM     16  H   UNL     1      37.274 -22.036 -16.424  0.00  0.00    +0.176 HD
ENDBRANCH   7  14
BRANCH   4  18
ATOM     17  C   UNL     1      34.569 -20.103 -20.082  0.00  0.00    +0.138 C 
ATOM     18  C   UNL     1      32.853 -21.167 -18.771  0.00  0.00    +0.022 C 
ATOM     19  C   UNL     1      34.193 -20.828 -18.957  0.00  0.00    +0.038 C 
ATOM     20  C   UNL     1      33.623 -19.712 -21.023  0.00  0.00    +0.037 C 
ATOM     21  C   UNL     1      31.898 -20.778 -19.710  0.00  0.00    +0.002 C 
ATOM     22  C   UNL     1      32.282 -20.051 -20.836  0.00  0.00    +0.003 C 
BRANCH  17  23
ATOM     23  O   UNL     1      35.886 -19.771 -20.266  0.00  0.00    -0.478 OA
BRANCH  23  24
ATOM     24  C   UNL     1      36.152 -18.617 -21.054  0.00  0.00    +0.183 C 
BRANCH  24  25
ATOM     25  C   UNL     1      35.043 -17.603 -20.824  0.00  0.00    -0.029 C 
BRANCH  25  26
ATOM     26  N   UNL     1      34.949 -16.676 -21.952  0.00  0.00    +0.389 N 
ATOM     27  C   UNL     1      34.272 -17.316 -23.088  0.00  0.00    -0.077 C 
ATOM     28  C   UNL     1      34.261 -15.442 -21.548  0.00  0.00    -0.077 C 
ATOM     29  C   UNL     1      34.209 -16.376 -24.293  0.00  0.00    -0.023 C 
ATOM     30  C   UNL     1      34.198 -14.442 -22.703  0.00  0.00    -0.023 C 
ATOM     31  C   UNL     1      33.538 -15.055 -23.933  0.00  0.00    -0.004 C 
ATOM     32  H   UNL     1      35.893 -16.426 -22.249  0.00  0.00    -0.080 HD
ENDBRANCH  25  26
ENDBRANCH  24  25
ENDBRANCH  23  24
ENDBRANCH  17  23
ENDBRANCH   4  18
TORSDOF 6
ENDMDL
