MODEL 1
REMARK VINA RESULT:     -13.1      0.000      0.000
REMARK  Name = 46937052
REMARK  7 active torsions:
REMARK  status: ('A' for Active; 'I' for Inactive)
REMARK    1  A    between atoms: O_1  and  C_3
REMARK    2  A    between atoms: O_1  and  C_17
REMARK    3  A    between atoms: C_4  and  C_11
REMARK    4  A    between atoms: C_17  and  C_18
REMARK    5  A    between atoms: C_18  and  N_19
REMARK    6  A    between atoms: C_18  and  C_23
REMARK    7  A    between atoms: C_23  and  C_25
REMARK                            x       y       z     vdW  Elec       q    Type
REMARK                         _______ _______ _______ _____ _____    ______ ____
ROOT
ATOM      1  O   UNL     1      34.893 -20.333 -20.602  0.00  0.00    -0.476 OA
ENDROOT
BRANCH   1   3
ATOM      2  N   UNL     1      32.189 -21.807 -18.626  0.00  0.00    -0.239 NA
ATOM      3  C   UNL     1      34.249 -20.961 -19.568  0.00  0.00    +0.158 C 
ATOM      4  C   UNL     1      34.266 -22.021 -17.408  0.00  0.00    +0.039 C 
ATOM      5  C   UNL     1      34.946 -21.385 -18.442  0.00  0.00    +0.042 C 
ATOM      6  C   UNL     1      32.884 -21.194 -19.611  0.00  0.00    +0.136 C 
ATOM      7  C   UNL     1      32.900 -22.205 -17.548  0.00  0.00    +0.101 C 
BRANCH   4  11
ATOM      8  N   UNL     1      36.271 -22.476 -16.198  0.00  0.00    -0.264 NA
ATOM      9  N   UNL     1      36.612 -23.799 -12.752  0.00  0.00    -0.150 NA
ATOM     10  N   UNL     1      35.423 -24.122 -11.965  0.00  0.00    -0.147 NA
ATOM     11  C   UNL     1      34.982 -22.486 -16.190  0.00  0.00    +0.078 C 
ATOM     12  C   UNL     1      34.767 -23.346 -13.988  0.00  0.00    +0.040 C 
ATOM     13  C   UNL     1      36.207 -23.356 -13.912  0.00  0.00    +0.107 C 
ATOM     14  C   UNL     1      37.059 -22.914 -15.043  0.00  0.00    +0.173 C 
ATOM     15  C   UNL     1      34.116 -22.941 -15.066  0.00  0.00    +0.022 C 
ATOM     16  C   UNL     1      34.377 -23.858 -12.695  0.00  0.00    +0.123 C 
ENDBRANCH   4  11
ENDBRANCH   1   3
BRANCH   1  17
ATOM     17  C   UNL     1      35.919 -19.414 -20.254  0.00  0.00    +0.184 C 
BRANCH  17  18
ATOM     18  C   UNL     1      35.911 -18.214 -21.209  0.00  0.00    -0.017 C 
BRANCH  18  19
ATOM     19  N   UNL     1      37.230 -18.121 -21.841  0.00  0.00    +0.384 N 
ATOM     20  H   UNL     1      37.363 -18.913 -22.470  0.00  0.00    -0.089 HD
ATOM     21  H   UNL     1      37.953 -18.132 -21.122  0.00  0.00    -0.089 HD
ATOM     22  H   UNL     1      37.292 -17.252 -22.372  0.00  0.00    -0.089 HD
ENDBRANCH  18  19
BRANCH  18  23
ATOM     23  C   UNL     1      34.828 -18.323 -22.312  0.00  0.00    +0.010 C 
BRANCH  23  25
ATOM     24  N   UNL     1      33.968 -15.639 -24.768  0.00  0.00    -0.244 NA
ATOM     25  C   UNL     1      34.458 -17.042 -22.940  0.00  0.00    -0.004 C 
ATOM     26  C   UNL     1      34.182 -15.817 -22.478  0.00  0.00    +0.011 C 
ATOM     27  C   UNL     1      33.879 -14.943 -23.593  0.00  0.00    +0.080 C 
ATOM     28  C   UNL     1      34.299 -16.837 -24.389  0.00  0.00    +0.094 C 
ATOM     29  C   UNL     1      34.163 -15.345 -21.117  0.00  0.00    -0.020 C 
ATOM     30  C   UNL     1      33.568 -13.657 -23.393  0.00  0.00    +0.015 C 
ATOM     31  C   UNL     1      33.522 -13.070 -21.996  0.00  0.00    -0.020 C 
ATOM     32  C   UNL     1      33.853 -14.056 -20.889  0.00  0.00    +0.052 C 
ENDBRANCH  23  25
ENDBRANCH  18  23
ENDBRANCH  17  18
ENDBRANCH   1  17
TORSDOF 7
ENDMDL
MODEL 2
REMARK VINA RESULT:     -12.8      2.997     10.790
REMARK  Name = 46937052
REMARK  7 active torsions:
REMARK  status: ('A' for Active; 'I' for Inactive)
REMARK    1  A    between atoms: O_1  and  C_3
REMARK    2  A    between atoms: O_1  and  C_17
REMARK    3  A    between atoms: C_4  and  C_11
REMARK    4  A    between atoms: C_17  and  C_18
REMARK    5  A    between atoms: C_18  and  N_19
REMARK    6  A    between atoms: C_18  and  C_23
REMARK    7  A    between atoms: C_23  and  C_25
REMARK                            x       y       z     vdW  Elec       q    Type
REMARK                         _______ _______ _______ _____ _____    ______ ____
ROOT
ATOM      1  O   UNL     1      34.997 -16.701 -20.665  0.00  0.00    -0.476 OA
ENDROOT
BRANCH   1   3
ATOM      2  N   UNL     1      34.197 -15.383 -23.983  0.00  0.00    -0.239 NA
ATOM      3  C   UNL     1      34.508 -15.864 -21.635  0.00  0.00    +0.158 C 
ATOM      4  C   UNL     1      33.364 -13.857 -22.304  0.00  0.00    +0.039 C 
ATOM      5  C   UNL     1      33.850 -14.686 -21.299  0.00  0.00    +0.042 C 
ATOM      6  C   UNL     1      34.654 -16.165 -22.979  0.00  0.00    +0.136 C 
ATOM      7  C   UNL     1      33.562 -14.248 -23.619  0.00  0.00    +0.101 C 
BRANCH   4  11
ATOM      8  N   UNL     1      32.041 -12.507 -20.850  0.00  0.00    -0.264 NA
ATOM      9  N   UNL     1      30.845  -9.041 -21.402  0.00  0.00    -0.150 NA
ATOM     10  N   UNL     1      31.167  -8.340 -22.644  0.00  0.00    -0.147 NA
ATOM     11  C   UNL     1      32.656 -12.590 -21.979  0.00  0.00    +0.078 C 
ATOM     12  C   UNL     1      32.089 -10.407 -22.717  0.00  0.00    +0.040 C 
ATOM     13  C   UNL     1      31.387 -10.228 -21.470  0.00  0.00    +0.107 C 
ATOM     14  C   UNL     1      31.320 -11.298 -20.444  0.00  0.00    +0.173 C 
ATOM     15  C   UNL     1      32.718 -11.529 -23.023  0.00  0.00    +0.022 C 
ATOM     16  C   UNL     1      31.877  -9.143 -23.383  0.00  0.00    +0.123 C 
ENDBRANCH   4  11
ENDBRANCH   1   3
BRANCH   1  17
ATOM     17  C   UNL     1      35.521 -17.949 -21.101  0.00  0.00    +0.184 C 
BRANCH  17  18
ATOM     18  C   UNL     1      34.533 -19.081 -20.794  0.00  0.00    -0.017 C 
BRANCH  18  19
ATOM     19  N   UNL     1      33.714 -19.312 -21.987  0.00  0.00    +0.384 N 
ATOM     20  H   UNL     1      32.977 -18.609 -22.034  0.00  0.00    -0.089 HD
ATOM     21  H   UNL     1      33.295 -20.241 -21.937  0.00  0.00    -0.089 HD
ATOM     22  H   UNL     1      34.300 -19.247 -22.819  0.00  0.00    -0.089 HD
ENDBRANCH  18  19
BRANCH  18  23
ATOM     23  C   UNL     1      35.231 -20.405 -20.395  0.00  0.00    +0.010 C 
BRANCH  23  25
ATOM     24  N   UNL     1      32.784 -22.226 -18.234  0.00  0.00    -0.244 NA
ATOM     25  C   UNL     1      34.585 -21.134 -19.289  0.00  0.00    -0.004 C 
ATOM     26  C   UNL     1      34.987 -21.557 -18.085  0.00  0.00    +0.011 C 
ATOM     27  C   UNL     1      33.887 -22.232 -17.425  0.00  0.00    +0.080 C 
ATOM     28  C   UNL     1      33.188 -21.598 -19.297  0.00  0.00    +0.094 C 
ATOM     29  C   UNL     1      36.277 -21.417 -17.459  0.00  0.00    -0.020 C 
ATOM     30  C   UNL     1      34.035 -22.750 -16.200  0.00  0.00    +0.015 C 
ATOM     31  C   UNL     1      35.356 -22.650 -15.461  0.00  0.00    -0.020 C 
ATOM     32  C   UNL     1      36.451 -21.930 -16.227  0.00  0.00    +0.052 C 
ENDBRANCH  23  25
ENDBRANCH  18  23
ENDBRANCH  17  18
ENDBRANCH   1  17
TORSDOF 7
ENDMDL
MODEL 3
REMARK VINA RESULT:     -12.7      3.307      6.292
REMARK  Name = 46937052
REMARK  7 active torsions:
REMARK  status: ('A' for Active; 'I' for Inactive)
REMARK    1  A    between atoms: O_1  and  C_3
REMARK    2  A    between atoms: O_1  and  C_17
REMARK    3  A    between atoms: C_4  and  C_11
REMARK    4  A    between atoms: C_17  and  C_18
REMARK    5  A    between atoms: C_18  and  N_19
REMARK    6  A    between atoms: C_18  and  C_23
REMARK    7  A    between atoms: C_23  and  C_25
REMARK                            x       y       z     vdW  Elec       q    Type
REMARK                         _______ _______ _______ _____ _____    ______ ____
ROOT
ATOM      1  O   UNL     1      34.594 -14.836 -22.851  0.00  0.00    -0.476 OA
ENDROOT
BRANCH   1   3
ATOM      2  N   UNL     1      33.697 -18.054 -24.343  0.00  0.00    -0.239 NA
ATOM      3  C   UNL     1      34.379 -16.184 -22.970  0.00  0.00    +0.158 C 
ATOM      4  C   UNL     1      34.381 -18.408 -22.052  0.00  0.00    +0.039 C 
ATOM      5  C   UNL     1      34.607 -17.044 -21.902  0.00  0.00    +0.042 C 
ATOM      6  C   UNL     1      33.929 -16.734 -24.159  0.00  0.00    +0.136 C 
ATOM      7  C   UNL     1      33.930 -18.858 -23.283  0.00  0.00    +0.101 C 
BRANCH   4  11
ATOM      8  N   UNL     1      35.815 -19.483 -20.478  0.00  0.00    -0.264 NA
ATOM      9  N   UNL     1      34.910 -21.981 -17.893  0.00  0.00    -0.150 NA
ATOM     10  N   UNL     1      33.526 -22.432 -17.757  0.00  0.00    -0.147 NA
ATOM     11  C   UNL     1      34.615 -19.354 -20.927  0.00  0.00    +0.078 C 
ATOM     12  C   UNL     1      33.634 -20.916 -19.435  0.00  0.00    +0.040 C 
ATOM     13  C   UNL     1      34.945 -21.110 -18.866  0.00  0.00    +0.107 C 
ATOM     14  C   UNL     1      36.138 -20.388 -19.372  0.00  0.00    +0.173 C 
ATOM     15  C   UNL     1      33.411 -20.083 -20.438  0.00  0.00    +0.022 C 
ATOM     16  C   UNL     1      32.814 -21.811 -18.653  0.00  0.00    +0.123 C 
ENDBRANCH   4  11
ENDBRANCH   1   3
BRANCH   1  17
ATOM     17  C   UNL     1      33.686 -14.113 -22.030  0.00  0.00    +0.184 C 
BRANCH  17  18
ATOM     18  C   UNL     1      33.028 -12.980 -22.828  0.00  0.00    -0.017 C 
BRANCH  18  19
ATOM     19  N   UNL     1      32.615 -13.514 -24.129  0.00  0.00    +0.384 N 
ATOM     20  H   UNL     1      32.835 -14.509 -24.173  0.00  0.00    -0.089 HD
ATOM     21  H   UNL     1      33.112 -13.022 -24.871  0.00  0.00    -0.089 HD
ATOM     22  H   UNL     1      31.610 -13.383 -24.247  0.00  0.00    -0.089 HD
ENDBRANCH  18  19
BRANCH  18  23
ATOM     23  C   UNL     1      31.794 -12.373 -22.115  0.00  0.00    +0.010 C 
BRANCH  23  25
ATOM     24  N   UNL     1      31.894  -8.754 -23.045  0.00  0.00    -0.244 NA
ATOM     25  C   UNL     1      31.764 -10.900 -22.083  0.00  0.00    -0.004 C 
ATOM     26  C   UNL     1      31.582  -9.987 -21.121  0.00  0.00    +0.011 C 
ATOM     27  C   UNL     1      31.660  -8.662 -21.700  0.00  0.00    +0.080 C 
ATOM     28  C   UNL     1      31.952 -10.034 -23.258  0.00  0.00    +0.094 C 
ATOM     29  C   UNL     1      31.342 -10.189 -19.715  0.00  0.00    -0.020 C 
ATOM     30  C   UNL     1      31.510  -7.570 -20.940  0.00  0.00    +0.015 C 
ATOM     31  C   UNL     1      31.255  -7.682 -19.450  0.00  0.00    -0.020 C 
ATOM     32  C   UNL     1      31.188  -9.107 -18.930  0.00  0.00    +0.052 C 
ENDBRANCH  23  25
ENDBRANCH  18  23
ENDBRANCH  17  18
ENDBRANCH   1  17
TORSDOF 7
ENDMDL
MODEL 4
REMARK VINA RESULT:     -12.5      2.371      3.325
REMARK  Name = 46937052
REMARK  7 active torsions:
REMARK  status: ('A' for Active; 'I' for Inactive)
REMARK    1  A    between atoms: O_1  and  C_3
REMARK    2  A    between atoms: O_1  and  C_17
REMARK    3  A    between atoms: C_4  and  C_11
REMARK    4  A    between atoms: C_17  and  C_18
REMARK    5  A    between atoms: C_18  and  N_19
REMARK    6  A    between atoms: C_18  and  C_23
REMARK    7  A    between atoms: C_23  and  C_25
REMARK                            x       y       z     vdW  Elec       q    Type
REMARK                         _______ _______ _______ _____ _____    ______ ____
ROOT
ATOM      1  O   UNL     1      34.762 -21.101 -19.772  0.00  0.00    -0.476 OA
ENDROOT
BRANCH   1   3
ATOM      2  N   UNL     1      36.360 -21.794 -16.554  0.00  0.00    -0.239 NA
ATOM      3  C   UNL     1      34.918 -21.516 -18.475  0.00  0.00    +0.158 C 
ATOM      4  C   UNL     1      34.042 -22.476 -16.450  0.00  0.00    +0.039 C 
ATOM      5  C   UNL     1      33.855 -22.064 -17.765  0.00  0.00    +0.042 C 
ATOM      6  C   UNL     1      36.139 -21.404 -17.830  0.00  0.00    +0.136 C 
ATOM      7  C   UNL     1      35.303 -22.321 -15.896  0.00  0.00    +0.101 C 
BRANCH   4  11
ATOM      8  N   UNL     1      33.212 -23.700 -14.579  0.00  0.00    -0.264 NA
ATOM      9  N   UNL     1      29.692 -24.538 -13.772  0.00  0.00    -0.150 NA
ATOM     10  N   UNL     1      28.611 -24.115 -14.663  0.00  0.00    -0.147 NA
ATOM     11  C   UNL     1      32.926 -23.066 -15.663  0.00  0.00    +0.078 C 
ATOM     12  C   UNL     1      30.580 -23.397 -15.519  0.00  0.00    +0.040 C 
ATOM     13  C   UNL     1      30.814 -24.113 -14.289  0.00  0.00    +0.107 C 
ATOM     14  C   UNL     1      32.178 -24.311 -13.741  0.00  0.00    +0.173 C 
ATOM     15  C   UNL     1      31.563 -22.872 -16.233  0.00  0.00    +0.022 C 
ATOM     16  C   UNL     1      29.144 -23.467 -15.658  0.00  0.00    +0.123 C 
ENDBRANCH   4  11
ENDBRANCH   1   3
BRANCH   1  17
ATOM     17  C   UNL     1      35.630 -20.069 -20.223  0.00  0.00    +0.184 C 
BRANCH  17  18
ATOM     18  C   UNL     1      34.885 -19.117 -21.166  0.00  0.00    -0.017 C 
BRANCH  18  19
ATOM     19  N   UNL     1      33.448 -19.372 -21.037  0.00  0.00    +0.384 N 
ATOM     20  H   UNL     1      33.008 -18.596 -20.543  0.00  0.00    -0.089 HD
ATOM     21  H   UNL     1      33.301 -20.235 -20.512  0.00  0.00    -0.089 HD
ATOM     22  H   UNL     1      33.034 -19.464 -21.965  0.00  0.00    -0.089 HD
ENDBRANCH  18  19
BRANCH  18  23
ATOM     23  C   UNL     1      35.162 -17.623 -20.865  0.00  0.00    +0.010 C 
BRANCH  23  25
ATOM     24  N   UNL     1      34.202 -16.041 -24.113  0.00  0.00    -0.244 NA
ATOM     25  C   UNL     1      34.690 -16.687 -21.901  0.00  0.00    -0.004 C 
ATOM     26  C   UNL     1      34.207 -15.439 -21.886  0.00  0.00    +0.011 C 
ATOM     27  C   UNL     1      33.904 -15.029 -23.242  0.00  0.00    +0.080 C 
ATOM     28  C   UNL     1      34.651 -16.985 -23.342  0.00  0.00    +0.094 C 
ATOM     29  C   UNL     1      33.988 -14.565 -20.761  0.00  0.00    -0.020 C 
ATOM     30  C   UNL     1      33.405 -13.813 -23.496  0.00  0.00    +0.015 C 
ATOM     31  C   UNL     1      33.142 -12.824 -22.377  0.00  0.00    -0.020 C 
ATOM     32  C   UNL     1      33.488 -13.338 -20.991  0.00  0.00    +0.052 C 
ENDBRANCH  23  25
ENDBRANCH  18  23
ENDBRANCH  17  18
ENDBRANCH   1  17
TORSDOF 7
ENDMDL
MODEL 5
REMARK VINA RESULT:     -12.5      3.164     11.001
REMARK  Name = 46937052
REMARK  7 active torsions:
REMARK  status: ('A' for Active; 'I' for Inactive)
REMARK    1  A    between atoms: O_1  and  C_3
REMARK    2  A    between atoms: O_1  and  C_17
REMARK    3  A    between atoms: C_4  and  C_11
REMARK    4  A    between atoms: C_17  and  C_18
REMARK    5  A    between atoms: C_18  and  N_19
REMARK    6  A    between atoms: C_18  and  C_23
REMARK    7  A    between atoms: C_23  and  C_25
REMARK                            x       y       z     vdW  Elec       q    Type
REMARK                         _______ _______ _______ _____ _____    ______ ____
ROOT
ATOM      1  O   UNL     1      34.828 -16.447 -22.532  0.00  0.00    -0.476 OA
ENDROOT
BRANCH   1   3
ATOM      2  N   UNL     1      33.275 -14.778 -25.394  0.00  0.00    -0.239 NA
ATOM      3  C   UNL     1      34.144 -15.507 -23.259  0.00  0.00    +0.158 C 
ATOM      4  C   UNL     1      32.941 -13.430 -23.415  0.00  0.00    +0.039 C 
ATOM      5  C   UNL     1      33.632 -14.366 -22.653  0.00  0.00    +0.042 C 
ATOM      6  C   UNL     1      33.940 -15.665 -24.620  0.00  0.00    +0.136 C 
ATOM      7  C   UNL     1      32.792 -13.681 -24.770  0.00  0.00    +0.101 C 
BRANCH   4  11
ATOM      8  N   UNL     1      31.684 -12.317 -21.721  0.00  0.00    -0.264 NA
ATOM      9  N   UNL     1      31.016  -8.687 -21.380  0.00  0.00    -0.150 NA
ATOM     10  N   UNL     1      31.538  -7.745 -22.369  0.00  0.00    -0.147 NA
ATOM     11  C   UNL     1      32.382 -12.198 -22.797  0.00  0.00    +0.078 C 
ATOM     12  C   UNL     1      32.179  -9.838 -22.949  0.00  0.00    +0.040 C 
ATOM     13  C   UNL     1      31.398  -9.884 -21.737  0.00  0.00    +0.107 C 
ATOM     14  C   UNL     1      31.097 -11.160 -21.042  0.00  0.00    +0.173 C 
ATOM     15  C   UNL     1      32.679 -10.925 -23.513  0.00  0.00    +0.022 C 
ATOM     16  C   UNL     1      32.199  -8.428 -23.260  0.00  0.00    +0.123 C 
ENDBRANCH   4  11
ENDBRANCH   1   3
BRANCH   1  17
ATOM     17  C   UNL     1      34.545 -17.810 -22.819  0.00  0.00    +0.184 C 
BRANCH  17  18
ATOM     18  C   UNL     1      35.070 -18.714 -21.696  0.00  0.00    -0.017 C 
BRANCH  18  19
ATOM     19  N   UNL     1      35.645 -17.862 -20.651  0.00  0.00    +0.384 N 
ATOM     20  H   UNL     1      36.199 -18.434 -20.014  0.00  0.00    -0.089 HD
ATOM     21  H   UNL     1      34.894 -17.406 -20.133  0.00  0.00    -0.089 HD
ATOM     22  H   UNL     1      36.242 -17.155 -21.080  0.00  0.00    -0.089 HD
ENDBRANCH  18  19
BRANCH  18  23
ATOM     23  C   UNL     1      33.971 -19.609 -21.072  0.00  0.00    +0.010 C 
BRANCH  23  25
ATOM     24  N   UNL     1      36.025 -21.381 -18.501  0.00  0.00    -0.244 NA
ATOM     25  C   UNL     1      34.413 -20.414 -19.920  0.00  0.00    -0.004 C 
ATOM     26  C   UNL     1      33.782 -21.106 -18.963  0.00  0.00    +0.011 C 
ATOM     27  C   UNL     1      34.764 -21.706 -18.083  0.00  0.00    +0.080 C 
ATOM     28  C   UNL     1      35.819 -20.643 -19.550  0.00  0.00    +0.094 C 
ATOM     29  C   UNL     1      32.368 -21.283 -18.757  0.00  0.00    -0.020 C 
ATOM     30  C   UNL     1      34.384 -22.453 -17.039  0.00  0.00    +0.015 C 
ATOM     31  C   UNL     1      32.918 -22.697 -16.742  0.00  0.00    -0.020 C 
ATOM     32  C   UNL     1      31.961 -22.030 -17.714  0.00  0.00    +0.052 C 
ENDBRANCH  23  25
ENDBRANCH  18  23
ENDBRANCH  17  18
ENDBRANCH   1  17
TORSDOF 7
ENDMDL
MODEL 6
REMARK VINA RESULT:     -12.4      3.060      5.990
REMARK  Name = 46937052
REMARK  7 active torsions:
REMARK  status: ('A' for Active; 'I' for Inactive)
REMARK    1  A    between atoms: O_1  and  C_3
REMARK    2  A    between atoms: O_1  and  C_17
REMARK    3  A    between atoms: C_4  and  C_11
REMARK    4  A    between atoms: C_17  and  C_18
REMARK    5  A    between atoms: C_18  and  N_19
REMARK    6  A    between atoms: C_18  and  C_23
REMARK    7  A    between atoms: C_23  and  C_25
REMARK                            x       y       z     vdW  Elec       q    Type
REMARK                         _______ _______ _______ _____ _____    ______ ____
ROOT
ATOM      1  O   UNL     1      36.011 -22.977 -15.840  0.00  0.00    -0.476 OA
ENDROOT
BRANCH   1   3
ATOM      2  N   UNL     1      34.539 -23.473 -12.528  0.00  0.00    -0.239 NA
ATOM      3  C   UNL     1      35.068 -23.201 -14.871  0.00  0.00    +0.158 C 
ATOM      4  C   UNL     1      32.795 -23.605 -14.197  0.00  0.00    +0.039 C 
ATOM      5  C   UNL     1      33.730 -23.381 -15.201  0.00  0.00    +0.042 C 
ATOM      6  C   UNL     1      35.418 -23.255 -13.532  0.00  0.00    +0.136 C 
ATOM      7  C   UNL     1      33.247 -23.642 -12.887  0.00  0.00    +0.101 C 
BRANCH   4  11
ATOM      8  N   UNL     1      30.763 -24.846 -14.050  0.00  0.00    -0.264 NA
ATOM      9  N   UNL     1      27.475 -24.041 -15.560  0.00  0.00    -0.150 NA
ATOM     10  N   UNL     1      27.314 -22.837 -16.376  0.00  0.00    -0.147 NA
ATOM     11  C   UNL     1      31.355 -23.802 -14.517  0.00  0.00    +0.078 C 
ATOM     12  C   UNL     1      29.456 -22.941 -15.651  0.00  0.00    +0.040 C 
ATOM     13  C   UNL     1      28.717 -24.077 -15.157  0.00  0.00    +0.107 C 
ATOM     14  C   UNL     1      29.348 -25.120 -14.311  0.00  0.00    +0.173 C 
ATOM     15  C   UNL     1      30.737 -22.755 -15.379  0.00  0.00    +0.022 C 
ATOM     16  C   UNL     1      28.462 -22.225 -16.416  0.00  0.00    +0.123 C 
ENDBRANCH   4  11
ENDBRANCH   1   3
BRANCH   1  17
ATOM     17  C   UNL     1      36.737 -21.758 -15.759  0.00  0.00    +0.184 C 
BRANCH  17  18
ATOM     18  C   UNL     1      36.288 -20.792 -16.862  0.00  0.00    -0.017 C 
BRANCH  18  19
ATOM     19  N   UNL     1      37.247 -19.686 -16.924  0.00  0.00    +0.384 N 
ATOM     20  H   UNL     1      38.138 -19.987 -16.527  0.00  0.00    -0.089 HD
ATOM     21  H   UNL     1      36.888 -18.894 -16.391  0.00  0.00    -0.089 HD
ATOM     22  H   UNL     1      37.385 -19.409 -17.896  0.00  0.00    -0.089 HD
ENDBRANCH  18  19
BRANCH  18  23
ATOM     23  C   UNL     1      36.198 -21.462 -18.256  0.00  0.00    +0.010 C 
BRANCH  23  25
ATOM     24  N   UNL     1      33.113 -20.509 -20.140  0.00  0.00    -0.244 NA
ATOM     25  C   UNL     1      35.241 -20.831 -19.182  0.00  0.00    -0.004 C 
ATOM     26  C   UNL     1      35.332 -19.881 -20.121  0.00  0.00    +0.011 C 
ATOM     27  C   UNL     1      34.029 -19.673 -20.718  0.00  0.00    +0.080 C 
ATOM     28  C   UNL     1      33.810 -21.167 -19.264  0.00  0.00    +0.094 C 
ATOM     29  C   UNL     1      36.488 -19.130 -20.540  0.00  0.00    -0.020 C 
ATOM     30  C   UNL     1      33.855 -18.769 -21.689  0.00  0.00    +0.015 C 
ATOM     31  C   UNL     1      35.013 -17.932 -22.197  0.00  0.00    -0.020 C 
ATOM     32  C   UNL     1      36.339 -18.215 -21.515  0.00  0.00    +0.052 C 
ENDBRANCH  23  25
ENDBRANCH  18  23
ENDBRANCH  17  18
ENDBRANCH   1  17
TORSDOF 7
ENDMDL
MODEL 7
REMARK VINA RESULT:     -12.4      3.879      7.205
REMARK  Name = 46937052
REMARK  7 active torsions:
REMARK  status: ('A' for Active; 'I' for Inactive)
REMARK    1  A    between atoms: O_1  and  C_3
REMARK    2  A    between atoms: O_1  and  C_17
REMARK    3  A    between atoms: C_4  and  C_11
REMARK    4  A    between atoms: C_17  and  C_18
REMARK    5  A    between atoms: C_18  and  N_19
REMARK    6  A    between atoms: C_18  and  C_23
REMARK    7  A    between atoms: C_23  and  C_25
REMARK                            x       y       z     vdW  Elec       q    Type
REMARK                         _______ _______ _______ _____ _____    ______ ____
ROOT
ATOM      1  O   UNL     1      34.213 -13.831 -22.356  0.00  0.00    -0.476 OA
ENDROOT
BRANCH   1   3
ATOM      2  N   UNL     1      33.905 -16.847 -24.403  0.00  0.00    -0.239 NA
ATOM      3  C   UNL     1      34.219 -15.157 -22.703  0.00  0.00    +0.158 C 
ATOM      4  C   UNL     1      34.526 -17.478 -22.153  0.00  0.00    +0.039 C 
ATOM      5  C   UNL     1      34.527 -16.141 -21.771  0.00  0.00    +0.042 C 
ATOM      6  C   UNL     1      33.918 -15.558 -23.995  0.00  0.00    +0.136 C 
ATOM      7  C   UNL     1      34.210 -17.776 -23.469  0.00  0.00    +0.101 C 
BRANCH   4  11
ATOM      8  N   UNL     1      36.047 -18.607 -20.703  0.00  0.00    -0.264 NA
ATOM      9  N   UNL     1      35.405 -21.576 -18.578  0.00  0.00    -0.150 NA
ATOM     10  N   UNL     1      34.086 -22.209 -18.574  0.00  0.00    -0.147 NA
ATOM     11  C   UNL     1      34.851 -18.555 -21.180  0.00  0.00    +0.078 C 
ATOM     12  C   UNL     1      34.041 -20.443 -19.991  0.00  0.00    +0.040 C 
ATOM     13  C   UNL     1      35.352 -20.564 -19.402  0.00  0.00    +0.107 C 
ATOM     14  C   UNL     1      36.455 -19.631 -19.739  0.00  0.00    +0.173 C 
ATOM     15  C   UNL     1      33.738 -19.494 -20.862  0.00  0.00    +0.022 C 
ATOM     16  C   UNL     1      33.322 -21.544 -19.393  0.00  0.00    +0.123 C 
ENDBRANCH   4  11
ENDBRANCH   1   3
BRANCH   1  17
ATOM     17  C   UNL     1      33.146 -13.391 -21.526  0.00  0.00    +0.184 C 
BRANCH  17  18
ATOM     18  C   UNL     1      32.515 -12.114 -22.096  0.00  0.00    -0.017 C 
BRANCH  18  19
ATOM     19  N   UNL     1      32.162 -12.362 -23.497  0.00  0.00    +0.384 N 
ATOM     20  H   UNL     1      31.351 -11.797 -23.748  0.00  0.00    -0.089 HD
ATOM     21  H   UNL     1      31.940 -13.350 -23.622  0.00  0.00    -0.089 HD
ATOM     22  H   UNL     1      32.949 -12.112 -24.095  0.00  0.00    -0.089 HD
ENDBRANCH  18  19
BRANCH  18  23
ATOM     23  C   UNL     1      31.248 -11.666 -21.326  0.00  0.00    +0.010 C 
BRANCH  23  25
ATOM     24  N   UNL     1      31.659  -8.924 -18.819  0.00  0.00    -0.244 NA
ATOM     25  C   UNL     1      31.360 -10.352 -20.668  0.00  0.00    -0.004 C 
ATOM     26  C   UNL     1      31.301  -9.084 -21.092  0.00  0.00    +0.011 C 
ATOM     27  C   UNL     1      31.484  -8.195 -19.964  0.00  0.00    +0.080 C 
ATOM     28  C   UNL     1      31.587 -10.155 -19.228  0.00  0.00    +0.094 C 
ATOM     29  C   UNL     1      31.096  -8.584 -22.428  0.00  0.00    -0.020 C 
ATOM     30  C   UNL     1      31.467  -6.866 -20.126  0.00  0.00    +0.015 C 
ATOM     31  C   UNL     1      31.257  -6.247 -21.494  0.00  0.00    -0.020 C 
ATOM     32  C   UNL     1      31.075  -7.252 -22.617  0.00  0.00    +0.052 C 
ENDBRANCH  23  25
ENDBRANCH  18  23
ENDBRANCH  17  18
ENDBRANCH   1  17
TORSDOF 7
ENDMDL
MODEL 8
REMARK VINA RESULT:     -12.3      2.307      3.118
REMARK  Name = 46937052
REMARK  7 active torsions:
REMARK  status: ('A' for Active; 'I' for Inactive)
REMARK    1  A    between atoms: O_1  and  C_3
REMARK    2  A    between atoms: O_1  and  C_17
REMARK    3  A    between atoms: C_4  and  C_11
REMARK    4  A    between atoms: C_17  and  C_18
REMARK    5  A    between atoms: C_18  and  N_19
REMARK    6  A    between atoms: C_18  and  C_23
REMARK    7  A    between atoms: C_23  and  C_25
REMARK                            x       y       z     vdW  Elec       q    Type
REMARK                         _______ _______ _______ _____ _____    ______ ____
ROOT
ATOM      1  O   UNL     1      33.265 -20.014 -20.868  0.00  0.00    -0.476 OA
ENDROOT
BRANCH   1   3
ATOM      2  N   UNL     1      35.396 -21.691 -18.412  0.00  0.00    -0.239 NA
ATOM      3  C   UNL     1      33.633 -20.729 -19.758  0.00  0.00    +0.158 C 
ATOM      4  C   UNL     1      33.084 -21.932 -17.749  0.00  0.00    +0.039 C 
ATOM      5  C   UNL     1      32.681 -21.211 -18.867  0.00  0.00    +0.042 C 
ATOM      6  C   UNL     1      34.966 -20.993 -19.488  0.00  0.00    +0.136 C 
ATOM      7  C   UNL     1      34.442 -22.143 -17.569  0.00  0.00    +0.101 C 
BRANCH   4  11
ATOM      8  N   UNL     1      30.838 -22.322 -17.047  0.00  0.00    -0.264 NA
ATOM      9  N   UNL     1      29.665 -23.999 -13.956  0.00  0.00    -0.150 NA
ATOM     10  N   UNL     1      30.630 -24.505 -12.981  0.00  0.00    -0.147 NA
ATOM     11  C   UNL     1      32.090 -22.462 -16.777  0.00  0.00    +0.078 C 
ATOM     12  C   UNL     1      31.762 -23.570 -14.704  0.00  0.00    +0.040 C 
ATOM     13  C   UNL     1      30.342 -23.465 -14.937  0.00  0.00    +0.107 C 
ATOM     14  C   UNL     1      29.790 -22.814 -16.150  0.00  0.00    +0.173 C 
ATOM     15  C   UNL     1      32.658 -23.099 -15.556  0.00  0.00    +0.022 C 
ATOM     16  C   UNL     1      31.824 -24.246 -13.429  0.00  0.00    +0.123 C 
ENDBRANCH   4  11
ENDBRANCH   1   3
BRANCH   1  17
ATOM     17  C   UNL     1      33.854 -18.731 -21.029  0.00  0.00    +0.184 C 
BRANCH  17  18
ATOM     18  C   UNL     1      34.563 -18.633 -22.385  0.00  0.00    -0.017 C 
BRANCH  18  19
ATOM     19  N   UNL     1      33.550 -18.722 -23.441  0.00  0.00    +0.384 N 
ATOM     20  H   UNL     1      32.962 -19.539 -23.279  0.00  0.00    -0.089 HD
ATOM     21  H   UNL     1      34.010 -18.808 -24.347  0.00  0.00    -0.089 HD
ATOM     22  H   UNL     1      32.973 -17.881 -23.430  0.00  0.00    -0.089 HD
ENDBRANCH  18  19
BRANCH  18  23
ATOM     23  C   UNL     1      35.362 -17.317 -22.560  0.00  0.00    +0.010 C 
BRANCH  23  25
ATOM     24  N   UNL     1      33.500 -14.886 -24.704  0.00  0.00    -0.244 NA
ATOM     25  C   UNL     1      34.568 -16.174 -23.047  0.00  0.00    -0.004 C 
ATOM     26  C   UNL     1      33.994 -15.116 -22.463  0.00  0.00    +0.011 C 
ATOM     27  C   UNL     1      33.333 -14.315 -23.472  0.00  0.00    +0.080 C 
ATOM     28  C   UNL     1      34.206 -15.948 -24.455  0.00  0.00    +0.094 C 
ATOM     29  C   UNL     1      33.978 -14.747 -21.070  0.00  0.00    -0.020 C 
ATOM     30  C   UNL     1      32.680 -13.194 -23.141  0.00  0.00    +0.015 C 
ATOM     31  C   UNL     1      32.610 -12.725 -21.701  0.00  0.00    -0.020 C 
ATOM     32  C   UNL     1      33.329 -13.625 -20.711  0.00  0.00    +0.052 C 
ENDBRANCH  23  25
ENDBRANCH  18  23
ENDBRANCH  17  18
ENDBRANCH   1  17
TORSDOF 7
ENDMDL
MODEL 9
REMARK VINA RESULT:     -12.3      1.388      2.205
REMARK  Name = 46937052
REMARK  7 active torsions:
REMARK  status: ('A' for Active; 'I' for Inactive)
REMARK    1  A    between atoms: O_1  and  C_3
REMARK    2  A    between atoms: O_1  and  C_17
REMARK    3  A    between atoms: C_4  and  C_11
REMARK    4  A    between atoms: C_17  and  C_18
REMARK    5  A    between atoms: C_18  and  N_19
REMARK    6  A    between atoms: C_18  and  C_23
REMARK    7  A    between atoms: C_23  and  C_25
REMARK                            x       y       z     vdW  Elec       q    Type
REMARK                         _______ _______ _______ _____ _____    ______ ____
ROOT
ATOM      1  O   UNL     1      35.359 -19.795 -20.292  0.00  0.00    -0.476 OA
ENDROOT
BRANCH   1   3
ATOM      2  N   UNL     1      32.368 -21.512 -19.071  0.00  0.00    -0.239 NA
ATOM      3  C   UNL     1      34.557 -20.583 -19.509  0.00  0.00    +0.158 C 
ATOM      4  C   UNL     1      34.229 -22.036 -17.620  0.00  0.00    +0.039 C 
ATOM      5  C   UNL     1      35.066 -21.242 -18.396  0.00  0.00    +0.042 C 
ATOM      6  C   UNL     1      33.213 -20.750 -19.802  0.00  0.00    +0.136 C 
ATOM      7  C   UNL     1      32.899 -22.137 -17.997  0.00  0.00    +0.101 C 
BRANCH   4  11
ATOM      8  N   UNL     1      33.948 -23.555 -15.803  0.00  0.00    -0.264 NA
ATOM      9  N   UNL     1      36.433 -24.534 -13.232  0.00  0.00    -0.150 NA
ATOM     10  N   UNL     1      37.777 -23.957 -13.249  0.00  0.00    -0.147 NA
ATOM     11  C   UNL     1      34.743 -22.753 -16.422  0.00  0.00    +0.078 C 
ATOM     12  C   UNL     1      36.597 -23.100 -14.981  0.00  0.00    +0.040 C 
ATOM     13  C   UNL     1      35.775 -24.023 -14.238  0.00  0.00    +0.107 C 
ATOM     14  C   UNL     1      34.368 -24.304 -14.617  0.00  0.00    +0.173 C 
ATOM     15  C   UNL     1      36.153 -22.450 -16.044  0.00  0.00    +0.022 C 
ATOM     16  C   UNL     1      37.846 -23.136 -14.258  0.00  0.00    +0.123 C 
ENDBRANCH   4  11
ENDBRANCH   1   3
BRANCH   1  17
ATOM     17  C   UNL     1      34.706 -18.941 -21.223  0.00  0.00    +0.184 C 
BRANCH  17  18
ATOM     18  C   UNL     1      35.546 -17.684 -21.478  0.00  0.00    -0.017 C 
BRANCH  18  19
ATOM     19  N   UNL     1      36.883 -18.103 -21.906  0.00  0.00    +0.384 N 
ATOM     20  H   UNL     1      37.587 -17.583 -21.381  0.00  0.00    -0.089 HD
ATOM     21  H   UNL     1      36.996 -17.917 -22.902  0.00  0.00    -0.089 HD
ATOM     22  H   UNL     1      36.998 -19.102 -21.731  0.00  0.00    -0.089 HD
ENDBRANCH  18  19
BRANCH  18  23
ATOM     23  C   UNL     1      34.937 -16.755 -22.557  0.00  0.00    +0.010 C 
BRANCH  23  25
ATOM     24  N   UNL     1      33.575 -14.090 -20.318  0.00  0.00    -0.244 NA
ATOM     25  C   UNL     1      34.294 -15.537 -22.030  0.00  0.00    -0.004 C 
ATOM     26  C   UNL     1      33.693 -14.479 -22.588  0.00  0.00    +0.011 C 
ATOM     27  C   UNL     1      33.246 -13.580 -21.544  0.00  0.00    +0.080 C 
ATOM     28  C   UNL     1      34.173 -15.207 -20.601  0.00  0.00    +0.094 C 
ATOM     29  C   UNL     1      33.479 -14.190 -23.983  0.00  0.00    -0.020 C 
ATOM     30  C   UNL     1      32.611 -12.441 -21.845  0.00  0.00    +0.015 C 
ATOM     31  C   UNL     1      32.340 -12.052 -23.285  0.00  0.00    -0.020 C 
ATOM     32  C   UNL     1      32.844 -13.050 -24.311  0.00  0.00    +0.052 C 
ENDBRANCH  23  25
ENDBRANCH  18  23
ENDBRANCH  17  18
ENDBRANCH   1  17
TORSDOF 7
ENDMDL
