MODEL 1
REMARK VINA RESULT:     -11.8      0.000      0.000
REMARK  Name = 24963036
REMARK  7 active torsions:
REMARK  status: ('A' for Active; 'I' for Inactive)
REMARK    1  A    between atoms: N_2  and  C_20
REMARK    2  A    between atoms: C_3  and  C_7
REMARK    3  A    between atoms: C_11  and  C_12
REMARK    4  A    between atoms: C_12  and  O_13
REMARK    5  A    between atoms: O_13  and  C_14
REMARK    6  A    between atoms: C_20  and  C_21
REMARK    7  A    between atoms: C_26  and  C_29
REMARK                            x       y       z     vdW  Elec       q    Type
REMARK                         _______ _______ _______ _____ _____    ______ ____
ROOT
ATOM      1  O   UNL     1      31.959 -24.658 -12.945  0.00  0.00    -0.273 OA
ATOM      2  N   UNL     1      33.837 -23.298 -12.739  0.00  0.00    -0.299 N 
ATOM      3  C   UNL     1      32.564 -23.615 -13.179  0.00  0.00    +0.241 C 
ATOM      4  H   UNL     1      34.217 -22.426 -12.993  0.00  0.00    +0.150 HD
ENDROOT
BRANCH   3   7
ATOM      5  O   UNL     1      34.348 -22.362 -15.557  0.00  0.00    -0.272 OA
ATOM      6  N   UNL     1      32.096 -22.866 -15.388  0.00  0.00    -0.271 N 
ATOM      7  C   UNL     1      31.949 -22.509 -13.984  0.00  0.00    +0.152 C 
ATOM      8  C   UNL     1      30.444 -22.416 -13.762  0.00  0.00    +0.031 C 
ATOM      9  C   UNL     1      29.874 -23.400 -14.781  0.00  0.00    +0.024 C 
ATOM     10  C   UNL     1      30.813 -23.256 -15.969  0.00  0.00    +0.094 C 
ATOM     11  C   UNL     1      33.283 -22.692 -16.082  0.00  0.00    +0.256 C 
BRANCH  11  12
ATOM     12  C   UNL     1      33.212 -22.946 -17.567  0.00  0.00    +0.227 C 
BRANCH  12  13
ATOM     13  O   UNL     1      34.445 -22.535 -18.105  0.00  0.00    -0.347 OA
BRANCH  13  14
ATOM     14  C   UNL     1      34.282 -21.781 -19.301  0.00  0.00    +0.116 C 
ATOM     15  C   UNL     1      32.964 -21.009 -19.244  0.00  0.00    +0.030 C 
ATOM     16  C   UNL     1      35.475 -20.844 -19.483  0.00  0.00    +0.030 C 
ATOM     17  C   UNL     1      32.788 -20.107 -20.462  0.00  0.00    +0.002 C 
ATOM     18  C   UNL     1      35.300 -19.943 -20.702  0.00  0.00    +0.002 C 
ATOM     19  C   UNL     1      33.982 -19.173 -20.646  0.00  0.00    +0.000 C 
ENDBRANCH  13  14
ENDBRANCH  12  13
ENDBRANCH  11  12
ENDBRANCH   3   7
BRANCH   2  20
ATOM     20  C   UNL     1      34.636 -24.186 -11.925  0.00  0.00    +0.116 C 
BRANCH  20  21
ATOM     21  C   UNL     1      35.925 -24.558 -12.598  0.00  0.00    -0.003 C 
ATOM     22  C   UNL     1      35.917 -25.010 -13.918  0.00  0.00    -0.003 C 
ATOM     23  C   UNL     1      37.130 -24.453 -11.904  0.00  0.00    -0.003 C 
ATOM     24  C   UNL     1      37.115 -25.357 -14.544  0.00  0.00    +0.002 C 
ATOM     25  C   UNL     1      38.328 -24.799 -12.530  0.00  0.00    +0.002 C 
ATOM     26  C   UNL     1      38.321 -25.251 -13.849  0.00  0.00    +0.031 C 
BRANCH  26  29
ATOM     27  N   UNL     1      40.580 -26.279 -13.811  0.00  0.00    -0.343 N 
ATOM     28  N   UNL     1      39.762 -25.305 -15.771  0.00  0.00    -0.285 NA
ATOM     29  C   UNL     1      39.569 -25.613 -14.501  0.00  0.00    +0.117 C 
ATOM     30  H   UNL     1      41.418 -26.515 -14.273  0.00  0.00    +0.144 HD
ATOM     31  H   UNL     1      40.457 -26.515 -12.863  0.00  0.00    +0.144 HD
ATOM     32  H   UNL     1      40.605 -25.549 -16.214  0.00  0.00    +0.188 HD
ENDBRANCH  26  29
ENDBRANCH  20  21
ENDBRANCH   2  20
TORSDOF 7
ENDMDL
MODEL 2
REMARK VINA RESULT:     -11.5      8.008     13.328
REMARK  Name = 24963036
REMARK  7 active torsions:
REMARK  status: ('A' for Active; 'I' for Inactive)
REMARK    1  A    between atoms: N_2  and  C_20
REMARK    2  A    between atoms: C_3  and  C_7
REMARK    3  A    between atoms: C_11  and  C_12
REMARK    4  A    between atoms: C_12  and  O_13
REMARK    5  A    between atoms: O_13  and  C_14
REMARK    6  A    between atoms: C_20  and  C_21
REMARK    7  A    between atoms: C_26  and  C_29
REMARK                            x       y       z     vdW  Elec       q    Type
REMARK                         _______ _______ _______ _____ _____    ______ ____
ROOT
ATOM      1  O   UNL     1      33.911 -15.074 -20.275  0.00  0.00    -0.273 OA
ATOM      2  N   UNL     1      32.908 -13.771 -21.923  0.00  0.00    -0.299 N 
ATOM      3  C   UNL     1      33.819 -14.693 -21.439  0.00  0.00    +0.241 C 
ATOM      4  H   UNL     1      32.933 -13.546 -22.880  0.00  0.00    +0.150 HD
ENDROOT
BRANCH   3   7
ATOM      5  O   UNL     1      35.596 -17.289 -20.721  0.00  0.00    -0.272 OA
ATOM      6  N   UNL     1      34.442 -16.659 -22.626  0.00  0.00    -0.271 N 
ATOM      7  C   UNL     1      34.710 -15.231 -22.519  0.00  0.00    +0.152 C 
ATOM      8  C   UNL     1      34.347 -14.665 -23.886  0.00  0.00    +0.031 C 
ATOM      9  C   UNL     1      33.260 -15.613 -24.386  0.00  0.00    +0.024 C 
ATOM     10  C   UNL     1      33.702 -16.966 -23.847  0.00  0.00    +0.094 C 
ATOM     11  C   UNL     1      34.976 -17.586 -21.744  0.00  0.00    +0.256 C 
BRANCH  11  12
ATOM     12  C   UNL     1      34.744 -19.032 -22.101  0.00  0.00    +0.227 C 
BRANCH  12  13
ATOM     13  O   UNL     1      33.498 -19.388 -21.553  0.00  0.00    -0.347 OA
BRANCH  13  14
ATOM     14  C   UNL     1      33.622 -19.900 -20.232  0.00  0.00    +0.116 C 
ATOM     15  C   UNL     1      32.387 -20.731 -19.886  0.00  0.00    +0.030 C 
ATOM     16  C   UNL     1      34.903 -20.725 -20.119  0.00  0.00    +0.030 C 
ATOM     17  C   UNL     1      32.514 -21.383 -18.513  0.00  0.00    +0.002 C 
ATOM     18  C   UNL     1      35.032 -21.377 -18.746  0.00  0.00    +0.002 C 
ATOM     19  C   UNL     1      33.797 -22.205 -18.400  0.00  0.00    +0.000 C 
ENDBRANCH  13  14
ENDBRANCH  12  13
ENDBRANCH  11  12
ENDBRANCH   3   7
BRANCH   2  20
ATOM     20  C   UNL     1      31.922 -13.122 -21.088  0.00  0.00    +0.116 C 
BRANCH  20  21
ATOM     21  C   UNL     1      31.750 -11.674 -21.446  0.00  0.00    -0.003 C 
ATOM     22  C   UNL     1      31.165 -10.796 -20.533  0.00  0.00    -0.003 C 
ATOM     23  C   UNL     1      32.172 -11.207 -22.690  0.00  0.00    -0.003 C 
ATOM     24  C   UNL     1      31.003  -9.450 -20.865  0.00  0.00    +0.002 C 
ATOM     25  C   UNL     1      32.010  -9.862 -23.022  0.00  0.00    +0.002 C 
ATOM     26  C   UNL     1      31.426  -8.984 -22.111  0.00  0.00    +0.031 C 
BRANCH  26  29
ATOM     27  N   UNL     1      30.510  -7.194 -23.568  0.00  0.00    -0.343 N 
ATOM     28  N   UNL     1      31.820  -6.647 -21.713  0.00  0.00    -0.285 NA
ATOM     29  C   UNL     1      31.257  -7.582 -22.457  0.00  0.00    +0.117 C 
ATOM     30  H   UNL     1      30.407  -6.239 -23.784  0.00  0.00    +0.144 HD
ATOM     31  H   UNL     1      30.085  -7.876 -24.137  0.00  0.00    +0.144 HD
ATOM     32  H   UNL     1      31.706  -5.698 -21.945  0.00  0.00    +0.188 HD
ENDBRANCH  26  29
ENDBRANCH  20  21
ENDBRANCH   2  20
TORSDOF 7
ENDMDL
MODEL 3
REMARK VINA RESULT:     -11.5      2.134      6.496
REMARK  Name = 24963036
REMARK  7 active torsions:
REMARK  status: ('A' for Active; 'I' for Inactive)
REMARK    1  A    between atoms: N_2  and  C_20
REMARK    2  A    between atoms: C_3  and  C_7
REMARK    3  A    between atoms: C_11  and  C_12
REMARK    4  A    between atoms: C_12  and  O_13
REMARK    5  A    between atoms: O_13  and  C_14
REMARK    6  A    between atoms: C_20  and  C_21
REMARK    7  A    between atoms: C_26  and  C_29
REMARK                            x       y       z     vdW  Elec       q    Type
REMARK                         _______ _______ _______ _____ _____    ______ ____
ROOT
ATOM      1  O   UNL     1      34.274 -23.543 -12.108  0.00  0.00    -0.273 OA
ATOM      2  N   UNL     1      32.854 -24.684 -13.559  0.00  0.00    -0.299 N 
ATOM      3  C   UNL     1      34.078 -24.202 -13.127  0.00  0.00    +0.241 C 
ATOM      4  H   UNL     1      32.824 -25.202 -14.395  0.00  0.00    +0.150 HD
ENDROOT
BRANCH   3   7
ATOM      5  O   UNL     1      33.774 -23.416 -16.241  0.00  0.00    -0.272 OA
ATOM      6  N   UNL     1      35.578 -23.404 -14.791  0.00  0.00    -0.271 N 
ATOM      7  C   UNL     1      35.198 -24.594 -14.042  0.00  0.00    +0.152 C 
ATOM      8  C   UNL     1      36.453 -24.981 -13.267  0.00  0.00    +0.031 C 
ATOM      9  C   UNL     1      37.165 -23.647 -13.056  0.00  0.00    +0.024 C 
ATOM     10  C   UNL     1      36.866 -22.885 -14.338  0.00  0.00    +0.094 C 
ATOM     11  C   UNL     1      34.860 -22.953 -15.888  0.00  0.00    +0.256 C 
BRANCH  11  12
ATOM     12  C   UNL     1      35.487 -21.815 -16.653  0.00  0.00    +0.227 C 
BRANCH  12  13
ATOM     13  O   UNL     1      35.268 -22.077 -18.017  0.00  0.00    -0.347 OA
BRANCH  13  14
ATOM     14  C   UNL     1      34.674 -20.971 -18.686  0.00  0.00    +0.116 C 
ATOM     15  C   UNL     1      35.542 -20.566 -19.877  0.00  0.00    +0.030 C 
ATOM     16  C   UNL     1      33.256 -21.336 -19.122  0.00  0.00    +0.030 C 
ATOM     17  C   UNL     1      34.898 -19.444 -20.686  0.00  0.00    +0.002 C 
ATOM     18  C   UNL     1      32.611 -20.215 -19.931  0.00  0.00    +0.002 C 
ATOM     19  C   UNL     1      33.479 -19.808 -21.119  0.00  0.00    +0.000 C 
ENDBRANCH  13  14
ENDBRANCH  12  13
ENDBRANCH  11  12
ENDBRANCH   3   7
BRANCH   2  20
ATOM     20  C   UNL     1      31.619 -24.463 -12.841  0.00  0.00    +0.116 C 
BRANCH  20  21
ATOM     21  C   UNL     1      30.514 -24.012 -13.751  0.00  0.00    -0.003 C 
ATOM     22  C   UNL     1      30.488 -22.698 -14.218  0.00  0.00    -0.003 C 
ATOM     23  C   UNL     1      29.511 -24.905 -14.127  0.00  0.00    -0.003 C 
ATOM     24  C   UNL     1      29.460 -22.278 -15.063  0.00  0.00    +0.002 C 
ATOM     25  C   UNL     1      28.484 -24.486 -14.972  0.00  0.00    +0.002 C 
ATOM     26  C   UNL     1      28.458 -23.172 -15.439  0.00  0.00    +0.031 C 
BRANCH  26  29
ATOM     27  N   UNL     1      26.466 -21.769 -15.916  0.00  0.00    -0.343 N 
ATOM     28  N   UNL     1      27.270 -23.257 -17.527  0.00  0.00    -0.285 NA
ATOM     29  C   UNL     1      27.386 -22.734 -16.319  0.00  0.00    +0.117 C 
ATOM     30  H   UNL     1      25.748 -21.486 -16.528  0.00  0.00    +0.144 HD
ATOM     31  H   UNL     1      26.534 -21.369 -15.018  0.00  0.00    +0.144 HD
ATOM     32  H   UNL     1      26.547 -22.962 -18.124  0.00  0.00    +0.188 HD
ENDBRANCH  26  29
ENDBRANCH  20  21
ENDBRANCH   2  20
TORSDOF 7
ENDMDL
MODEL 4
REMARK VINA RESULT:     -11.4      8.386     12.033
REMARK  Name = 24963036
REMARK  7 active torsions:
REMARK  status: ('A' for Active; 'I' for Inactive)
REMARK    1  A    between atoms: N_2  and  C_20
REMARK    2  A    between atoms: C_3  and  C_7
REMARK    3  A    between atoms: C_11  and  C_12
REMARK    4  A    between atoms: C_12  and  O_13
REMARK    5  A    between atoms: O_13  and  C_14
REMARK    6  A    between atoms: C_20  and  C_21
REMARK    7  A    between atoms: C_26  and  C_29
REMARK                            x       y       z     vdW  Elec       q    Type
REMARK                         _______ _______ _______ _____ _____    ______ ____
ROOT
ATOM      1  O   UNL     1      33.112 -14.496 -23.625  0.00  0.00    -0.273 OA
ATOM      2  N   UNL     1      34.568 -15.565 -22.157  0.00  0.00    -0.299 N 
ATOM      3  C   UNL     1      33.801 -14.505 -22.608  0.00  0.00    +0.241 C 
ATOM      4  H   UNL     1      35.080 -15.452 -21.324  0.00  0.00    +0.150 HD
ENDROOT
BRANCH   3   7
ATOM      5  O   UNL     1      33.649 -11.582 -23.964  0.00  0.00    -0.272 OA
ATOM      6  N   UNL     1      32.747 -12.455 -22.020  0.00  0.00    -0.271 N 
ATOM      7  C   UNL     1      33.870 -13.322 -21.690  0.00  0.00    +0.152 C 
ATOM      8  C   UNL     1      33.638 -13.720 -20.237  0.00  0.00    +0.031 C 
ATOM      9  C   UNL     1      32.119 -13.673 -20.094  0.00  0.00    +0.024 C 
ATOM     10  C   UNL     1      31.720 -12.505 -20.983  0.00  0.00    +0.094 C 
ATOM     11  C   UNL     1      32.764 -11.595 -23.107  0.00  0.00    +0.256 C 
BRANCH  11  12
ATOM     12  C   UNL     1      31.598 -10.644 -23.202  0.00  0.00    +0.227 C 
BRANCH  12  13
ATOM     13  O   UNL     1      32.129  -9.387 -23.542  0.00  0.00    -0.347 OA
BRANCH  13  14
ATOM     14  C   UNL     1      32.476  -8.624 -22.393  0.00  0.00    +0.116 C 
ATOM     15  C   UNL     1      32.841  -7.201 -22.813  0.00  0.00    +0.030 C 
ATOM     16  C   UNL     1      31.315  -8.636 -21.400  0.00  0.00    +0.030 C 
ATOM     17  C   UNL     1      33.127  -6.313 -21.606  0.00  0.00    +0.002 C 
ATOM     18  C   UNL     1      31.600  -7.749 -20.191  0.00  0.00    +0.002 C 
ATOM     19  C   UNL     1      31.967  -6.328 -20.612  0.00  0.00    +0.000 C 
ENDBRANCH  13  14
ENDBRANCH  12  13
ENDBRANCH  11  12
ENDBRANCH   3   7
BRANCH   2  20
ATOM     20  C   UNL     1      34.654 -16.830 -22.850  0.00  0.00    +0.116 C 
BRANCH  20  21
ATOM     21  C   UNL     1      34.787 -17.984 -21.899  0.00  0.00    -0.003 C 
ATOM     22  C   UNL     1      36.010 -18.239 -21.278  0.00  0.00    -0.003 C 
ATOM     23  C   UNL     1      33.688 -18.802 -21.636  0.00  0.00    -0.003 C 
ATOM     24  C   UNL     1      36.134 -19.312 -20.395  0.00  0.00    +0.002 C 
ATOM     25  C   UNL     1      33.811 -19.874 -20.753  0.00  0.00    +0.002 C 
ATOM     26  C   UNL     1      35.034 -20.130 -20.133  0.00  0.00    +0.031 C 
BRANCH  26  29
ATOM     27  N   UNL     1      36.121 -21.247 -18.201  0.00  0.00    -0.343 N 
ATOM     28  N   UNL     1      34.364 -22.293 -19.330  0.00  0.00    -0.285 NA
ATOM     29  C   UNL     1      35.163 -21.248 -19.212  0.00  0.00    +0.117 C 
ATOM     30  H   UNL     1      36.191 -22.015 -17.588  0.00  0.00    +0.144 HD
ATOM     31  H   UNL     1      36.729 -20.479 -18.099  0.00  0.00    +0.144 HD
ATOM     32  H   UNL     1      34.449 -23.051 -18.708  0.00  0.00    +0.188 HD
ENDBRANCH  26  29
ENDBRANCH  20  21
ENDBRANCH   2  20
TORSDOF 7
ENDMDL
MODEL 5
REMARK VINA RESULT:     -11.1      5.317      8.517
REMARK  Name = 24963036
REMARK  7 active torsions:
REMARK  status: ('A' for Active; 'I' for Inactive)
REMARK    1  A    between atoms: N_2  and  C_20
REMARK    2  A    between atoms: C_3  and  C_7
REMARK    3  A    between atoms: C_11  and  C_12
REMARK    4  A    between atoms: C_12  and  O_13
REMARK    5  A    between atoms: O_13  and  C_14
REMARK    6  A    between atoms: C_20  and  C_21
REMARK    7  A    between atoms: C_26  and  C_29
REMARK                            x       y       z     vdW  Elec       q    Type
REMARK                         _______ _______ _______ _____ _____    ______ ____
ROOT
ATOM      1  O   UNL     1      36.299 -18.072 -21.006  0.00  0.00    -0.273 OA
ATOM      2  N   UNL     1      35.097 -19.848 -20.100  0.00  0.00    -0.299 N 
ATOM      3  C   UNL     1      35.253 -18.700 -20.857  0.00  0.00    +0.241 C 
ATOM      4  H   UNL     1      34.206 -20.263 -20.057  0.00  0.00    +0.150 HD
ENDROOT
BRANCH   3   7
ATOM      5  O   UNL     1      34.290 -15.651 -20.426  0.00  0.00    -0.272 OA
ATOM      6  N   UNL     1      34.260 -17.058 -22.263  0.00  0.00    -0.271 N 
ATOM      7  C   UNL     1      33.979 -18.285 -21.529  0.00  0.00    +0.152 C 
ATOM      8  C   UNL     1      33.550 -19.286 -22.596  0.00  0.00    +0.031 C 
ATOM      9  C   UNL     1      34.298 -18.817 -23.843  0.00  0.00    +0.024 C 
ATOM     10  C   UNL     1      34.294 -17.302 -23.703  0.00  0.00    +0.094 C 
ATOM     11  C   UNL     1      34.322 -15.818 -21.647  0.00  0.00    +0.256 C 
BRANCH  11  12
ATOM     12  C   UNL     1      34.445 -14.636 -22.575  0.00  0.00    +0.227 C 
BRANCH  12  13
ATOM     13  O   UNL     1      33.141 -14.156 -22.792  0.00  0.00    -0.347 OA
BRANCH  13  14
ATOM     14  C   UNL     1      32.968 -12.834 -22.297  0.00  0.00    +0.116 C 
ATOM     15  C   UNL     1      32.642 -11.891 -23.455  0.00  0.00    +0.030 C 
ATOM     16  C   UNL     1      31.868 -12.822 -21.237  0.00  0.00    +0.030 C 
ATOM     17  C   UNL     1      32.352 -10.476 -22.964  0.00  0.00    +0.002 C 
ATOM     18  C   UNL     1      31.578 -11.407 -20.744  0.00  0.00    +0.002 C 
ATOM     19  C   UNL     1      31.255 -10.466 -21.902  0.00  0.00    +0.000 C 
ENDBRANCH  13  14
ENDBRANCH  12  13
ENDBRANCH  11  12
ENDBRANCH   3   7
BRANCH   2  20
ATOM     20  C   UNL     1      36.180 -20.467 -19.370  0.00  0.00    +0.116 C 
BRANCH  20  21
ATOM     21  C   UNL     1      35.688 -21.232 -18.176  0.00  0.00    -0.003 C 
ATOM     22  C   UNL     1      34.401 -21.773 -18.177  0.00  0.00    -0.003 C 
ATOM     23  C   UNL     1      36.514 -21.402 -17.066  0.00  0.00    -0.003 C 
ATOM     24  C   UNL     1      33.942 -22.483 -17.068  0.00  0.00    +0.002 C 
ATOM     25  C   UNL     1      36.056 -22.113 -15.957  0.00  0.00    +0.002 C 
ATOM     26  C   UNL     1      34.770 -22.653 -15.957  0.00  0.00    +0.031 C 
BRANCH  26  29
ATOM     27  N   UNL     1      34.724 -24.692 -14.542  0.00  0.00    -0.343 N 
ATOM     28  N   UNL     1      33.427 -22.835 -13.973  0.00  0.00    -0.285 NA
ATOM     29  C   UNL     1      34.292 -23.393 -14.801  0.00  0.00    +0.117 C 
ATOM     30  H   UNL     1      34.388 -25.175 -13.752  0.00  0.00    +0.144 HD
ATOM     31  H   UNL     1      35.367 -25.127 -15.149  0.00  0.00    +0.144 HD
ATOM     32  H   UNL     1      33.102 -23.333 -13.190  0.00  0.00    +0.188 HD
ENDBRANCH  26  29
ENDBRANCH  20  21
ENDBRANCH   2  20
TORSDOF 7
ENDMDL
MODEL 6
REMARK VINA RESULT:     -10.7      9.699     14.819
REMARK  Name = 24963036
REMARK  7 active torsions:
REMARK  status: ('A' for Active; 'I' for Inactive)
REMARK    1  A    between atoms: N_2  and  C_20
REMARK    2  A    between atoms: C_3  and  C_7
REMARK    3  A    between atoms: C_11  and  C_12
REMARK    4  A    between atoms: C_12  and  O_13
REMARK    5  A    between atoms: O_13  and  C_14
REMARK    6  A    between atoms: C_20  and  C_21
REMARK    7  A    between atoms: C_26  and  C_29
REMARK                            x       y       z     vdW  Elec       q    Type
REMARK                         _______ _______ _______ _____ _____    ______ ____
ROOT
ATOM      1  O   UNL     1      32.026 -13.560 -21.238  0.00  0.00    -0.273 OA
ATOM      2  N   UNL     1      32.122 -11.411 -22.128  0.00  0.00    -0.299 N 
ATOM      3  C   UNL     1      32.537 -12.723 -21.979  0.00  0.00    +0.241 C 
ATOM      4  H   UNL     1      32.614 -10.832 -22.755  0.00  0.00    +0.150 HD
ENDROOT
BRANCH   3   7
ATOM      5  O   UNL     1      34.499 -15.086 -20.993  0.00  0.00    -0.272 OA
ATOM      6  N   UNL     1      33.685 -14.494 -23.076  0.00  0.00    -0.271 N 
ATOM      7  C   UNL     1      33.704 -13.053 -22.860  0.00  0.00    +0.152 C 
ATOM      8  C   UNL     1      33.551 -12.450 -24.251  0.00  0.00    +0.031 C 
ATOM      9  C   UNL     1      32.749 -13.506 -25.009  0.00  0.00    +0.024 C 
ATOM     10  C   UNL     1      33.270 -14.816 -24.439  0.00  0.00    +0.094 C 
ATOM     11  C   UNL     1      34.158 -15.395 -22.136  0.00  0.00    +0.256 C 
BRANCH  11  12
ATOM     12  C   UNL     1      34.228 -16.832 -22.589  0.00  0.00    +0.227 C 
BRANCH  12  13
ATOM     13  O   UNL     1      35.388 -17.380 -22.013  0.00  0.00    -0.347 OA
BRANCH  13  14
ATOM     14  C   UNL     1      35.086 -18.259 -20.935  0.00  0.00    +0.116 C 
ATOM     15  C   UNL     1      33.844 -19.080 -21.277  0.00  0.00    +0.030 C 
ATOM     16  C   UNL     1      36.291 -19.154 -20.651  0.00  0.00    +0.030 C 
ATOM     17  C   UNL     1      33.535 -20.109 -20.193  0.00  0.00    +0.002 C 
ATOM     18  C   UNL     1      35.983 -20.182 -19.567  0.00  0.00    +0.002 C 
ATOM     19  C   UNL     1      34.740 -21.001 -19.907  0.00  0.00    +0.000 C 
ENDBRANCH  13  14
ENDBRANCH  12  13
ENDBRANCH  11  12
ENDBRANCH   3   7
BRANCH   2  20
ATOM     20  C   UNL     1      31.002 -10.849 -21.407  0.00  0.00    +0.116 C 
BRANCH  20  21
ATOM     21  C   UNL     1      31.053  -9.349 -21.372  0.00  0.00    -0.003 C 
ATOM     22  C   UNL     1      30.851  -8.617 -22.543  0.00  0.00    -0.003 C 
ATOM     23  C   UNL     1      31.303  -8.686 -20.171  0.00  0.00    -0.003 C 
ATOM     24  C   UNL     1      30.898  -7.223 -22.512  0.00  0.00    +0.002 C 
ATOM     25  C   UNL     1      31.351  -7.293 -20.139  0.00  0.00    +0.002 C 
ATOM     26  C   UNL     1      31.149  -6.561 -21.309  0.00  0.00    +0.031 C 
BRANCH  26  29
ATOM     27  N   UNL     1      30.416  -4.376 -20.386  0.00  0.00    -0.343 N 
ATOM     28  N   UNL     1      31.997  -4.458 -22.104  0.00  0.00    -0.285 NA
ATOM     29  C   UNL     1      31.199  -5.109 -21.276  0.00  0.00    +0.117 C 
ATOM     30  H   UNL     1      30.466  -3.392 -20.381  0.00  0.00    +0.144 HD
ATOM     31  H   UNL     1      29.812  -4.842 -19.763  0.00  0.00    +0.144 HD
ATOM     32  H   UNL     1      32.033  -3.475 -22.083  0.00  0.00    +0.188 HD
ENDBRANCH  26  29
ENDBRANCH  20  21
ENDBRANCH   2  20
TORSDOF 7
ENDMDL
MODEL 7
REMARK VINA RESULT:     -10.4      7.773     11.680
REMARK  Name = 24963036
REMARK  7 active torsions:
REMARK  status: ('A' for Active; 'I' for Inactive)
REMARK    1  A    between atoms: N_2  and  C_20
REMARK    2  A    between atoms: C_3  and  C_7
REMARK    3  A    between atoms: C_11  and  C_12
REMARK    4  A    between atoms: C_12  and  O_13
REMARK    5  A    between atoms: O_13  and  C_14
REMARK    6  A    between atoms: C_20  and  C_21
REMARK    7  A    between atoms: C_26  and  C_29
REMARK                            x       y       z     vdW  Elec       q    Type
REMARK                         _______ _______ _______ _____ _____    ______ ____
ROOT
ATOM      1  O   UNL     1      34.451 -14.625 -21.051  0.00  0.00    -0.273 OA
ATOM      2  N   UNL     1      34.341 -16.116 -22.836  0.00  0.00    -0.299 N 
ATOM      3  C   UNL     1      33.931 -15.024 -22.090  0.00  0.00    +0.241 C 
ATOM      4  H   UNL     1      33.841 -16.337 -23.655  0.00  0.00    +0.150 HD
ENDROOT
BRANCH   3   7
ATOM      5  O   UNL     1      31.668 -13.908 -20.080  0.00  0.00    -0.272 OA
ATOM      6  N   UNL     1      32.605 -13.050 -22.014  0.00  0.00    -0.271 N 
ATOM      7  C   UNL     1      32.757 -14.324 -22.705  0.00  0.00    +0.152 C 
ATOM      8  C   UNL     1      33.020 -13.947 -24.159  0.00  0.00    +0.031 C 
ATOM      9  C   UNL     1      33.707 -12.587 -24.054  0.00  0.00    +0.024 C 
ATOM     10  C   UNL     1      33.014 -11.937 -22.866  0.00  0.00    +0.094 C 
ATOM     11  C   UNL     1      32.000 -12.944 -20.772  0.00  0.00    +0.256 C 
BRANCH  11  12
ATOM     12  C   UNL     1      31.766 -11.538 -20.280  0.00  0.00    +0.227 C 
BRANCH  12  13
ATOM     13  O   UNL     1      30.693 -11.023 -21.029  0.00  0.00    -0.347 OA
BRANCH  13  14
ATOM     14  C   UNL     1      30.594  -9.607 -20.920  0.00  0.00    +0.116 C 
ATOM     15  C   UNL     1      31.447  -9.123 -19.747  0.00  0.00    +0.030 C 
ATOM     16  C   UNL     1      31.027  -8.960 -22.234  0.00  0.00    +0.030 C 
ATOM     17  C   UNL     1      31.453  -7.601 -19.647  0.00  0.00    +0.002 C 
ATOM     18  C   UNL     1      31.032  -7.438 -22.136  0.00  0.00    +0.002 C 
ATOM     19  C   UNL     1      31.882  -6.954 -20.963  0.00  0.00    +0.000 C 
ENDBRANCH  13  14
ENDBRANCH  12  13
ENDBRANCH  11  12
ENDBRANCH   3   7
BRANCH   2  20
ATOM     20  C   UNL     1      35.466 -16.946 -22.470  0.00  0.00    +0.116 C 
BRANCH  20  21
ATOM     21  C   UNL     1      35.050 -18.115 -21.626  0.00  0.00    -0.003 C 
ATOM     22  C   UNL     1      33.726 -18.556 -21.650  0.00  0.00    -0.003 C 
ATOM     23  C   UNL     1      35.985 -18.759 -20.816  0.00  0.00    -0.003 C 
ATOM     24  C   UNL     1      33.339 -19.643 -20.865  0.00  0.00    +0.002 C 
ATOM     25  C   UNL     1      35.598 -19.845 -20.031  0.00  0.00    +0.002 C 
ATOM     26  C   UNL     1      34.275 -20.287 -20.055  0.00  0.00    +0.031 C 
BRANCH  26  29
ATOM     27  N   UNL     1      32.552 -21.869 -19.223  0.00  0.00    -0.343 N 
ATOM     28  N   UNL     1      34.762 -22.038 -18.483  0.00  0.00    -0.285 NA
ATOM     29  C   UNL     1      33.871 -21.418 -19.236  0.00  0.00    +0.117 C 
ATOM     30  H   UNL     1      32.300 -22.638 -18.661  0.00  0.00    +0.144 HD
ATOM     31  H   UNL     1      31.872 -21.419 -19.775  0.00  0.00    +0.144 HD
ATOM     32  H   UNL     1      34.491 -22.804 -17.928  0.00  0.00    +0.188 HD
ENDBRANCH  26  29
ENDBRANCH  20  21
ENDBRANCH   2  20
TORSDOF 7
ENDMDL
MODEL 8
REMARK VINA RESULT:     -10.4      2.503      7.003
REMARK  Name = 24963036
REMARK  7 active torsions:
REMARK  status: ('A' for Active; 'I' for Inactive)
REMARK    1  A    between atoms: N_2  and  C_20
REMARK    2  A    between atoms: C_3  and  C_7
REMARK    3  A    between atoms: C_11  and  C_12
REMARK    4  A    between atoms: C_12  and  O_13
REMARK    5  A    between atoms: O_13  and  C_14
REMARK    6  A    between atoms: C_20  and  C_21
REMARK    7  A    between atoms: C_26  and  C_29
REMARK                            x       y       z     vdW  Elec       q    Type
REMARK                         _______ _______ _______ _____ _____    ______ ____
ROOT
ATOM      1  O   UNL     1      38.977 -23.611 -14.539  0.00  0.00    -0.273 OA
ATOM      2  N   UNL     1      36.853 -23.044 -15.306  0.00  0.00    -0.299 N 
ATOM      3  C   UNL     1      37.759 -23.773 -14.555  0.00  0.00    +0.241 C 
ATOM      4  H   UNL     1      35.897 -23.268 -15.234  0.00  0.00    +0.150 HD
ENDROOT
BRANCH   3   7
ATOM      5  O   UNL     1      35.108 -22.866 -12.955  0.00  0.00    -0.272 OA
ATOM      6  N   UNL     1      35.677 -24.815 -14.066  0.00  0.00    -0.271 N 
ATOM      7  C   UNL     1      37.088 -24.808 -13.703  0.00  0.00    +0.152 C 
ATOM      8  C   UNL     1      37.579 -26.214 -14.029  0.00  0.00    +0.031 C 
ATOM      9  C   UNL     1      36.672 -26.649 -15.178  0.00  0.00    +0.024 C 
ATOM     10  C   UNL     1      35.335 -26.015 -14.826  0.00  0.00    +0.094 C 
ATOM     11  C   UNL     1      34.782 -23.868 -13.595  0.00  0.00    +0.256 C 
BRANCH  11  12
ATOM     12  C   UNL     1      33.332 -24.123 -13.923  0.00  0.00    +0.227 C 
BRANCH  12  13
ATOM     13  O   UNL     1      32.574 -23.447 -12.951  0.00  0.00    -0.347 OA
BRANCH  13  14
ATOM     14  C   UNL     1      31.199 -23.362 -13.308  0.00  0.00    +0.116 C 
ATOM     15  C   UNL     1      31.046 -22.480 -14.547  0.00  0.00    +0.030 C 
ATOM     16  C   UNL     1      30.642 -24.765 -13.544  0.00  0.00    +0.030 C 
ATOM     17  C   UNL     1      29.599 -22.435 -15.030  0.00  0.00    +0.002 C 
ATOM     18  C   UNL     1      29.195 -24.720 -14.025  0.00  0.00    +0.002 C 
ATOM     19  C   UNL     1      29.042 -23.838 -15.262  0.00  0.00    +0.000 C 
ENDBRANCH  13  14
ENDBRANCH  12  13
ENDBRANCH  11  12
ENDBRANCH   3   7
BRANCH   2  20
ATOM     20  C   UNL     1      37.243 -21.971 -16.193  0.00  0.00    +0.116 C 
BRANCH  20  21
ATOM     21  C   UNL     1      36.167 -21.644 -17.186  0.00  0.00    -0.003 C 
ATOM     22  C   UNL     1      34.874 -22.134 -16.999  0.00  0.00    -0.003 C 
ATOM     23  C   UNL     1      36.459 -20.853 -18.297  0.00  0.00    -0.003 C 
ATOM     24  C   UNL     1      33.872 -21.831 -17.923  0.00  0.00    +0.002 C 
ATOM     25  C   UNL     1      35.458 -20.550 -19.220  0.00  0.00    +0.002 C 
ATOM     26  C   UNL     1      34.166 -21.039 -19.034  0.00  0.00    +0.031 C 
BRANCH  26  29
ATOM     27  N   UNL     1      33.321 -19.772 -20.995  0.00  0.00    -0.343 N 
ATOM     28  N   UNL     1      31.958 -21.344 -19.932  0.00  0.00    -0.285 NA
ATOM     29  C   UNL     1      33.123 -20.724 -19.997  0.00  0.00    +0.117 C 
ATOM     30  H   UNL     1      32.601 -19.575 -21.638  0.00  0.00    +0.144 HD
ATOM     31  H   UNL     1      34.181 -19.297 -21.058  0.00  0.00    +0.144 HD
ATOM     32  H   UNL     1      31.251 -21.133 -20.583  0.00  0.00    +0.188 HD
ENDBRANCH  26  29
ENDBRANCH  20  21
ENDBRANCH   2  20
TORSDOF 7
ENDMDL
MODEL 9
REMARK VINA RESULT:     -10.3      9.795     14.947
REMARK  Name = 24963036
REMARK  7 active torsions:
REMARK  status: ('A' for Active; 'I' for Inactive)
REMARK    1  A    between atoms: N_2  and  C_20
REMARK    2  A    between atoms: C_3  and  C_7
REMARK    3  A    between atoms: C_11  and  C_12
REMARK    4  A    between atoms: C_12  and  O_13
REMARK    5  A    between atoms: O_13  and  C_14
REMARK    6  A    between atoms: C_20  and  C_21
REMARK    7  A    between atoms: C_26  and  C_29
REMARK                            x       y       z     vdW  Elec       q    Type
REMARK                         _______ _______ _______ _____ _____    ______ ____
ROOT
ATOM      1  O   UNL     1      33.232 -12.535 -24.747  0.00  0.00    -0.273 OA
ATOM      2  N   UNL     1      32.448 -11.137 -23.059  0.00  0.00    -0.299 N 
ATOM      3  C   UNL     1      32.711 -12.361 -23.648  0.00  0.00    +0.241 C 
ATOM      4  H   UNL     1      32.025 -11.126 -22.170  0.00  0.00    +0.150 HD
ENDROOT
BRANCH   3   7
ATOM      5  O   UNL     1      32.903 -15.317 -24.928  0.00  0.00    -0.272 OA
ATOM      6  N   UNL     1      33.388 -14.487 -22.823  0.00  0.00    -0.271 N 
ATOM      7  C   UNL     1      32.308 -13.511 -22.775  0.00  0.00    +0.152 C 
ATOM      8  C   UNL     1      32.218 -13.103 -21.309  0.00  0.00    +0.031 C 
ATOM      9  C   UNL     1      33.646 -13.289 -20.801  0.00  0.00    +0.024 C 
ATOM     10  C   UNL     1      34.133 -14.511 -21.566  0.00  0.00    +0.094 C 
ATOM     11  C   UNL     1      33.551 -15.367 -23.881  0.00  0.00    +0.256 C 
BRANCH  11  12
ATOM     12  C   UNL     1      34.608 -16.426 -23.690  0.00  0.00    +0.227 C 
BRANCH  12  13
ATOM     13  O   UNL     1      33.940 -17.591 -23.273  0.00  0.00    -0.347 OA
BRANCH  13  14
ATOM     14  C   UNL     1      34.382 -18.032 -21.994  0.00  0.00    +0.116 C 
ATOM     15  C   UNL     1      33.722 -19.369 -21.657  0.00  0.00    +0.030 C 
ATOM     16  C   UNL     1      35.906 -18.139 -21.986  0.00  0.00    +0.030 C 
ATOM     17  C   UNL     1      34.237 -19.933 -20.337  0.00  0.00    +0.002 C 
ATOM     18  C   UNL     1      36.422 -18.703 -20.666  0.00  0.00    +0.002 C 
ATOM     19  C   UNL     1      35.761 -20.037 -20.328  0.00  0.00    +0.000 C 
ENDBRANCH  13  14
ENDBRANCH  12  13
ENDBRANCH  11  12
ENDBRANCH   3   7
BRANCH   2  20
ATOM     20  C   UNL     1      32.764  -9.874 -23.686  0.00  0.00    +0.116 C 
BRANCH  20  21
ATOM     21  C   UNL     1      32.529  -8.714 -22.762  0.00  0.00    -0.003 C 
ATOM     22  C   UNL     1      31.569  -8.810 -21.754  0.00  0.00    -0.003 C 
ATOM     23  C   UNL     1      33.267  -7.541 -22.913  0.00  0.00    -0.003 C 
ATOM     24  C   UNL     1      31.349  -7.731 -20.896  0.00  0.00    +0.002 C 
ATOM     25  C   UNL     1      33.048  -6.463 -22.055  0.00  0.00    +0.002 C 
ATOM     26  C   UNL     1      32.089  -6.558 -21.047  0.00  0.00    +0.031 C 
BRANCH  26  29
ATOM     27  N   UNL     1      31.088  -4.342 -20.545  0.00  0.00    -0.343 N 
ATOM     28  N   UNL     1      32.389  -5.437 -18.943  0.00  0.00    -0.285 NA
ATOM     29  C   UNL     1      31.859  -5.435 -20.153  0.00  0.00    +0.117 C 
ATOM     30  H   UNL     1      30.945  -3.592 -19.923  0.00  0.00    +0.144 HD
ATOM     31  H   UNL     1      30.687  -4.320 -21.444  0.00  0.00    +0.144 HD
ATOM     32  H   UNL     1      32.234  -4.678 -18.336  0.00  0.00    +0.188 HD
ENDBRANCH  26  29
ENDBRANCH  20  21
ENDBRANCH   2  20
TORSDOF 7
ENDMDL
