MODEL 1
REMARK VINA RESULT:     -11.4      0.000      0.000
REMARK  Name = 24941262
REMARK  4 active torsions:
REMARK  status: ('A' for Active; 'I' for Inactive)
REMARK    1  A    between atoms: N_2  and  C_15
REMARK    2  A    between atoms: C_3  and  C_5
REMARK    3  A    between atoms: C_9  and  N_12
REMARK    4  A    between atoms: C_15  and  C_17
REMARK                            x       y       z     vdW  Elec       q    Type
REMARK                         _______ _______ _______ _____ _____    ______ ____
ROOT
ATOM      1  O   UNL     1      38.512 -23.140 -15.454  0.00  0.00    -0.270 OA
ATOM      2  N   UNL     1      36.286 -22.510 -15.602  0.00  0.00    -0.299 N 
ATOM      3  C   UNL     1      37.373 -23.110 -14.995  0.00  0.00    +0.246 C 
ATOM      4  H   UNL     1      35.411 -22.542 -15.152  0.00  0.00    +0.150 HD
ENDROOT
BRANCH   3   5
ATOM      5  C   UNL     1      37.095 -23.783 -13.700  0.00  0.00    +0.051 C 
ATOM      6  C   UNL     1      37.090 -25.175 -13.599  0.00  0.00    -0.017 C 
ATOM      7  C   UNL     1      36.836 -23.002 -12.575  0.00  0.00    +0.018 C 
ATOM      8  C   UNL     1      36.826 -25.784 -12.372  0.00  0.00    -0.003 C 
ATOM      9  C   UNL     1      36.571 -23.611 -11.348  0.00  0.00    +0.042 C 
ATOM     10  C   UNL     1      37.365 -26.037 -14.788  0.00  0.00    +0.031 C 
ATOM     11  C   UNL     1      36.567 -25.002 -11.246  0.00  0.00    +0.014 C 
BRANCH   9  12
ATOM     12  N   UNL     1      36.309 -22.819 -10.210  0.00  0.00    -0.357 N 
ATOM     13  H   UNL     1      36.455 -23.189  -9.310  0.00  0.00    +0.142 HD
ATOM     14  H   UNL     1      35.979 -21.898 -10.316  0.00  0.00    +0.142 HD
ENDBRANCH   9  12
ENDBRANCH   3   5
BRANCH   2  15
ATOM     15  C   UNL     1      36.390 -21.834 -16.882  0.00  0.00    +0.094 C 
ATOM     16  C   UNL     1      37.075 -20.477 -16.683  0.00  0.00    +0.026 C 
BRANCH  15  17
ATOM     17  C   UNL     1      35.066 -21.731 -17.574  0.00  0.00    -0.004 C 
ATOM     18  C   UNL     1      34.900 -20.995 -18.759  0.00  0.00    -0.002 C 
ATOM     19  C   UNL     1      33.622 -20.936 -19.364  0.00  0.00    -0.000 C 
ATOM     20  C   UNL     1      33.987 -22.399 -16.993  0.00  0.00    -0.003 C 
ATOM     21  C   UNL     1      35.974 -20.317 -19.357  0.00  0.00    -0.000 C 
ATOM     22  C   UNL     1      32.547 -21.615 -18.765  0.00  0.00    -0.000 C 
ATOM     23  C   UNL     1      32.731 -22.341 -17.588  0.00  0.00    -0.000 C 
ATOM     24  C   UNL     1      33.455 -20.201 -20.548  0.00  0.00    -0.000 C 
ATOM     25  C   UNL     1      35.791 -19.590 -20.534  0.00  0.00    -0.000 C 
ATOM     26  C   UNL     1      34.534 -19.532 -21.129  0.00  0.00    -0.000 C 
ENDBRANCH  15  17
ENDBRANCH   2  15
TORSDOF 4
ENDMDL
MODEL 2
REMARK VINA RESULT:     -11.2      4.756      7.316
REMARK  Name = 24941262
REMARK  4 active torsions:
REMARK  status: ('A' for Active; 'I' for Inactive)
REMARK    1  A    between atoms: N_2  and  C_15
REMARK    2  A    between atoms: C_3  and  C_5
REMARK    3  A    between atoms: C_9  and  N_12
REMARK    4  A    between atoms: C_15  and  C_17
REMARK                            x       y       z     vdW  Elec       q    Type
REMARK                         _______ _______ _______ _____ _____    ______ ____
ROOT
ATOM      1  O   UNL     1      32.951 -19.712 -21.698  0.00  0.00    -0.270 OA
ATOM      2  N   UNL     1      34.963 -18.922 -20.862  0.00  0.00    -0.299 N 
ATOM      3  C   UNL     1      33.828 -19.709 -20.838  0.00  0.00    +0.246 C 
ATOM      4  H   UNL     1      35.608 -18.993 -20.121  0.00  0.00    +0.150 HD
ENDROOT
BRANCH   3   5
ATOM      5  C   UNL     1      33.680 -20.588 -19.649  0.00  0.00    +0.051 C 
ATOM      6  C   UNL     1      34.795 -21.151 -19.028  0.00  0.00    -0.017 C 
ATOM      7  C   UNL     1      32.402 -20.849 -19.157  0.00  0.00    +0.018 C 
ATOM      8  C   UNL     1      34.631 -21.974 -17.913  0.00  0.00    -0.003 C 
ATOM      9  C   UNL     1      32.238 -21.672 -18.042  0.00  0.00    +0.042 C 
ATOM     10  C   UNL     1      36.176 -20.889 -19.534  0.00  0.00    +0.031 C 
ATOM     11  C   UNL     1      33.353 -22.234 -17.420  0.00  0.00    +0.014 C 
BRANCH   9  12
ATOM     12  N   UNL     1      30.945 -21.935 -17.544  0.00  0.00    -0.357 N 
ATOM     13  H   UNL     1      30.258 -21.231 -17.562  0.00  0.00    +0.142 HD
ATOM     14  H   UNL     1      30.729 -22.824 -17.179  0.00  0.00    +0.142 HD
ENDBRANCH   9  12
ENDBRANCH   3   5
BRANCH   2  15
ATOM     15  C   UNL     1      35.238 -17.992 -21.942  0.00  0.00    +0.094 C 
ATOM     16  C   UNL     1      36.751 -17.919 -22.173  0.00  0.00    +0.026 C 
BRANCH  15  17
ATOM     17  C   UNL     1      34.612 -16.652 -21.704  0.00  0.00    -0.004 C 
ATOM     18  C   UNL     1      34.132 -15.857 -22.758  0.00  0.00    -0.002 C 
ATOM     19  C   UNL     1      33.553 -14.599 -22.468  0.00  0.00    -0.000 C 
ATOM     20  C   UNL     1      34.522 -16.213 -20.382  0.00  0.00    -0.003 C 
ATOM     21  C   UNL     1      34.216 -16.282 -24.094  0.00  0.00    -0.000 C 
ATOM     22  C   UNL     1      33.469 -14.174 -21.131  0.00  0.00    -0.000 C 
ATOM     23  C   UNL     1      33.951 -14.977 -20.097  0.00  0.00    -0.000 C 
ATOM     24  C   UNL     1      33.073 -13.804 -23.520  0.00  0.00    -0.000 C 
ATOM     25  C   UNL     1      33.734 -15.479 -25.128  0.00  0.00    -0.000 C 
ATOM     26  C   UNL     1      33.164 -14.243 -24.843  0.00  0.00    -0.000 C 
ENDBRANCH  15  17
ENDBRANCH   2  15
TORSDOF 4
ENDMDL
MODEL 3
REMARK VINA RESULT:     -10.8      3.753      8.669
REMARK  Name = 24941262
REMARK  4 active torsions:
REMARK  status: ('A' for Active; 'I' for Inactive)
REMARK    1  A    between atoms: N_2  and  C_15
REMARK    2  A    between atoms: C_3  and  C_5
REMARK    3  A    between atoms: C_9  and  N_12
REMARK    4  A    between atoms: C_15  and  C_17
REMARK                            x       y       z     vdW  Elec       q    Type
REMARK                         _______ _______ _______ _____ _____    ______ ____
ROOT
ATOM      1  O   UNL     1      36.759 -18.219 -20.638  0.00  0.00    -0.270 OA
ATOM      2  N   UNL     1      34.812 -19.468 -20.493  0.00  0.00    -0.299 N 
ATOM      3  C   UNL     1      35.587 -18.416 -20.944  0.00  0.00    +0.246 C 
ATOM      4  H   UNL     1      33.878 -19.537 -20.798  0.00  0.00    +0.150 HD
ENDROOT
BRANCH   3   5
ATOM      5  C   UNL     1      34.902 -17.456 -21.848  0.00  0.00    +0.051 C 
ATOM      6  C   UNL     1      34.451 -17.850 -23.108  0.00  0.00    -0.017 C 
ATOM      7  C   UNL     1      34.715 -16.142 -21.420  0.00  0.00    +0.018 C 
ATOM      8  C   UNL     1      33.811 -16.929 -23.939  0.00  0.00    -0.003 C 
ATOM      9  C   UNL     1      34.075 -15.222 -22.251  0.00  0.00    +0.042 C 
ATOM     10  C   UNL     1      34.638 -19.251 -23.592  0.00  0.00    +0.031 C 
ATOM     11  C   UNL     1      33.623 -15.616 -23.511  0.00  0.00    +0.014 C 
BRANCH   9  12
ATOM     12  N   UNL     1      33.885 -13.893 -21.818  0.00  0.00    -0.357 N 
ATOM     13  H   UNL     1      34.330 -13.153 -22.290  0.00  0.00    +0.142 HD
ATOM     14  H   UNL     1      33.308 -13.705 -21.043  0.00  0.00    +0.142 HD
ENDBRANCH   9  12
ENDBRANCH   3   5
BRANCH   2  15
ATOM     15  C   UNL     1      35.328 -20.475 -19.584  0.00  0.00    +0.094 C 
ATOM     16  C   UNL     1      36.164 -21.488 -20.374  0.00  0.00    +0.026 C 
BRANCH  15  17
ATOM     17  C   UNL     1      34.243 -21.111 -18.773  0.00  0.00    -0.004 C 
ATOM     18  C   UNL     1      34.505 -21.761 -17.556  0.00  0.00    -0.002 C 
ATOM     19  C   UNL     1      33.435 -22.344 -16.837  0.00  0.00    -0.000 C 
ATOM     20  C   UNL     1      32.942 -21.037 -19.275  0.00  0.00    -0.003 C 
ATOM     21  C   UNL     1      35.807 -21.846 -17.036  0.00  0.00    -0.000 C 
ATOM     22  C   UNL     1      32.132 -22.260 -17.357  0.00  0.00    -0.000 C 
ATOM     23  C   UNL     1      31.889 -21.610 -18.567  0.00  0.00    -0.000 C 
ATOM     24  C   UNL     1      33.696 -22.993 -15.620  0.00  0.00    -0.000 C 
ATOM     25  C   UNL     1      36.050 -22.496 -15.826  0.00  0.00    -0.000 C 
ATOM     26  C   UNL     1      34.997 -23.068 -15.119  0.00  0.00    -0.000 C 
ENDBRANCH  15  17
ENDBRANCH   2  15
TORSDOF 4
ENDMDL
MODEL 4
REMARK VINA RESULT:     -10.8      5.210      9.755
REMARK  Name = 24941262
REMARK  4 active torsions:
REMARK  status: ('A' for Active; 'I' for Inactive)
REMARK    1  A    between atoms: N_2  and  C_15
REMARK    2  A    between atoms: C_3  and  C_5
REMARK    3  A    between atoms: C_9  and  N_12
REMARK    4  A    between atoms: C_15  and  C_17
REMARK                            x       y       z     vdW  Elec       q    Type
REMARK                         _______ _______ _______ _____ _____    ______ ____
ROOT
ATOM      1  O   UNL     1      34.963 -16.485 -20.247  0.00  0.00    -0.270 OA
ATOM      2  N   UNL     1      34.371 -17.453 -22.267  0.00  0.00    -0.299 N 
ATOM      3  C   UNL     1      34.455 -16.412 -21.363  0.00  0.00    +0.246 C 
ATOM      4  H   UNL     1      33.943 -17.293 -23.140  0.00  0.00    +0.150 HD
ENDROOT
BRANCH   3   5
ATOM      5  C   UNL     1      33.850 -15.128 -21.802  0.00  0.00    +0.051 C 
ATOM      6  C   UNL     1      33.835 -14.763 -23.149  0.00  0.00    -0.017 C 
ATOM      7  C   UNL     1      33.293 -14.282 -20.844  0.00  0.00    +0.018 C 
ATOM      8  C   UNL     1      33.261 -13.551 -23.536  0.00  0.00    -0.003 C 
ATOM      9  C   UNL     1      32.719 -13.071 -21.232  0.00  0.00    +0.042 C 
ATOM     10  C   UNL     1      34.425 -15.650 -24.196  0.00  0.00    +0.031 C 
ATOM     11  C   UNL     1      32.703 -12.706 -22.578  0.00  0.00    +0.014 C 
BRANCH   9  12
ATOM     12  N   UNL     1      32.155 -12.215 -20.263  0.00  0.00    -0.357 N 
ATOM     13  H   UNL     1      31.726 -12.594 -19.462  0.00  0.00    +0.142 HD
ATOM     14  H   UNL     1      32.189 -11.239 -20.387  0.00  0.00    +0.142 HD
ENDBRANCH   9  12
ENDBRANCH   3   5
BRANCH   2  15
ATOM     15  C   UNL     1      34.892 -18.776 -21.976  0.00  0.00    +0.094 C 
ATOM     16  C   UNL     1      35.159 -19.515 -23.292  0.00  0.00    +0.026 C 
BRANCH  15  17
ATOM     17  C   UNL     1      34.004 -19.538 -21.042  0.00  0.00    -0.004 C 
ATOM     18  C   UNL     1      34.515 -20.265 -19.954  0.00  0.00    -0.002 C 
ATOM     19  C   UNL     1      33.623 -20.965 -19.109  0.00  0.00    -0.000 C 
ATOM     20  C   UNL     1      32.631 -19.501 -21.292  0.00  0.00    -0.003 C 
ATOM     21  C   UNL     1      35.893 -20.314 -19.688  0.00  0.00    -0.000 C 
ATOM     22  C   UNL     1      32.244 -20.917 -19.374  0.00  0.00    -0.000 C 
ATOM     23  C   UNL     1      31.753 -20.189 -20.459  0.00  0.00    -0.000 C 
ATOM     24  C   UNL     1      34.133 -21.692 -18.022  0.00  0.00    -0.000 C 
ATOM     25  C   UNL     1      36.384 -21.042 -18.604  0.00  0.00    -0.000 C 
ATOM     26  C   UNL     1      35.506 -21.730 -17.772  0.00  0.00    -0.000 C 
ENDBRANCH  15  17
ENDBRANCH   2  15
TORSDOF 4
ENDMDL
MODEL 5
REMARK VINA RESULT:     -10.7      0.827      2.650
REMARK  Name = 24941262
REMARK  4 active torsions:
REMARK  status: ('A' for Active; 'I' for Inactive)
REMARK    1  A    between atoms: N_2  and  C_15
REMARK    2  A    between atoms: C_3  and  C_5
REMARK    3  A    between atoms: C_9  and  N_12
REMARK    4  A    between atoms: C_15  and  C_17
REMARK                            x       y       z     vdW  Elec       q    Type
REMARK                         _______ _______ _______ _____ _____    ______ ____
ROOT
ATOM      1  O   UNL     1      38.665 -23.207 -15.368  0.00  0.00    -0.270 OA
ATOM      2  N   UNL     1      36.489 -22.427 -15.524  0.00  0.00    -0.299 N 
ATOM      3  C   UNL     1      37.527 -23.108 -14.918  0.00  0.00    +0.246 C 
ATOM      4  H   UNL     1      35.609 -22.407 -15.082  0.00  0.00    +0.150 HD
ENDROOT
BRANCH   3   5
ATOM      5  C   UNL     1      37.192 -23.782 -13.637  0.00  0.00    +0.051 C 
ATOM      6  C   UNL     1      37.151 -25.174 -13.545  0.00  0.00    -0.017 C 
ATOM      7  C   UNL     1      36.914 -23.001 -12.516  0.00  0.00    +0.018 C 
ATOM      8  C   UNL     1      36.833 -25.783 -12.330  0.00  0.00    -0.003 C 
ATOM      9  C   UNL     1      36.596 -23.611 -11.302  0.00  0.00    +0.042 C 
ATOM     10  C   UNL     1      37.444 -26.036 -14.729  0.00  0.00    +0.031 C 
ATOM     11  C   UNL     1      36.556 -25.002 -11.209  0.00  0.00    +0.014 C 
BRANCH   9  12
ATOM     12  N   UNL     1      36.315 -22.820 -10.168  0.00  0.00    -0.357 N 
ATOM     13  H   UNL     1      35.466 -22.326 -10.111  0.00  0.00    +0.142 HD
ATOM     14  H   UNL     1      36.969 -22.763  -9.433  0.00  0.00    +0.142 HD
ENDBRANCH   9  12
ENDBRANCH   3   5
BRANCH   2  15
ATOM     15  C   UNL     1      36.650 -21.739 -16.792  0.00  0.00    +0.094 C 
ATOM     16  C   UNL     1      37.264 -20.357 -16.542  0.00  0.00    +0.026 C 
BRANCH  15  17
ATOM     17  C   UNL     1      35.372 -21.685 -17.570  0.00  0.00    -0.004 C 
ATOM     18  C   UNL     1      34.150 -22.116 -17.027  0.00  0.00    -0.002 C 
ATOM     19  C   UNL     1      32.977 -22.039 -17.815  0.00  0.00    -0.000 C 
ATOM     20  C   UNL     1      35.436 -21.185 -18.872  0.00  0.00    -0.003 C 
ATOM     21  C   UNL     1      34.067 -22.622 -15.720  0.00  0.00    -0.000 C 
ATOM     22  C   UNL     1      33.060 -21.533 -19.124  0.00  0.00    -0.000 C 
ATOM     23  C   UNL     1      34.282 -21.109 -19.646  0.00  0.00    -0.000 C 
ATOM     24  C   UNL     1      31.756 -22.469 -17.274  0.00  0.00    -0.000 C 
ATOM     25  C   UNL     1      32.845 -23.045 -15.197  0.00  0.00    -0.000 C 
ATOM     26  C   UNL     1      31.691 -22.970 -15.972  0.00  0.00    -0.000 C 
ENDBRANCH  15  17
ENDBRANCH   2  15
TORSDOF 4
ENDMDL
MODEL 6
REMARK VINA RESULT:     -10.4      1.724      2.007
REMARK  Name = 24941262
REMARK  4 active torsions:
REMARK  status: ('A' for Active; 'I' for Inactive)
REMARK    1  A    between atoms: N_2  and  C_15
REMARK    2  A    between atoms: C_3  and  C_5
REMARK    3  A    between atoms: C_9  and  N_12
REMARK    4  A    between atoms: C_15  and  C_17
REMARK                            x       y       z     vdW  Elec       q    Type
REMARK                         _______ _______ _______ _____ _____    ______ ____
ROOT
ATOM      1  O   UNL     1      37.161 -21.338 -14.769  0.00  0.00    -0.270 OA
ATOM      2  N   UNL     1      36.773 -22.576 -16.690  0.00  0.00    -0.299 N 
ATOM      3  C   UNL     1      37.033 -22.417 -15.342  0.00  0.00    +0.246 C 
ATOM      4  H   UNL     1      36.689 -23.487 -17.055  0.00  0.00    +0.150 HD
ENDROOT
BRANCH   3   5
ATOM      5  C   UNL     1      37.190 -23.674 -14.565  0.00  0.00    +0.051 C 
ATOM      6  C   UNL     1      36.106 -24.248 -13.899  0.00  0.00    -0.017 C 
ATOM      7  C   UNL     1      38.444 -24.279 -14.506  0.00  0.00    +0.018 C 
ATOM      8  C   UNL     1      36.279 -25.429 -13.176  0.00  0.00    -0.003 C 
ATOM      9  C   UNL     1      38.617 -25.459 -13.783  0.00  0.00    +0.042 C 
ATOM     10  C   UNL     1      34.751 -23.622 -13.946  0.00  0.00    +0.031 C 
ATOM     11  C   UNL     1      37.533 -26.035 -13.118  0.00  0.00    +0.014 C 
BRANCH   9  12
ATOM     12  N   UNL     1      39.886 -26.072 -13.723  0.00  0.00    -0.357 N 
ATOM     13  H   UNL     1      40.395 -26.069 -12.881  0.00  0.00    +0.142 HD
ATOM     14  H   UNL     1      40.263 -26.503 -14.525  0.00  0.00    +0.142 HD
ENDBRANCH   9  12
ENDBRANCH   3   5
BRANCH   2  15
ATOM     15  C   UNL     1      36.620 -21.446 -17.587  0.00  0.00    +0.094 C 
ATOM     16  C   UNL     1      37.033 -20.162 -16.858  0.00  0.00    +0.026 C 
BRANCH  15  17
ATOM     17  C   UNL     1      35.244 -21.374 -18.173  0.00  0.00    -0.004 C 
ATOM     18  C   UNL     1      34.954 -20.586 -19.299  0.00  0.00    -0.002 C 
ATOM     19  C   UNL     1      33.632 -20.560 -19.804  0.00  0.00    -0.000 C 
ATOM     20  C   UNL     1      34.244 -22.127 -17.554  0.00  0.00    -0.003 C 
ATOM     21  C   UNL     1      35.946 -19.822 -19.934  0.00  0.00    -0.000 C 
ATOM     22  C   UNL     1      32.638 -21.325 -19.168  0.00  0.00    -0.000 C 
ATOM     23  C   UNL     1      32.945 -22.102 -18.051  0.00  0.00    -0.000 C 
ATOM     24  C   UNL     1      33.341 -19.773 -20.929  0.00  0.00    -0.000 C 
ATOM     25  C   UNL     1      35.639 -19.044 -21.051  0.00  0.00    -0.000 C 
ATOM     26  C   UNL     1      34.340 -19.019 -21.548  0.00  0.00    -0.000 C 
ENDBRANCH  15  17
ENDBRANCH   2  15
TORSDOF 4
ENDMDL
MODEL 7
REMARK VINA RESULT:     -10.3      2.989      4.261
REMARK  Name = 24941262
REMARK  4 active torsions:
REMARK  status: ('A' for Active; 'I' for Inactive)
REMARK    1  A    between atoms: N_2  and  C_15
REMARK    2  A    between atoms: C_3  and  C_5
REMARK    3  A    between atoms: C_9  and  N_12
REMARK    4  A    between atoms: C_15  and  C_17
REMARK                            x       y       z     vdW  Elec       q    Type
REMARK                         _______ _______ _______ _____ _____    ______ ____
ROOT
ATOM      1  O   UNL     1      33.101 -23.863 -17.950  0.00  0.00    -0.270 OA
ATOM      2  N   UNL     1      34.113 -21.906 -17.230  0.00  0.00    -0.299 N 
ATOM      3  C   UNL     1      33.276 -22.998 -17.096  0.00  0.00    +0.246 C 
ATOM      4  H   UNL     1      34.184 -21.267 -16.484  0.00  0.00    +0.150 HD
ENDROOT
BRANCH   3   5
ATOM      5  C   UNL     1      32.529 -23.083 -15.815  0.00  0.00    +0.051 C 
ATOM      6  C   UNL     1      33.125 -23.604 -14.666  0.00  0.00    -0.017 C 
ATOM      7  C   UNL     1      31.210 -22.631 -15.772  0.00  0.00    +0.018 C 
ATOM      8  C   UNL     1      32.402 -23.673 -13.475  0.00  0.00    -0.003 C 
ATOM      9  C   UNL     1      30.487 -22.700 -14.580  0.00  0.00    +0.042 C 
ATOM     10  C   UNL     1      34.536 -24.095 -14.684  0.00  0.00    +0.031 C 
ATOM     11  C   UNL     1      31.084 -23.221 -13.432  0.00  0.00    +0.014 C 
BRANCH   9  12
ATOM     12  N   UNL     1      29.153 -22.242 -14.537  0.00  0.00    -0.357 N 
ATOM     13  H   UNL     1      28.457 -22.797 -14.117  0.00  0.00    +0.142 HD
ATOM     14  H   UNL     1      28.919 -21.369 -14.926  0.00  0.00    +0.142 HD
ENDBRANCH   9  12
ENDBRANCH   3   5
BRANCH   2  15
ATOM     15  C   UNL     1      34.890 -21.669 -18.431  0.00  0.00    +0.094 C 
ATOM     16  C   UNL     1      36.241 -21.055 -18.046  0.00  0.00    +0.026 C 
BRANCH  15  17
ATOM     17  C   UNL     1      34.138 -20.855 -19.438  0.00  0.00    -0.004 C 
ATOM     18  C   UNL     1      34.779 -19.924 -20.272  0.00  0.00    -0.002 C 
ATOM     19  C   UNL     1      34.010 -19.185 -21.203  0.00  0.00    -0.000 C 
ATOM     20  C   UNL     1      32.759 -21.055 -19.520  0.00  0.00    -0.003 C 
ATOM     21  C   UNL     1      36.165 -19.710 -20.203  0.00  0.00    -0.000 C 
ATOM     22  C   UNL     1      32.623 -19.399 -21.272  0.00  0.00    -0.000 C 
ATOM     23  C   UNL     1      32.004 -20.328 -20.436  0.00  0.00    -0.000 C 
ATOM     24  C   UNL     1      34.650 -18.255 -22.037  0.00  0.00    -0.000 C 
ATOM     25  C   UNL     1      36.784 -18.781 -21.039  0.00  0.00    -0.000 C 
ATOM     26  C   UNL     1      36.029 -18.054 -21.954  0.00  0.00    -0.000 C 
ENDBRANCH  15  17
ENDBRANCH   2  15
TORSDOF 4
ENDMDL
MODEL 8
REMARK VINA RESULT:     -10.1      2.246      7.174
REMARK  Name = 24941262
REMARK  4 active torsions:
REMARK  status: ('A' for Active; 'I' for Inactive)
REMARK    1  A    between atoms: N_2  and  C_15
REMARK    2  A    between atoms: C_3  and  C_5
REMARK    3  A    between atoms: C_9  and  N_12
REMARK    4  A    between atoms: C_15  and  C_17
REMARK                            x       y       z     vdW  Elec       q    Type
REMARK                         _______ _______ _______ _____ _____    ______ ____
ROOT
ATOM      1  O   UNL     1      34.399 -21.744 -14.585  0.00  0.00    -0.270 OA
ATOM      2  N   UNL     1      34.163 -23.914 -15.364  0.00  0.00    -0.299 N 
ATOM      3  C   UNL     1      34.351 -22.552 -15.508  0.00  0.00    +0.246 C 
ATOM      4  H   UNL     1      34.138 -24.479 -16.171  0.00  0.00    +0.150 HD
ENDROOT
BRANCH   3   5
ATOM      5  C   UNL     1      34.473 -22.065 -16.907  0.00  0.00    +0.051 C 
ATOM      6  C   UNL     1      35.704 -21.657 -17.422  0.00  0.00    -0.017 C 
ATOM      7  C   UNL     1      33.332 -22.017 -17.707  0.00  0.00    +0.018 C 
ATOM      8  C   UNL     1      35.793 -21.203 -18.738  0.00  0.00    -0.003 C 
ATOM      9  C   UNL     1      33.422 -21.562 -19.023  0.00  0.00    +0.042 C 
ATOM     10  C   UNL     1      36.942 -21.698 -16.587  0.00  0.00    +0.031 C 
ATOM     11  C   UNL     1      34.653 -21.156 -19.539  0.00  0.00    +0.014 C 
BRANCH   9  12
ATOM     12  N   UNL     1      32.268 -21.514 -19.833  0.00  0.00    -0.357 N 
ATOM     13  H   UNL     1      31.725 -20.694 -19.868  0.00  0.00    +0.142 HD
ATOM     14  H   UNL     1      32.005 -22.301 -20.363  0.00  0.00    +0.142 HD
ENDBRANCH   9  12
ENDBRANCH   3   5
BRANCH   2  15
ATOM     15  C   UNL     1      34.000 -24.540 -14.065  0.00  0.00    +0.094 C 
ATOM     16  C   UNL     1      32.628 -24.166 -13.493  0.00  0.00    +0.026 C 
BRANCH  15  17
ATOM     17  C   UNL     1      35.132 -24.218 -13.140  0.00  0.00    -0.004 C 
ATOM     18  C   UNL     1      36.457 -24.589 -13.425  0.00  0.00    -0.002 C 
ATOM     19  C   UNL     1      37.482 -24.257 -12.508  0.00  0.00    -0.000 C 
ATOM     20  C   UNL     1      34.823 -23.529 -11.966  0.00  0.00    -0.003 C 
ATOM     21  C   UNL     1      36.786 -25.284 -14.601  0.00  0.00    -0.000 C 
ATOM     22  C   UNL     1      37.153 -23.562 -11.332  0.00  0.00    -0.000 C 
ATOM     23  C   UNL     1      35.832 -23.201 -11.065  0.00  0.00    -0.000 C 
ATOM     24  C   UNL     1      38.805 -24.626 -12.793  0.00  0.00    -0.000 C 
ATOM     25  C   UNL     1      38.107 -25.644 -14.868  0.00  0.00    -0.000 C 
ATOM     26  C   UNL     1      39.115 -25.317 -13.967  0.00  0.00    -0.000 C 
ENDBRANCH  15  17
ENDBRANCH   2  15
TORSDOF 4
ENDMDL
MODEL 9
REMARK VINA RESULT:     -10.0      5.583      8.939
REMARK  Name = 24941262
REMARK  4 active torsions:
REMARK  status: ('A' for Active; 'I' for Inactive)
REMARK    1  A    between atoms: N_2  and  C_15
REMARK    2  A    between atoms: C_3  and  C_5
REMARK    3  A    between atoms: C_9  and  N_12
REMARK    4  A    between atoms: C_15  and  C_17
REMARK                            x       y       z     vdW  Elec       q    Type
REMARK                         _______ _______ _______ _____ _____    ______ ____
ROOT
ATOM      1  O   UNL     1      33.646 -19.170 -23.209  0.00  0.00    -0.270 OA
ATOM      2  N   UNL     1      34.133 -17.323 -21.896  0.00  0.00    -0.299 N 
ATOM      3  C   UNL     1      33.983 -18.676 -22.137  0.00  0.00    +0.246 C 
ATOM      4  H   UNL     1      34.408 -17.026 -20.998  0.00  0.00    +0.150 HD
ENDROOT
BRANCH   3   5
ATOM      5  C   UNL     1      34.233 -19.567 -20.974  0.00  0.00    +0.051 C 
ATOM      6  C   UNL     1      35.520 -19.741 -20.464  0.00  0.00    -0.017 C 
ATOM      7  C   UNL     1      33.156 -20.235 -20.393  0.00  0.00    +0.018 C 
ATOM      8  C   UNL     1      35.729 -20.583 -19.372  0.00  0.00    -0.003 C 
ATOM      9  C   UNL     1      33.366 -21.078 -19.300  0.00  0.00    +0.042 C 
ATOM     10  C   UNL     1      36.692 -19.037 -21.067  0.00  0.00    +0.031 C 
ATOM     11  C   UNL     1      34.652 -21.251 -18.790  0.00  0.00    +0.014 C 
BRANCH   9  12
ATOM     12  N   UNL     1      32.276 -21.754 -18.712  0.00  0.00    -0.357 N 
ATOM     13  H   UNL     1      32.400 -22.657 -18.341  0.00  0.00    +0.142 HD
ATOM     14  H   UNL     1      31.392 -21.322 -18.671  0.00  0.00    +0.142 HD
ENDBRANCH   9  12
ENDBRANCH   3   5
BRANCH   2  15
ATOM     15  C   UNL     1      33.900 -16.324 -22.922  0.00  0.00    +0.094 C 
ATOM     16  C   UNL     1      35.025 -16.394 -23.961  0.00  0.00    +0.026 C 
BRANCH  15  17
ATOM     17  C   UNL     1      33.716 -14.955 -22.344  0.00  0.00    -0.004 C 
ATOM     18  C   UNL     1      33.332 -13.858 -23.134  0.00  0.00    -0.002 C 
ATOM     19  C   UNL     1      33.176 -12.589 -22.527  0.00  0.00    -0.000 C 
ATOM     20  C   UNL     1      33.943 -14.802 -20.975  0.00  0.00    -0.003 C 
ATOM     21  C   UNL     1      33.100 -13.993 -24.512  0.00  0.00    -0.000 C 
ATOM     22  C   UNL     1      33.408 -12.454 -21.148  0.00  0.00    -0.000 C 
ATOM     23  C   UNL     1      33.789 -13.555 -20.379  0.00  0.00    -0.000 C 
ATOM     24  C   UNL     1      32.792 -11.493 -23.315  0.00  0.00    -0.000 C 
ATOM     25  C   UNL     1      32.720 -12.892 -25.281  0.00  0.00    -0.000 C 
ATOM     26  C   UNL     1      32.566 -11.645 -24.685  0.00  0.00    -0.000 C 
ENDBRANCH  15  17
ENDBRANCH   2  15
TORSDOF 4
ENDMDL
