MODEL 1
REMARK VINA RESULT:     -12.2      0.000      0.000
REMARK  Name = 60151477
REMARK  6 active torsions:
REMARK  status: ('A' for Active; 'I' for Inactive)
REMARK    1  A    between atoms: C_1  and  O_19
REMARK    2  A    between atoms: C_6  and  N_8
REMARK    3  A    between atoms: C_9  and  C_11
REMARK    4  A    between atoms: C_11  and  N_13
REMARK    5  A    between atoms: O_19  and  C_25
REMARK    6  A    between atoms: N_20  and  C_27
REMARK                            x       y       z     vdW  Elec       q    Type
REMARK                         _______ _______ _______ _____ _____    ______ ____
ROOT
ATOM      1  C   UNL     1      34.206 -21.948 -18.271  0.00  0.00    +0.138 C 
ATOM      2  C   UNL     1      35.409 -21.463 -18.783  0.00  0.00    +0.038 C 
ATOM      3  C   UNL     1      32.993 -21.467 -18.763  0.00  0.00    +0.038 C 
ATOM      4  C   UNL     1      35.399 -20.495 -19.787  0.00  0.00    +0.018 C 
ATOM      5  C   UNL     1      32.983 -20.498 -19.768  0.00  0.00    +0.018 C 
ATOM      6  C   UNL     1      34.186 -20.012 -20.279  0.00  0.00    +0.050 C 
ENDROOT
BRANCH   6   8
ATOM      7  O   UNL     1      35.808 -17.504 -20.574  0.00  0.00    -0.277 OA
ATOM      8  N   UNL     1      34.177 -19.044 -21.284  0.00  0.00    -0.286 N 
ATOM      9  C   UNL     1      34.963 -17.882 -21.379  0.00  0.00    +0.205 C 
ATOM     10  H   UNL     1      33.541 -19.195 -22.019  0.00  0.00    +0.155 HD
BRANCH   9  11
ATOM     11  C   UNL     1      34.630 -17.105 -22.642  0.00  0.00    +0.010 C 
BRANCH  11  13
ATOM     12  O   UNL     1      33.141 -13.272 -21.803  0.00  0.00    -0.358 OA
ATOM     13  N   UNL     1      34.566 -15.679 -22.332  0.00  0.00    +0.396 N 
ATOM     14  C   UNL     1      33.886 -15.455 -21.047  0.00  0.00    -0.044 C 
ATOM     15  C   UNL     1      33.879 -14.942 -23.401  0.00  0.00    -0.044 C 
ATOM     16  C   UNL     1      33.820 -13.959 -20.751  0.00  0.00    +0.119 C 
ATOM     17  C   UNL     1      33.815 -13.459 -23.048  0.00  0.00    +0.119 C 
ATOM     18  H   UNL     1      35.523 -15.332 -22.259  0.00  0.00    -0.079 HD
ENDBRANCH  11  13
ENDBRANCH   9  11
ENDBRANCH   6   8
BRANCH   1  19
ATOM     19  O   UNL     1      34.216 -22.899 -17.285  0.00  0.00    -0.479 OA
BRANCH  19  25
ATOM     20  N   UNL     1      35.953 -24.191 -14.445  0.00  0.00    +0.388 N 
ATOM     21  C   UNL     1      34.634 -24.667 -14.878  0.00  0.00    -0.074 C 
ATOM     22  C   UNL     1      36.445 -23.090 -15.281  0.00  0.00    -0.074 C 
ATOM     23  C   UNL     1      33.583 -23.564 -15.047  0.00  0.00    +0.021 C 
ATOM     24  C   UNL     1      35.451 -21.937 -15.465  0.00  0.00    +0.021 C 
ATOM     25  C   UNL     1      34.089 -22.434 -15.943  0.00  0.00    +0.162 C 
ATOM     26  H   UNL     1      36.604 -24.968 -14.562  0.00  0.00    -0.080 HD
BRANCH  20  27
ATOM     27  C   UNL     1      35.940 -23.813 -13.024  0.00  0.00    -0.058 C 
ATOM     28  C   UNL     1      37.298 -23.184 -12.645  0.00  0.00    -0.021 C 
ATOM     29  C   UNL     1      36.348 -25.026 -12.162  0.00  0.00    -0.021 C 
ATOM     30  C   UNL     1      37.265 -24.064 -11.378  0.00  0.00    -0.004 C 
ENDBRANCH  20  27
ENDBRANCH  19  25
ENDBRANCH   1  19
TORSDOF 6
ENDMDL
MODEL 2
REMARK VINA RESULT:     -11.7      0.583      1.420
REMARK  Name = 60151477
REMARK  6 active torsions:
REMARK  status: ('A' for Active; 'I' for Inactive)
REMARK    1  A    between atoms: C_1  and  O_19
REMARK    2  A    between atoms: C_6  and  N_8
REMARK    3  A    between atoms: C_9  and  C_11
REMARK    4  A    between atoms: C_11  and  N_13
REMARK    5  A    between atoms: O_19  and  C_25
REMARK    6  A    between atoms: N_20  and  C_27
REMARK                            x       y       z     vdW  Elec       q    Type
REMARK                         _______ _______ _______ _____ _____    ______ ____
ROOT
ATOM      1  C   UNL     1      34.460 -21.842 -18.309  0.00  0.00    +0.138 C 
ATOM      2  C   UNL     1      33.252 -21.434 -18.875  0.00  0.00    +0.038 C 
ATOM      3  C   UNL     1      35.665 -21.343 -18.801  0.00  0.00    +0.038 C 
ATOM      4  C   UNL     1      33.250 -20.528 -19.935  0.00  0.00    +0.018 C 
ATOM      5  C   UNL     1      35.663 -20.436 -19.863  0.00  0.00    +0.018 C 
ATOM      6  C   UNL     1      34.456 -20.030 -20.430  0.00  0.00    +0.050 C 
ENDROOT
BRANCH   6   8
ATOM      7  O   UNL     1      35.307 -17.153 -20.527  0.00  0.00    -0.277 OA
ATOM      8  N   UNL     1      34.452 -19.123 -21.489  0.00  0.00    -0.286 N 
ATOM      9  C   UNL     1      34.867 -17.779 -21.486  0.00  0.00    +0.205 C 
ATOM     10  H   UNL     1      34.119 -19.468 -22.349  0.00  0.00    +0.155 HD
BRANCH   9  11
ATOM     11  C   UNL     1      34.693 -17.155 -22.861  0.00  0.00    +0.010 C 
BRANCH  11  13
ATOM     12  O   UNL     1      33.516 -13.130 -22.703  0.00  0.00    -0.358 OA
ATOM     13  N   UNL     1      33.869 -15.954 -22.748  0.00  0.00    +0.396 N 
ATOM     14  C   UNL     1      33.950 -15.150 -23.976  0.00  0.00    -0.044 C 
ATOM     15  C   UNL     1      34.275 -15.147 -21.590  0.00  0.00    -0.044 C 
ATOM     16  C   UNL     1      33.092 -13.896 -23.831  0.00  0.00    +0.119 C 
ATOM     17  C   UNL     1      33.408 -13.895 -21.501  0.00  0.00    +0.119 C 
ATOM     18  H   UNL     1      32.901 -16.250 -22.616  0.00  0.00    -0.079 HD
ENDBRANCH  11  13
ENDBRANCH   9  11
ENDBRANCH   6   8
BRANCH   1  19
ATOM     19  O   UNL     1      34.461 -22.732 -17.267  0.00  0.00    -0.479 OA
BRANCH  19  25
ATOM     20  N   UNL     1      36.306 -23.962 -14.469  0.00  0.00    +0.388 N 
ATOM     21  C   UNL     1      34.935 -24.379 -14.786  0.00  0.00    -0.074 C 
ATOM     22  C   UNL     1      36.805 -22.945 -15.402  0.00  0.00    -0.074 C 
ATOM     23  C   UNL     1      33.942 -23.222 -14.956  0.00  0.00    +0.021 C 
ATOM     24  C   UNL     1      35.871 -21.745 -15.594  0.00  0.00    +0.021 C 
ATOM     25  C   UNL     1      34.453 -22.182 -15.952  0.00  0.00    +0.162 C 
ATOM     26  H   UNL     1      36.900 -24.784 -14.577  0.00  0.00    -0.080 HD
BRANCH  20  27
ATOM     27  C   UNL     1      36.411 -23.501 -13.076  0.00  0.00    -0.058 C 
ATOM     28  C   UNL     1      37.749 -23.980 -12.474  0.00  0.00    -0.021 C 
ATOM     29  C   UNL     1      35.717 -24.514 -12.141  0.00  0.00    -0.021 C 
ATOM     30  C   UNL     1      36.950 -24.394 -11.221  0.00  0.00    -0.004 C 
ENDBRANCH  20  27
ENDBRANCH  19  25
ENDBRANCH   1  19
TORSDOF 6
ENDMDL
MODEL 3
REMARK VINA RESULT:     -10.9      5.439     13.874
REMARK  Name = 60151477
REMARK  6 active torsions:
REMARK  status: ('A' for Active; 'I' for Inactive)
REMARK    1  A    between atoms: C_1  and  O_19
REMARK    2  A    between atoms: C_6  and  N_8
REMARK    3  A    between atoms: C_9  and  C_11
REMARK    4  A    between atoms: C_11  and  N_13
REMARK    5  A    between atoms: O_19  and  C_25
REMARK    6  A    between atoms: N_20  and  C_27
REMARK                            x       y       z     vdW  Elec       q    Type
REMARK                         _______ _______ _______ _____ _____    ______ ____
ROOT
ATOM      1  C   UNL     1      32.028 -10.824 -22.361  0.00  0.00    +0.138 C 
ATOM      2  C   UNL     1      31.731 -11.812 -21.423  0.00  0.00    +0.038 C 
ATOM      3  C   UNL     1      32.896 -11.102 -23.416  0.00  0.00    +0.038 C 
ATOM      4  C   UNL     1      32.301 -13.079 -21.540  0.00  0.00    +0.018 C 
ATOM      5  C   UNL     1      33.468 -12.370 -23.533  0.00  0.00    +0.018 C 
ATOM      6  C   UNL     1      33.170 -13.358 -22.595  0.00  0.00    +0.050 C 
ENDROOT
BRANCH   6   8
ATOM      7  O   UNL     1      34.272 -15.192 -20.490  0.00  0.00    -0.277 OA
ATOM      8  N   UNL     1      33.740 -14.626 -22.711  0.00  0.00    -0.286 N 
ATOM      9  C   UNL     1      34.242 -15.452 -21.690  0.00  0.00    +0.205 C 
ATOM     10  H   UNL     1      33.798 -14.988 -23.624  0.00  0.00    +0.155 HD
BRANCH   9  11
ATOM     11  C   UNL     1      34.774 -16.755 -22.259  0.00  0.00    +0.010 C 
BRANCH  11  13
ATOM     12  O   UNL     1      35.281 -20.407 -20.255  0.00  0.00    -0.358 OA
ATOM     13  N   UNL     1      34.834 -17.760 -21.201  0.00  0.00    +0.396 N 
ATOM     14  C   UNL     1      36.190 -18.316 -21.085  0.00  0.00    -0.044 C 
ATOM     15  C   UNL     1      33.866 -18.838 -21.447  0.00  0.00    -0.044 C 
ATOM     16  C   UNL     1      36.225 -19.371 -19.983  0.00  0.00    +0.119 C 
ATOM     17  C   UNL     1      33.956 -19.879 -20.335  0.00  0.00    +0.119 C 
ATOM     18  H   UNL     1      34.594 -17.302 -20.321  0.00  0.00    -0.079 HD
ENDBRANCH  11  13
ENDBRANCH   9  11
ENDBRANCH   6   8
BRANCH   1  19
ATOM     19  O   UNL     1      31.467  -9.579 -22.245  0.00  0.00    -0.479 OA
BRANCH  19  25
ATOM     20  N   UNL     1      30.479  -6.148 -22.204  0.00  0.00    +0.388 N 
ATOM     21  C   UNL     1      30.252  -7.047 -23.342  0.00  0.00    -0.074 C 
ATOM     22  C   UNL     1      31.205  -6.809 -21.114  0.00  0.00    -0.074 C 
ATOM     23  C   UNL     1      31.509  -7.766 -23.845  0.00  0.00    +0.021 C 
ATOM     24  C   UNL     1      32.491  -7.523 -21.546  0.00  0.00    +0.021 C 
ATOM     25  C   UNL     1      32.245  -8.478 -22.712  0.00  0.00    +0.162 C 
ATOM     26  H   UNL     1      29.562  -5.891 -21.839  0.00  0.00    -0.080 HD
BRANCH  20  27
ATOM     27  C   UNL     1      31.165  -4.918 -22.628  0.00  0.00    -0.058 C 
ATOM     28  C   UNL     1      30.559  -3.708 -21.887  0.00  0.00    -0.021 C 
ATOM     29  C   UNL     1      30.500  -4.370 -23.908  0.00  0.00    -0.021 C 
ATOM     30  C   UNL     1      30.550  -2.977 -23.246  0.00  0.00    -0.004 C 
ENDBRANCH  20  27
ENDBRANCH  19  25
ENDBRANCH   1  19
TORSDOF 6
ENDMDL
MODEL 4
REMARK VINA RESULT:     -10.5      1.075      1.854
REMARK  Name = 60151477
REMARK  6 active torsions:
REMARK  status: ('A' for Active; 'I' for Inactive)
REMARK    1  A    between atoms: C_1  and  O_19
REMARK    2  A    between atoms: C_6  and  N_8
REMARK    3  A    between atoms: C_9  and  C_11
REMARK    4  A    between atoms: C_11  and  N_13
REMARK    5  A    between atoms: O_19  and  C_25
REMARK    6  A    between atoms: N_20  and  C_27
REMARK                            x       y       z     vdW  Elec       q    Type
REMARK                         _______ _______ _______ _____ _____    ______ ____
ROOT
ATOM      1  C   UNL     1      33.617 -21.769 -18.008  0.00  0.00    +0.138 C 
ATOM      2  C   UNL     1      34.930 -21.576 -18.436  0.00  0.00    +0.038 C 
ATOM      3  C   UNL     1      32.563 -21.176 -18.702  0.00  0.00    +0.038 C 
ATOM      4  C   UNL     1      35.190 -20.789 -19.558  0.00  0.00    +0.018 C 
ATOM      5  C   UNL     1      32.822 -20.388 -19.824  0.00  0.00    +0.018 C 
ATOM      6  C   UNL     1      34.135 -20.194 -20.252  0.00  0.00    +0.050 C 
ENDROOT
BRANCH   6   8
ATOM      7  O   UNL     1      35.575 -17.572 -20.493  0.00  0.00    -0.277 OA
ATOM      8  N   UNL     1      34.396 -19.408 -21.374  0.00  0.00    -0.286 N 
ATOM      9  C   UNL     1      35.081 -18.182 -21.437  0.00  0.00    +0.205 C 
ATOM     10  H   UNL     1      34.058 -19.756 -22.230  0.00  0.00    +0.155 HD
BRANCH   9  11
ATOM     11  C   UNL     1      35.137 -17.666 -22.865  0.00  0.00    +0.010 C 
BRANCH  11  13
ATOM     12  O   UNL     1      33.481 -13.899 -23.688  0.00  0.00    -0.358 OA
ATOM     13  N   UNL     1      34.175 -16.579 -23.027  0.00  0.00    +0.396 N 
ATOM     14  C   UNL     1      34.141 -16.115 -24.422  0.00  0.00    -0.044 C 
ATOM     15  C   UNL     1      34.494 -15.459 -22.131  0.00  0.00    -0.044 C 
ATOM     16  C   UNL     1      33.139 -14.973 -24.564  0.00  0.00    +0.119 C 
ATOM     17  C   UNL     1      33.482 -14.334 -22.328  0.00  0.00    +0.119 C 
ATOM     18  H   UNL     1      33.252 -16.939 -22.781  0.00  0.00    -0.079 HD
ENDBRANCH  11  13
ENDBRANCH   9  11
ENDBRANCH   6   8
BRANCH   1  19
ATOM     19  O   UNL     1      33.363 -22.542 -16.906  0.00  0.00    -0.479 OA
BRANCH  19  25
ATOM     20  N   UNL     1      34.494 -22.792 -13.529  0.00  0.00    +0.388 N 
ATOM     21  C   UNL     1      35.053 -21.851 -14.506  0.00  0.00    -0.074 C 
ATOM     22  C   UNL     1      33.459 -23.650 -14.116  0.00  0.00    -0.074 C 
ATOM     23  C   UNL     1      35.521 -22.498 -15.815  0.00  0.00    +0.021 C 
ATOM     24  C   UNL     1      33.875 -24.352 -15.414  0.00  0.00    +0.021 C 
ATOM     25  C   UNL     1      34.429 -23.366 -16.439  0.00  0.00    +0.162 C 
ATOM     26  H   UNL     1      34.043 -22.235 -12.803  0.00  0.00    -0.080 HD
BRANCH  20  27
ATOM     27  C   UNL     1      35.553 -23.595 -12.899  0.00  0.00    -0.058 C 
ATOM     28  C   UNL     1      35.107 -24.019 -11.484  0.00  0.00    -0.021 C 
ATOM     29  C   UNL     1      36.573 -22.661 -12.214  0.00  0.00    -0.021 C 
ATOM     30  C   UNL     1      36.515 -23.613 -11.001  0.00  0.00    -0.004 C 
ENDBRANCH  20  27
ENDBRANCH  19  25
ENDBRANCH   1  19
TORSDOF 6
ENDMDL
MODEL 5
REMARK VINA RESULT:     -10.4      5.442     13.158
REMARK  Name = 60151477
REMARK  6 active torsions:
REMARK  status: ('A' for Active; 'I' for Inactive)
REMARK    1  A    between atoms: C_1  and  O_19
REMARK    2  A    between atoms: C_6  and  N_8
REMARK    3  A    between atoms: C_9  and  C_11
REMARK    4  A    between atoms: C_11  and  N_13
REMARK    5  A    between atoms: O_19  and  C_25
REMARK    6  A    between atoms: N_20  and  C_27
REMARK                            x       y       z     vdW  Elec       q    Type
REMARK                         _______ _______ _______ _____ _____    ______ ____
ROOT
ATOM      1  C   UNL     1      33.081 -11.420 -22.981  0.00  0.00    +0.138 C 
ATOM      2  C   UNL     1      32.772 -12.090 -24.164  0.00  0.00    +0.038 C 
ATOM      3  C   UNL     1      33.526 -12.135 -21.870  0.00  0.00    +0.038 C 
ATOM      4  C   UNL     1      32.906 -13.476 -24.236  0.00  0.00    +0.018 C 
ATOM      5  C   UNL     1      33.661 -13.522 -21.941  0.00  0.00    +0.018 C 
ATOM      6  C   UNL     1      33.350 -14.192 -23.124  0.00  0.00    +0.050 C 
ENDROOT
BRANCH   6   8
ATOM      7  O   UNL     1      34.391 -15.928 -25.341  0.00  0.00    -0.277 OA
ATOM      8  N   UNL     1      33.485 -15.579 -23.198  0.00  0.00    -0.286 N 
ATOM      9  C   UNL     1      33.984 -16.349 -24.263  0.00  0.00    +0.205 C 
ATOM     10  H   UNL     1      33.195 -16.081 -22.402  0.00  0.00    +0.155 HD
BRANCH   9  11
ATOM     11  C   UNL     1      33.955 -17.829 -23.921  0.00  0.00    +0.010 C 
BRANCH  11  13
ATOM     12  O   UNL     1      35.645 -19.481 -20.453  0.00  0.00    -0.358 OA
ATOM     13  N   UNL     1      34.368 -18.015 -22.532  0.00  0.00    +0.396 N 
ATOM     14  C   UNL     1      35.833 -18.084 -22.428  0.00  0.00    -0.044 C 
ATOM     15  C   UNL     1      33.766 -19.230 -21.965  0.00  0.00    -0.044 C 
ATOM     16  C   UNL     1      36.240 -18.291 -20.972  0.00  0.00    +0.119 C 
ATOM     17  C   UNL     1      34.221 -19.407 -20.520  0.00  0.00    +0.119 C 
ATOM     18  H   UNL     1      34.041 -17.210 -21.998  0.00  0.00    -0.079 HD
ENDBRANCH  11  13
ENDBRANCH   9  11
ENDBRANCH   6   8
BRANCH   1  19
ATOM     19  O   UNL     1      32.949 -10.057 -22.911  0.00  0.00    -0.479 OA
BRANCH  19  25
ATOM     20  N   UNL     1      32.014  -6.768 -21.886  0.00  0.00    +0.388 N 
ATOM     21  C   UNL     1      32.084  -7.915 -20.974  0.00  0.00    -0.074 C 
ATOM     22  C   UNL     1      32.319  -7.144 -23.272  0.00  0.00    -0.074 C 
ATOM     23  C   UNL     1      31.277  -9.137 -21.426  0.00  0.00    +0.021 C 
ATOM     24  C   UNL     1      31.521  -8.343 -23.796  0.00  0.00    +0.021 C 
ATOM     25  C   UNL     1      31.620  -9.543 -22.858  0.00  0.00    +0.162 C 
ATOM     26  H   UNL     1      32.733  -6.107 -21.591  0.00  0.00    -0.080 HD
BRANCH  20  27
ATOM     27  C   UNL     1      30.709  -6.096 -21.794  0.00  0.00    -0.058 C 
ATOM     28  C   UNL     1      30.642  -4.953 -22.830  0.00  0.00    -0.021 C 
ATOM     29  C   UNL     1      30.765  -5.002 -20.707  0.00  0.00    -0.021 C 
ATOM     30  C   UNL     1      30.048  -4.075 -21.710  0.00  0.00    -0.004 C 
ENDBRANCH  20  27
ENDBRANCH  19  25
ENDBRANCH   1  19
TORSDOF 6
ENDMDL
MODEL 6
REMARK VINA RESULT:     -10.4      1.959     10.239
REMARK  Name = 60151477
REMARK  6 active torsions:
REMARK  status: ('A' for Active; 'I' for Inactive)
REMARK    1  A    between atoms: C_1  and  O_19
REMARK    2  A    between atoms: C_6  and  N_8
REMARK    3  A    between atoms: C_9  and  C_11
REMARK    4  A    between atoms: C_11  and  N_13
REMARK    5  A    between atoms: O_19  and  C_25
REMARK    6  A    between atoms: N_20  and  C_27
REMARK                            x       y       z     vdW  Elec       q    Type
REMARK                         _______ _______ _______ _____ _____    ______ ____
ROOT
ATOM      1  C   UNL     1      34.951 -20.726 -19.882  0.00  0.00    +0.138 C 
ATOM      2  C   UNL     1      36.108 -20.716 -19.103  0.00  0.00    +0.038 C 
ATOM      3  C   UNL     1      33.792 -21.333 -19.401  0.00  0.00    +0.038 C 
ATOM      4  C   UNL     1      36.106 -21.314 -17.843  0.00  0.00    +0.018 C 
ATOM      5  C   UNL     1      33.789 -21.933 -18.140  0.00  0.00    +0.018 C 
ATOM      6  C   UNL     1      34.947 -21.923 -17.362  0.00  0.00    +0.050 C 
ENDROOT
BRANCH   6   8
ATOM      7  O   UNL     1      32.719 -23.237 -15.838  0.00  0.00    -0.277 OA
ATOM      8  N   UNL     1      34.945 -22.521 -16.102  0.00  0.00    -0.286 N 
ATOM      9  C   UNL     1      33.871 -23.129 -15.428  0.00  0.00    +0.205 C 
ATOM     10  H   UNL     1      35.806 -22.517 -15.624  0.00  0.00    +0.155 HD
BRANCH   9  11
ATOM     11  C   UNL     1      34.310 -23.654 -14.072  0.00  0.00    +0.010 C 
BRANCH  11  13
ATOM     12  O   UNL     1      37.547 -26.266 -13.514  0.00  0.00    -0.358 OA
ATOM     13  N   UNL     1      35.623 -24.282 -14.195  0.00  0.00    +0.396 N 
ATOM     14  C   UNL     1      35.496 -25.669 -14.666  0.00  0.00    -0.044 C 
ATOM     15  C   UNL     1      36.342 -24.248 -12.914  0.00  0.00    -0.044 C 
ATOM     16  C   UNL     1      36.878 -26.307 -14.775  0.00  0.00    +0.119 C 
ATOM     17  C   UNL     1      37.704 -24.918 -13.067  0.00  0.00    +0.119 C 
ATOM     18  H   UNL     1      36.160 -23.752 -14.884  0.00  0.00    -0.079 HD
ENDBRANCH  11  13
ENDBRANCH   9  11
ENDBRANCH   6   8
BRANCH   1  19
ATOM     19  O   UNL     1      34.953 -20.138 -21.120  0.00  0.00    -0.479 OA
BRANCH  19  25
ATOM     20  N   UNL     1      35.067 -16.820 -22.432  0.00  0.00    +0.388 N 
ATOM     21  C   UNL     1      34.992 -17.126 -20.999  0.00  0.00    -0.074 C 
ATOM     22  C   UNL     1      35.034 -18.032 -23.259  0.00  0.00    -0.074 C 
ATOM     23  C   UNL     1      33.837 -18.055 -20.606  0.00  0.00    +0.021 C 
ATOM     24  C   UNL     1      33.883 -18.991 -22.936  0.00  0.00    +0.021 C 
ATOM     25  C   UNL     1      33.826 -19.329 -21.449  0.00  0.00    +0.162 C 
ATOM     26  H   UNL     1      35.969 -16.372 -22.595  0.00  0.00    -0.080 HD
BRANCH  20  27
ATOM     27  C   UNL     1      34.009 -15.879 -22.829  0.00  0.00    -0.058 C 
ATOM     28  C   UNL     1      34.550 -14.920 -23.912  0.00  0.00    -0.021 C 
ATOM     29  C   UNL     1      34.005 -14.670 -21.871  0.00  0.00    -0.021 C 
ATOM     30  C   UNL     1      33.884 -13.775 -23.122  0.00  0.00    -0.004 C 
ENDBRANCH  20  27
ENDBRANCH  19  25
ENDBRANCH   1  19
TORSDOF 6
ENDMDL
MODEL 7
REMARK VINA RESULT:     -10.4      6.274     13.865
REMARK  Name = 60151477
REMARK  6 active torsions:
REMARK  status: ('A' for Active; 'I' for Inactive)
REMARK    1  A    between atoms: C_1  and  O_19
REMARK    2  A    between atoms: C_6  and  N_8
REMARK    3  A    between atoms: C_9  and  C_11
REMARK    4  A    between atoms: C_11  and  N_13
REMARK    5  A    between atoms: O_19  and  C_25
REMARK    6  A    between atoms: N_20  and  C_27
REMARK                            x       y       z     vdW  Elec       q    Type
REMARK                         _______ _______ _______ _____ _____    ______ ____
ROOT
ATOM      1  C   UNL     1      31.989 -10.793 -22.469  0.00  0.00    +0.138 C 
ATOM      2  C   UNL     1      31.578 -11.897 -21.722  0.00  0.00    +0.038 C 
ATOM      3  C   UNL     1      32.881 -10.961 -23.528  0.00  0.00    +0.038 C 
ATOM      4  C   UNL     1      32.058 -13.168 -22.034  0.00  0.00    +0.018 C 
ATOM      5  C   UNL     1      33.363 -12.233 -23.840  0.00  0.00    +0.018 C 
ATOM      6  C   UNL     1      32.952 -13.336 -23.092  0.00  0.00    +0.050 C 
ENDROOT
BRANCH   6   8
ATOM      7  O   UNL     1      32.991 -14.810 -25.707  0.00  0.00    -0.277 OA
ATOM      8  N   UNL     1      33.431 -14.608 -23.404  0.00  0.00    -0.286 N 
ATOM      9  C   UNL     1      33.431 -15.257 -24.652  0.00  0.00    +0.205 C 
ATOM     10  H   UNL     1      33.821 -15.116 -22.656  0.00  0.00    +0.155 HD
BRANCH   9  11
ATOM     11  C   UNL     1      34.053 -16.639 -24.544  0.00  0.00    +0.010 C 
BRANCH  11  13
ATOM     12  O   UNL     1      34.919 -18.550 -20.909  0.00  0.00    -0.358 OA
ATOM     13  N   UNL     1      33.947 -17.113 -23.166  0.00  0.00    +0.396 N 
ATOM     14  C   UNL     1      35.060 -16.604 -22.352  0.00  0.00    -0.044 C 
ATOM     15  C   UNL     1      33.919 -18.581 -23.119  0.00  0.00    -0.044 C 
ATOM     16  C   UNL     1      34.936 -17.122 -20.922  0.00  0.00    +0.119 C 
ATOM     17  C   UNL     1      33.819 -19.051 -21.671  0.00  0.00    +0.119 C 
ATOM     18  H   UNL     1      33.071 -16.758 -22.780  0.00  0.00    -0.079 HD
ENDBRANCH  11  13
ENDBRANCH   9  11
ENDBRANCH   6   8
BRANCH   1  19
ATOM     19  O   UNL     1      31.517  -9.544 -22.162  0.00  0.00    -0.479 OA
BRANCH  19  25
ATOM     20  N   UNL     1      30.472  -6.130 -22.188  0.00  0.00    +0.388 N 
ATOM     21  C   UNL     1      30.294  -7.044 -23.322  0.00  0.00    -0.074 C 
ATOM     22  C   UNL     1      31.175  -6.768 -21.069  0.00  0.00    -0.074 C 
ATOM     23  C   UNL     1      31.578  -7.747 -23.779  0.00  0.00    +0.021 C 
ATOM     24  C   UNL     1      32.485  -7.465 -21.454  0.00  0.00    +0.021 C 
ATOM     25  C   UNL     1      32.290  -8.436 -22.616  0.00  0.00    +0.162 C 
ATOM     26  H   UNL     1      29.539  -5.885 -21.854  0.00  0.00    -0.080 HD
BRANCH  20  27
ATOM     27  C   UNL     1      31.150  -4.893 -22.604  0.00  0.00    -0.058 C 
ATOM     28  C   UNL     1      30.437  -3.677 -21.975  0.00  0.00    -0.021 C 
ATOM     29  C   UNL     1      30.586  -4.425 -23.962  0.00  0.00    -0.021 C 
ATOM     30  C   UNL     1      30.527  -3.005 -23.361  0.00  0.00    -0.004 C 
ENDBRANCH  20  27
ENDBRANCH  19  25
ENDBRANCH   1  19
TORSDOF 6
ENDMDL
MODEL 8
REMARK VINA RESULT:     -10.2      3.886     12.449
REMARK  Name = 60151477
REMARK  6 active torsions:
REMARK  status: ('A' for Active; 'I' for Inactive)
REMARK    1  A    between atoms: C_1  and  O_19
REMARK    2  A    between atoms: C_6  and  N_8
REMARK    3  A    between atoms: C_9  and  C_11
REMARK    4  A    between atoms: C_11  and  N_13
REMARK    5  A    between atoms: O_19  and  C_25
REMARK    6  A    between atoms: N_20  and  C_27
REMARK                            x       y       z     vdW  Elec       q    Type
REMARK                         _______ _______ _______ _____ _____    ______ ____
ROOT
ATOM      1  C   UNL     1      33.107 -12.838 -21.356  0.00  0.00    +0.138 C 
ATOM      2  C   UNL     1      33.076 -13.597 -20.187  0.00  0.00    +0.038 C 
ATOM      3  C   UNL     1      33.671 -13.366 -22.517  0.00  0.00    +0.038 C 
ATOM      4  C   UNL     1      33.610 -14.886 -20.178  0.00  0.00    +0.018 C 
ATOM      5  C   UNL     1      34.207 -14.655 -22.509  0.00  0.00    +0.018 C 
ATOM      6  C   UNL     1      34.176 -15.414 -21.339  0.00  0.00    +0.050 C 
ENDROOT
BRANCH   6   8
ATOM      7  O   UNL     1      33.857 -17.662 -23.302  0.00  0.00    -0.277 OA
ATOM      8  N   UNL     1      34.710 -16.703 -21.329  0.00  0.00    -0.286 N 
ATOM      9  C   UNL     1      34.533 -17.725 -22.279  0.00  0.00    +0.205 C 
ATOM     10  H   UNL     1      35.283 -16.925 -20.561  0.00  0.00    +0.155 HD
BRANCH   9  11
ATOM     11  C   UNL     1      35.296 -18.975 -21.878  0.00  0.00    +0.010 C 
BRANCH  11  13
ATOM     12  O   UNL     1      33.633 -21.594 -19.052  0.00  0.00    -0.358 OA
ATOM     13  N   UNL     1      34.743 -19.504 -20.634  0.00  0.00    +0.396 N 
ATOM     14  C   UNL     1      35.574 -20.602 -20.118  0.00  0.00    -0.044 C 
ATOM     15  C   UNL     1      33.362 -19.967 -20.830  0.00  0.00    -0.044 C 
ATOM     16  C   UNL     1      34.970 -21.146 -18.827  0.00  0.00    +0.119 C 
ATOM     17  C   UNL     1      32.811 -20.524 -19.521  0.00  0.00    +0.119 C 
ATOM     18  H   UNL     1      34.738 -18.749 -19.947  0.00  0.00    -0.079 HD
ENDBRANCH  11  13
ENDBRANCH   9  11
ENDBRANCH   6   8
BRANCH   1  19
ATOM     19  O   UNL     1      32.582 -11.572 -21.364  0.00  0.00    -0.479 OA
BRANCH  19  25
ATOM     20  N   UNL     1      31.893  -8.254 -22.488  0.00  0.00    +0.388 N 
ATOM     21  C   UNL     1      31.044  -8.985 -21.540  0.00  0.00    -0.074 C 
ATOM     22  C   UNL     1      33.022  -9.065 -22.958  0.00  0.00    -0.074 C 
ATOM     23  C   UNL     1      30.592 -10.367 -22.026  0.00  0.00    +0.021 C 
ATOM     24  C   UNL     1      32.634 -10.451 -23.486  0.00  0.00    +0.021 C 
ATOM     25  C   UNL     1      31.775 -11.219 -22.485  0.00  0.00    +0.162 C 
ATOM     26  H   UNL     1      32.286  -7.458 -21.984  0.00  0.00    -0.080 HD
BRANCH  20  27
ATOM     27  C   UNL     1      31.105  -7.738 -23.617  0.00  0.00    -0.058 C 
ATOM     28  C   UNL     1      31.939  -6.699 -24.396  0.00  0.00    -0.021 C 
ATOM     29  C   UNL     1      30.226  -6.562 -23.141  0.00  0.00    -0.021 C 
ATOM     30  C   UNL     1      30.677  -5.810 -24.411  0.00  0.00    -0.004 C 
ENDBRANCH  20  27
ENDBRANCH  19  25
ENDBRANCH   1  19
TORSDOF 6
ENDMDL
MODEL 9
REMARK VINA RESULT:      -9.9      2.030      3.313
REMARK  Name = 60151477
REMARK  6 active torsions:
REMARK  status: ('A' for Active; 'I' for Inactive)
REMARK    1  A    between atoms: C_1  and  O_19
REMARK    2  A    between atoms: C_6  and  N_8
REMARK    3  A    between atoms: C_9  and  C_11
REMARK    4  A    between atoms: C_11  and  N_13
REMARK    5  A    between atoms: O_19  and  C_25
REMARK    6  A    between atoms: N_20  and  C_27
REMARK                            x       y       z     vdW  Elec       q    Type
REMARK                         _______ _______ _______ _____ _____    ______ ____
ROOT
ATOM      1  C   UNL     1      34.532 -21.671 -17.789  0.00  0.00    +0.138 C 
ATOM      2  C   UNL     1      35.773 -21.247 -18.262  0.00  0.00    +0.038 C 
ATOM      3  C   UNL     1      33.371 -21.349 -18.491  0.00  0.00    +0.038 C 
ATOM      4  C   UNL     1      35.854 -20.501 -19.437  0.00  0.00    +0.018 C 
ATOM      5  C   UNL     1      33.451 -20.602 -19.668  0.00  0.00    +0.018 C 
ATOM      6  C   UNL     1      34.693 -20.178 -20.140  0.00  0.00    +0.050 C 
ENDROOT
BRANCH   6   8
ATOM      7  O   UNL     1      35.255 -17.259 -20.553  0.00  0.00    -0.277 OA
ATOM      8  N   UNL     1      34.775 -19.433 -21.316  0.00  0.00    -0.286 N 
ATOM      9  C   UNL     1      35.046 -18.060 -21.459  0.00  0.00    +0.205 C 
ATOM     10  H   UNL     1      34.626 -19.931 -22.151  0.00  0.00    +0.155 HD
BRANCH   9  11
ATOM     11  C   UNL     1      35.041 -17.657 -22.924  0.00  0.00    +0.010 C 
BRANCH  11  13
ATOM     12  O   UNL     1      33.502 -13.867 -23.858  0.00  0.00    -0.358 OA
ATOM     13  N   UNL     1      34.112 -16.547 -23.119  0.00  0.00    +0.396 N 
ATOM     14  C   UNL     1      34.095 -16.123 -24.527  0.00  0.00    -0.044 C 
ATOM     15  C   UNL     1      34.465 -15.411 -22.255  0.00  0.00    -0.044 C 
ATOM     16  C   UNL     1      33.128 -14.955 -24.704  0.00  0.00    +0.119 C 
ATOM     17  C   UNL     1      33.488 -14.262 -22.486  0.00  0.00    +0.119 C 
ATOM     18  H   UNL     1      33.179 -16.871 -22.865  0.00  0.00    -0.079 HD
ENDBRANCH  11  13
ENDBRANCH   9  11
ENDBRANCH   6   8
BRANCH   1  19
ATOM     19  O   UNL     1      34.453 -22.404 -16.633  0.00  0.00    -0.479 OA
BRANCH  19  25
ATOM     20  N   UNL     1      32.112 -23.374 -14.118  0.00  0.00    +0.388 N 
ATOM     21  C   UNL     1      33.508 -23.824 -14.147  0.00  0.00    -0.074 C 
ATOM     22  C   UNL     1      31.780 -22.527 -15.270  0.00  0.00    -0.074 C 
ATOM     23  C   UNL     1      33.943 -24.463 -15.471  0.00  0.00    +0.021 C 
ATOM     24  C   UNL     1      32.163 -23.123 -16.629  0.00  0.00    +0.021 C 
ATOM     25  C   UNL     1      33.624 -23.564 -16.664  0.00  0.00    +0.162 C 
ATOM     26  H   UNL     1      32.001 -22.798 -13.283  0.00  0.00    -0.080 HD
BRANCH  20  27
ATOM     27  C   UNL     1      31.189 -24.514 -14.016  0.00  0.00    -0.058 C 
ATOM     28  C   UNL     1      30.005 -24.309 -14.985  0.00  0.00    -0.021 C 
ATOM     29  C   UNL     1      30.190 -24.269 -12.866  0.00  0.00    -0.021 C 
ATOM     30  C   UNL     1      29.082 -24.746 -13.828  0.00  0.00    -0.004 C 
ENDBRANCH  20  27
ENDBRANCH  19  25
ENDBRANCH   1  19
TORSDOF 6
ENDMDL
