MODEL 1
REMARK VINA RESULT:     -12.4      0.000      0.000
REMARK  Name = 9875401
REMARK  5 active torsions:
REMARK  status: ('A' for Active; 'I' for Inactive)
REMARK    1  A    between atoms: N_3  and  C_7
REMARK    2  A    between atoms: C_4  and  C_20
REMARK    3  A    between atoms: C_8  and  N_15
REMARK    4  A    between atoms: C_20  and  N_22
REMARK    5  A    between atoms: C_23  and  C_27
REMARK                            x       y       z     vdW  Elec       q    Type
REMARK                         _______ _______ _______ _____ _____    ______ ____
ROOT
ATOM      1  O   UNL     1      33.563 -20.279 -20.512  0.00  0.00    -0.434 OA
ATOM      2  O   UNL     1      32.246 -20.893 -18.770  0.00  0.00    -0.226 OA
ATOM      3  N   UNL     1      34.582 -21.268 -18.758  0.00  0.00    -0.221 N 
ATOM      4  C   UNL     1      34.972 -20.147 -20.745  0.00  0.00    +0.210 C 
ATOM      5  C   UNL     1      35.607 -21.099 -19.754  0.00  0.00    +0.147 C 
ATOM      6  C   UNL     1      33.363 -20.825 -19.264  0.00  0.00    +0.409 C 
ENDROOT
BRANCH   3   7
ATOM      7  C   UNL     1      34.822 -21.898 -17.503  0.00  0.00    +0.057 C 
ATOM      8  C   UNL     1      35.291 -23.129 -15.051  0.00  0.00    +0.054 C 
ATOM      9  C   UNL     1      36.060 -21.755 -16.877  0.00  0.00    +0.016 C 
ATOM     10  C   UNL     1      33.820 -22.657 -16.901  0.00  0.00    +0.016 C 
ATOM     11  C   UNL     1      36.295 -22.371 -15.648  0.00  0.00    +0.016 C 
ATOM     12  C   UNL     1      34.054 -23.274 -15.672  0.00  0.00    +0.016 C 
BRANCH   8  15
ATOM     13  O   UNL     1      35.727 -24.992 -11.252  0.00  0.00    -0.343 OA
ATOM     14  O   UNL     1      36.837 -25.546 -14.600  0.00  0.00    -0.272 OA
ATOM     15  N   UNL     1      35.534 -23.766 -13.779  0.00  0.00    -0.254 N 
ATOM     16  C   UNL     1      34.754 -23.315 -12.619  0.00  0.00    +0.130 C 
ATOM     17  C   UNL     1      35.458 -23.599 -11.307  0.00  0.00    +0.165 C 
ATOM     18  C   UNL     1      36.345 -24.908 -13.667  0.00  0.00    +0.260 C 
ATOM     19  C   UNL     1      36.662 -25.348 -12.242  0.00  0.00    +0.228 C 
ENDBRANCH   8  15
ENDBRANCH   3   7
BRANCH   4  20
ATOM     20  C   UNL     1      35.373 -18.695 -20.523  0.00  0.00    +0.135 C 
BRANCH  20  22
ATOM     21  O   UNL     1      34.532 -16.014 -20.299  0.00  0.00    -0.270 OA
ATOM     22  N   UNL     1      34.926 -17.864 -21.602  0.00  0.00    -0.297 N 
ATOM     23  C   UNL     1      34.522 -16.538 -21.414  0.00  0.00    +0.252 C 
ATOM     24  H   UNL     1      34.902 -18.242 -22.512  0.00  0.00    +0.150 HD
BRANCH  23  27
ATOM     25 CL   UNL     1      32.812 -12.602 -24.816  0.00  0.00    -0.075 Cl
ATOM     26  S   UNL     1      33.643 -14.191 -22.449  0.00  0.00    -0.071 S 
ATOM     27  C   UNL     1      34.122 -15.805 -22.622  0.00  0.00    +0.084 C 
ATOM     28  C   UNL     1      34.087 -16.270 -23.891  0.00  0.00    +0.012 C 
ATOM     29  C   UNL     1      33.642 -15.256 -24.787  0.00  0.00    +0.019 C 
ATOM     30  C   UNL     1      33.366 -14.075 -24.134  0.00  0.00    +0.087 C 
ENDBRANCH  23  27
ENDBRANCH  20  22
ENDBRANCH   4  20
TORSDOF 5
ENDMDL
MODEL 2
REMARK VINA RESULT:     -11.7      1.459      2.092
REMARK  Name = 9875401
REMARK  5 active torsions:
REMARK  status: ('A' for Active; 'I' for Inactive)
REMARK    1  A    between atoms: N_3  and  C_7
REMARK    2  A    between atoms: C_4  and  C_20
REMARK    3  A    between atoms: C_8  and  N_15
REMARK    4  A    between atoms: C_20  and  N_22
REMARK    5  A    between atoms: C_23  and  C_27
REMARK                            x       y       z     vdW  Elec       q    Type
REMARK                         _______ _______ _______ _____ _____    ______ ____
ROOT
ATOM      1  O   UNL     1      33.983 -19.323 -21.542  0.00  0.00    -0.434 OA
ATOM      2  O   UNL     1      32.510 -19.850 -19.899  0.00  0.00    -0.226 OA
ATOM      3  N   UNL     1      34.783 -20.500 -19.789  0.00  0.00    -0.221 N 
ATOM      4  C   UNL     1      35.408 -19.350 -21.698  0.00  0.00    +0.210 C 
ATOM      5  C   UNL     1      35.873 -20.411 -20.724  0.00  0.00    +0.147 C 
ATOM      6  C   UNL     1      33.653 -19.894 -20.333  0.00  0.00    +0.409 C 
ENDROOT
BRANCH   3   7
ATOM      7  C   UNL     1      34.878 -21.206 -18.556  0.00  0.00    +0.057 C 
ATOM      8  C   UNL     1      35.064 -22.586 -16.146  0.00  0.00    +0.054 C 
ATOM      9  C   UNL     1      33.800 -21.966 -18.103  0.00  0.00    +0.016 C 
ATOM     10  C   UNL     1      36.049 -21.137 -17.801  0.00  0.00    +0.016 C 
ATOM     11  C   UNL     1      33.893 -22.658 -16.896  0.00  0.00    +0.016 C 
ATOM     12  C   UNL     1      36.143 -21.828 -16.594  0.00  0.00    +0.016 C 
BRANCH   8  15
ATOM     13  O   UNL     1      35.599 -24.567 -12.420  0.00  0.00    -0.343 OA
ATOM     14  O   UNL     1      33.007 -22.781 -14.105  0.00  0.00    -0.272 OA
ATOM     15  N   UNL     1      35.161 -23.303 -14.897  0.00  0.00    -0.254 N 
ATOM     16  C   UNL     1      36.482 -23.793 -14.481  0.00  0.00    +0.130 C 
ATOM     17  C   UNL     1      36.385 -24.969 -13.531  0.00  0.00    +0.165 C 
ATOM     18  C   UNL     1      34.081 -23.377 -14.002  0.00  0.00    +0.260 C 
ATOM     19  C   UNL     1      34.272 -24.326 -12.823  0.00  0.00    +0.228 C 
ENDBRANCH   8  15
ENDBRANCH   3   7
BRANCH   4  20
ATOM     20  C   UNL     1      35.962 -17.966 -21.386  0.00  0.00    +0.135 C 
BRANCH  20  22
ATOM     21  O   UNL     1      34.444 -15.851 -20.304  0.00  0.00    -0.270 OA
ATOM     22  N   UNL     1      35.281 -16.954 -22.138  0.00  0.00    -0.297 N 
ATOM     23  C   UNL     1      34.543 -15.932 -21.530  0.00  0.00    +0.252 C 
ATOM     24  H   UNL     1      35.332 -16.979 -23.121  0.00  0.00    +0.150 HD
BRANCH  23  27
ATOM     25 CL   UNL     1      32.700 -13.393 -26.018  0.00  0.00    -0.075 Cl
ATOM     26  S   UNL     1      33.913 -15.298 -24.089  0.00  0.00    -0.071 S 
ATOM     27  C   UNL     1      33.929 -14.951 -22.433  0.00  0.00    +0.084 C 
ATOM     28  C   UNL     1      33.358 -13.772 -22.098  0.00  0.00    +0.012 C 
ATOM     29  C   UNL     1      32.874 -13.100 -23.258  0.00  0.00    +0.019 C 
ATOM     30  C   UNL     1      33.112 -13.819 -24.408  0.00  0.00    +0.087 C 
ENDBRANCH  23  27
ENDBRANCH  20  22
ENDBRANCH   4  20
TORSDOF 5
ENDMDL
MODEL 3
REMARK VINA RESULT:     -11.6      5.327      9.154
REMARK  Name = 9875401
REMARK  5 active torsions:
REMARK  status: ('A' for Active; 'I' for Inactive)
REMARK    1  A    between atoms: N_3  and  C_7
REMARK    2  A    between atoms: C_4  and  C_20
REMARK    3  A    between atoms: C_8  and  N_15
REMARK    4  A    between atoms: C_20  and  N_22
REMARK    5  A    between atoms: C_23  and  C_27
REMARK                            x       y       z     vdW  Elec       q    Type
REMARK                         _______ _______ _______ _____ _____    ______ ____
ROOT
ATOM      1  O   UNL     1      32.873 -11.980 -24.798  0.00  0.00    -0.434 OA
ATOM      2  O   UNL     1      32.684 -14.141 -25.460  0.00  0.00    -0.226 OA
ATOM      3  N   UNL     1      33.565 -13.560 -23.342  0.00  0.00    -0.221 N 
ATOM      4  C   UNL     1      33.133 -11.297 -23.563  0.00  0.00    +0.210 C 
ATOM      5  C   UNL     1      33.905 -12.301 -22.734  0.00  0.00    +0.147 C 
ATOM      6  C   UNL     1      33.007 -13.336 -24.597  0.00  0.00    +0.409 C 
ENDROOT
BRANCH   3   7
ATOM      7  C   UNL     1      33.875 -14.815 -22.744  0.00  0.00    +0.057 C 
ATOM      8  C   UNL     1      34.481 -17.267 -21.575  0.00  0.00    +0.054 C 
ATOM      9  C   UNL     1      34.091 -15.935 -23.546  0.00  0.00    +0.016 C 
ATOM     10  C   UNL     1      33.963 -14.924 -21.356  0.00  0.00    +0.016 C 
ATOM     11  C   UNL     1      34.395 -17.164 -22.961  0.00  0.00    +0.016 C 
ATOM     12  C   UNL     1      34.266 -16.152 -20.770  0.00  0.00    +0.016 C 
BRANCH   8  15
ATOM     13  O   UNL     1      35.241 -21.139 -19.985  0.00  0.00    -0.343 OA
ATOM     14  O   UNL     1      37.134 -18.265 -20.939  0.00  0.00    -0.272 OA
ATOM     15  N   UNL     1      34.797 -18.539 -20.969  0.00  0.00    -0.254 N 
ATOM     16  C   UNL     1      33.727 -19.540 -20.867  0.00  0.00    +0.130 C 
ATOM     17  C   UNL     1      33.977 -20.537 -19.753  0.00  0.00    +0.165 C 
ATOM     18  C   UNL     1      36.117 -18.901 -20.653  0.00  0.00    +0.260 C 
ATOM     19  C   UNL     1      36.268 -20.185 -19.846  0.00  0.00    +0.228 C 
ENDBRANCH   8  15
ENDBRANCH   3   7
BRANCH   4  20
ATOM     20  C   UNL     1      31.806 -10.896 -22.935  0.00  0.00    +0.135 C 
BRANCH  20  22
ATOM     21  O   UNL     1      31.007  -9.784 -20.470  0.00  0.00    -0.270 OA
ATOM     22  N   UNL     1      31.787  -9.499 -22.613  0.00  0.00    -0.297 N 
ATOM     23  C   UNL     1      31.376  -9.019 -21.364  0.00  0.00    +0.252 C 
ATOM     24  H   UNL     1      32.073  -8.852 -23.297  0.00  0.00    +0.150 HD
BRANCH  23  27
ATOM     25 CL   UNL     1      31.053  -3.617 -22.202  0.00  0.00    -0.075 Cl
ATOM     26  S   UNL     1      30.964  -6.574 -22.461  0.00  0.00    -0.071 S 
ATOM     27  C   UNL     1      31.443  -7.564 -21.175  0.00  0.00    +0.084 C 
ATOM     28  C   UNL     1      31.850  -6.899 -20.072  0.00  0.00    +0.012 C 
ATOM     29  C   UNL     1      31.772  -5.490 -20.276  0.00  0.00    +0.019 C 
ATOM     30  C   UNL     1      31.305  -5.177 -21.534  0.00  0.00    +0.087 C 
ENDBRANCH  23  27
ENDBRANCH  20  22
ENDBRANCH   4  20
TORSDOF 5
ENDMDL
MODEL 4
REMARK VINA RESULT:     -11.3      4.567      9.723
REMARK  Name = 9875401
REMARK  5 active torsions:
REMARK  status: ('A' for Active; 'I' for Inactive)
REMARK    1  A    between atoms: N_3  and  C_7
REMARK    2  A    between atoms: C_4  and  C_20
REMARK    3  A    between atoms: C_8  and  N_15
REMARK    4  A    between atoms: C_20  and  N_22
REMARK    5  A    between atoms: C_23  and  C_27
REMARK                            x       y       z     vdW  Elec       q    Type
REMARK                         _______ _______ _______ _____ _____    ______ ____
ROOT
ATOM      1  O   UNL     1      35.569 -23.108 -15.607  0.00  0.00    -0.434 OA
ATOM      2  O   UNL     1      36.842 -21.449 -16.488  0.00  0.00    -0.226 OA
ATOM      3  N   UNL     1      34.774 -22.078 -17.452  0.00  0.00    -0.221 N 
ATOM      4  C   UNL     1      34.226 -23.580 -15.778  0.00  0.00    +0.210 C 
ATOM      5  C   UNL     1      33.853 -23.149 -17.181  0.00  0.00    +0.147 C 
ATOM      6  C   UNL     1      35.819 -22.119 -16.532  0.00  0.00    +0.409 C 
ENDROOT
BRANCH   3   7
ATOM      7  C   UNL     1      34.640 -21.209 -18.572  0.00  0.00    +0.057 C 
ATOM      8  C   UNL     1      34.377 -19.508 -20.760  0.00  0.00    +0.054 C 
ATOM      9  C   UNL     1      35.774 -20.654 -19.164  0.00  0.00    +0.016 C 
ATOM     10  C   UNL     1      33.374 -20.911 -19.076  0.00  0.00    +0.016 C 
ATOM     11  C   UNL     1      35.643 -19.802 -20.261  0.00  0.00    +0.016 C 
ATOM     12  C   UNL     1      33.242 -20.059 -20.172  0.00  0.00    +0.016 C 
BRANCH   8  15
ATOM     13  O   UNL     1      33.717 -17.023 -24.148  0.00  0.00    -0.343 OA
ATOM     14  O   UNL     1      34.897 -16.651 -20.799  0.00  0.00    -0.272 OA
ATOM     15  N   UNL     1      34.241 -18.628 -21.895  0.00  0.00    -0.254 N 
ATOM     16  C   UNL     1      33.559 -19.140 -23.091  0.00  0.00    +0.130 C 
ATOM     17  C   UNL     1      33.973 -18.404 -24.349  0.00  0.00    +0.165 C 
ATOM     18  C   UNL     1      34.573 -17.264 -21.818  0.00  0.00    +0.260 C 
ATOM     19  C   UNL     1      34.560 -16.512 -23.143  0.00  0.00    +0.228 C 
ENDBRANCH   8  15
ENDBRANCH   3   7
BRANCH   4  20
ATOM     20  C   UNL     1      33.344 -22.955 -14.706  0.00  0.00    +0.135 C 
BRANCH  20  22
ATOM     21  O   UNL     1      31.286 -24.669 -13.824  0.00  0.00    -0.270 OA
ATOM     22  N   UNL     1      31.974 -22.905 -15.125  0.00  0.00    -0.297 N 
ATOM     23  C   UNL     1      31.006 -23.792 -14.644  0.00  0.00    +0.252 C 
ATOM     24  H   UNL     1      31.705 -22.220 -15.779  0.00  0.00    +0.150 HD
BRANCH  23  27
ATOM     25 CL   UNL     1      26.129 -21.585 -15.796  0.00  0.00    -0.075 Cl
ATOM     26  S   UNL     1      28.890 -22.108 -14.837  0.00  0.00    -0.071 S 
ATOM     27  C   UNL     1      29.639 -23.594 -15.144  0.00  0.00    +0.084 C 
ATOM     28  C   UNL     1      28.884 -24.474 -15.838  0.00  0.00    +0.012 C 
ATOM     29  C   UNL     1      27.610 -23.912 -16.144  0.00  0.00    +0.019 C 
ATOM     30  C   UNL     1      27.481 -22.630 -15.657  0.00  0.00    +0.087 C 
ENDBRANCH  23  27
ENDBRANCH  20  22
ENDBRANCH   4  20
TORSDOF 5
ENDMDL
MODEL 5
REMARK VINA RESULT:     -11.2      6.396     13.279
REMARK  Name = 9875401
REMARK  5 active torsions:
REMARK  status: ('A' for Active; 'I' for Inactive)
REMARK    1  A    between atoms: N_3  and  C_7
REMARK    2  A    between atoms: C_4  and  C_20
REMARK    3  A    between atoms: C_8  and  N_15
REMARK    4  A    between atoms: C_20  and  N_22
REMARK    5  A    between atoms: C_23  and  C_27
REMARK                            x       y       z     vdW  Elec       q    Type
REMARK                         _______ _______ _______ _____ _____    ______ ____
ROOT
ATOM      1  O   UNL     1      32.936 -14.365 -24.503  0.00  0.00    -0.434 OA
ATOM      2  O   UNL     1      32.694 -12.404 -25.618  0.00  0.00    -0.226 OA
ATOM      3  N   UNL     1      32.492 -12.532 -23.263  0.00  0.00    -0.221 N 
ATOM      4  C   UNL     1      33.099 -14.762 -23.135  0.00  0.00    +0.210 C 
ATOM      5  C   UNL     1      32.473 -13.636 -22.340  0.00  0.00    +0.147 C 
ATOM      6  C   UNL     1      32.710 -13.008 -24.553  0.00  0.00    +0.409 C 
ENDROOT
BRANCH   3   7
ATOM      7  C   UNL     1      32.216 -11.192 -22.869  0.00  0.00    +0.057 C 
ATOM      8  C   UNL     1      31.678  -8.572 -22.099  0.00  0.00    +0.054 C 
ATOM      9  C   UNL     1      32.994 -10.145 -23.365  0.00  0.00    +0.016 C 
ATOM     10  C   UNL     1      31.169 -10.925 -21.988  0.00  0.00    +0.016 C 
ATOM     11  C   UNL     1      32.724  -8.833 -22.979  0.00  0.00    +0.016 C 
ATOM     12  C   UNL     1      30.899  -9.612 -21.602  0.00  0.00    +0.016 C 
BRANCH   8  15
ATOM     13  O   UNL     1      30.582  -4.611 -21.001  0.00  0.00    -0.343 OA
ATOM     14  O   UNL     1      32.427  -7.321 -19.587  0.00  0.00    -0.272 OA
ATOM     15  N   UNL     1      31.398  -7.213 -21.701  0.00  0.00    -0.254 N 
ATOM     16  C   UNL     1      30.451  -6.435 -22.511  0.00  0.00    +0.130 C 
ATOM     17  C   UNL     1      30.672  -4.942 -22.378  0.00  0.00    +0.165 C 
ATOM     18  C   UNL     1      31.856  -6.691 -20.479  0.00  0.00    +0.260 C 
ATOM     19  C   UNL     1      31.648  -5.193 -20.289  0.00  0.00    +0.228 C 
ENDBRANCH   8  15
ENDBRANCH   3   7
BRANCH   4  20
ATOM     20  C   UNL     1      34.584 -14.943 -22.849  0.00  0.00    +0.135 C 
BRANCH  20  22
ATOM     21  O   UNL     1      34.363 -17.643 -23.631  0.00  0.00    -0.270 OA
ATOM     22  N   UNL     1      34.814 -16.081 -22.008  0.00  0.00    -0.297 N 
ATOM     23  C   UNL     1      34.684 -17.396 -22.467  0.00  0.00    +0.252 C 
ATOM     24  H   UNL     1      35.073 -15.930 -21.070  0.00  0.00    +0.150 HD
BRANCH  23  27
ATOM     25 CL   UNL     1      34.213 -21.678 -19.087  0.00  0.00    -0.075 Cl
ATOM     26  S   UNL     1      33.731 -19.497 -21.044  0.00  0.00    -0.071 S 
ATOM     27  C   UNL     1      34.985 -18.455 -21.495  0.00  0.00    +0.084 C 
ATOM     28  C   UNL     1      36.171 -18.708 -20.899  0.00  0.00    +0.012 C 
ATOM     29  C   UNL     1      36.063 -19.820 -20.014  0.00  0.00    +0.019 C 
ATOM     30  C   UNL     1      34.789 -20.344 -19.998  0.00  0.00    +0.087 C 
ENDBRANCH  23  27
ENDBRANCH  20  22
ENDBRANCH   4  20
TORSDOF 5
ENDMDL
MODEL 6
REMARK VINA RESULT:     -11.2      4.677     11.229
REMARK  Name = 9875401
REMARK  5 active torsions:
REMARK  status: ('A' for Active; 'I' for Inactive)
REMARK    1  A    between atoms: N_3  and  C_7
REMARK    2  A    between atoms: C_4  and  C_20
REMARK    3  A    between atoms: C_8  and  N_15
REMARK    4  A    between atoms: C_20  and  N_22
REMARK    5  A    between atoms: C_23  and  C_27
REMARK                            x       y       z     vdW  Elec       q    Type
REMARK                         _______ _______ _______ _____ _____    ______ ____
ROOT
ATOM      1  O   UNL     1      36.046 -20.675 -19.749  0.00  0.00    -0.434 OA
ATOM      2  O   UNL     1      37.000 -18.620 -19.873  0.00  0.00    -0.226 OA
ATOM      3  N   UNL     1      34.958 -19.112 -20.962  0.00  0.00    -0.221 N 
ATOM      4  C   UNL     1      34.768 -21.240 -20.072  0.00  0.00    +0.210 C 
ATOM      5  C   UNL     1      34.216 -20.330 -21.149  0.00  0.00    +0.147 C 
ATOM      6  C   UNL     1      36.076 -19.364 -20.172  0.00  0.00    +0.409 C 
ENDROOT
BRANCH   3   7
ATOM      7  C   UNL     1      34.607 -17.889 -21.602  0.00  0.00    +0.057 C 
ATOM      8  C   UNL     1      33.922 -15.499 -22.853  0.00  0.00    +0.054 C 
ATOM      9  C   UNL     1      34.538 -16.709 -20.861  0.00  0.00    +0.016 C 
ATOM     10  C   UNL     1      34.334 -17.871 -22.969  0.00  0.00    +0.016 C 
ATOM     11  C   UNL     1      34.194 -15.512 -21.488  0.00  0.00    +0.016 C 
ATOM     12  C   UNL     1      33.991 -16.673 -23.597  0.00  0.00    +0.016 C 
BRANCH   8  15
ATOM     13  O   UNL     1      33.113 -11.729 -24.649  0.00  0.00    -0.343 OA
ATOM     14  O   UNL     1      33.208 -15.156 -25.648  0.00  0.00    -0.272 OA
ATOM     15  N   UNL     1      33.568 -14.259 -23.501  0.00  0.00    -0.254 N 
ATOM     16  C   UNL     1      33.806 -13.005 -22.774  0.00  0.00    +0.130 C 
ATOM     17  C   UNL     1      32.908 -11.883 -23.253  0.00  0.00    +0.165 C 
ATOM     18  C   UNL     1      33.185 -14.214 -24.852  0.00  0.00    +0.260 C 
ATOM     19  C   UNL     1      32.657 -12.868 -25.338  0.00  0.00    +0.228 C 
ENDBRANCH   8  15
ENDBRANCH   3   7
BRANCH   4  20
ATOM     20  C   UNL     1      33.911 -21.269 -18.814  0.00  0.00    +0.135 C 
BRANCH  20  22
ATOM     21  O   UNL     1      32.932 -22.816 -16.671  0.00  0.00    -0.270 OA
ATOM     22  N   UNL     1      34.671 -21.703 -17.679  0.00  0.00    -0.297 N 
ATOM     23  C   UNL     1      34.115 -22.471 -16.650  0.00  0.00    +0.252 C 
ATOM     24  H   UNL     1      35.621 -21.450 -17.621  0.00  0.00    +0.150 HD
BRANCH  23  27
ATOM     25 CL   UNL     1      36.398 -25.131 -12.443  0.00  0.00    -0.075 Cl
ATOM     26  S   UNL     1      34.630 -24.231 -14.653  0.00  0.00    -0.071 S 
ATOM     27  C   UNL     1      35.029 -22.866 -15.570  0.00  0.00    +0.084 C 
ATOM     28  C   UNL     1      36.181 -22.260 -15.208  0.00  0.00    +0.012 C 
ATOM     29  C   UNL     1      36.786 -22.942 -14.112  0.00  0.00    +0.019 C 
ATOM     30  C   UNL     1      36.046 -24.032 -13.711  0.00  0.00    +0.087 C 
ENDBRANCH  23  27
ENDBRANCH  20  22
ENDBRANCH   4  20
TORSDOF 5
ENDMDL
MODEL 7
REMARK VINA RESULT:     -10.8      4.438      9.514
REMARK  Name = 9875401
REMARK  5 active torsions:
REMARK  status: ('A' for Active; 'I' for Inactive)
REMARK    1  A    between atoms: N_3  and  C_7
REMARK    2  A    between atoms: C_4  and  C_20
REMARK    3  A    between atoms: C_8  and  N_15
REMARK    4  A    between atoms: C_20  and  N_22
REMARK    5  A    between atoms: C_23  and  C_27
REMARK                            x       y       z     vdW  Elec       q    Type
REMARK                         _______ _______ _______ _____ _____    ______ ____
ROOT
ATOM      1  O   UNL     1      35.905 -23.685 -14.081  0.00  0.00    -0.434 OA
ATOM      2  O   UNL     1      37.145 -21.978 -14.916  0.00  0.00    -0.226 OA
ATOM      3  N   UNL     1      35.230 -22.794 -16.042  0.00  0.00    -0.221 N 
ATOM      4  C   UNL     1      34.621 -24.260 -14.358  0.00  0.00    +0.210 C 
ATOM      5  C   UNL     1      34.360 -23.916 -15.809  0.00  0.00    +0.147 C 
ATOM      6  C   UNL     1      36.178 -22.721 -15.025  0.00  0.00    +0.409 C 
ENDROOT
BRANCH   3   7
ATOM      7  C   UNL     1      35.148 -21.984 -17.210  0.00  0.00    +0.057 C 
ATOM      8  C   UNL     1      34.989 -20.400 -19.494  0.00  0.00    +0.054 C 
ATOM      9  C   UNL     1      36.268 -21.276 -17.648  0.00  0.00    +0.016 C 
ATOM     10  C   UNL     1      33.949 -21.898 -17.918  0.00  0.00    +0.016 C 
ATOM     11  C   UNL     1      36.189 -20.483 -18.792  0.00  0.00    +0.016 C 
ATOM     12  C   UNL     1      33.869 -21.104 -19.062  0.00  0.00    +0.016 C 
BRANCH   8  15
ATOM     13  O   UNL     1      34.477 -17.923 -22.915  0.00  0.00    -0.343 OA
ATOM     14  O   UNL     1      36.875 -18.344 -20.303  0.00  0.00    -0.272 OA
ATOM     15  N   UNL     1      34.907 -19.579 -20.679  0.00  0.00    -0.254 N 
ATOM     16  C   UNL     1      33.654 -19.593 -21.444  0.00  0.00    +0.130 C 
ATOM     17  C   UNL     1      33.861 -19.202 -22.894  0.00  0.00    +0.165 C 
ATOM     18  C   UNL     1      35.908 -18.648 -21.004  0.00  0.00    +0.260 C 
ATOM     19  C   UNL     1      35.776 -17.999 -22.377  0.00  0.00    +0.228 C 
ENDBRANCH   8  15
ENDBRANCH   3   7
BRANCH   4  20
ATOM     20  C   UNL     1      33.597 -23.656 -13.406  0.00  0.00    +0.135 C 
BRANCH  20  22
ATOM     21  O   UNL     1      31.249 -25.020 -12.649  0.00  0.00    -0.270 OA
ATOM     22  N   UNL     1      32.315 -23.531 -14.035  0.00  0.00    -0.297 N 
ATOM     23  C   UNL     1      31.191 -24.243 -13.603  0.00  0.00    +0.252 C 
ATOM     24  H   UNL     1      32.223 -22.921 -14.803  0.00  0.00    +0.150 HD
BRANCH  23  27
ATOM     25 CL   UNL     1      27.118 -21.738 -16.273  0.00  0.00    -0.075 Cl
ATOM     26  S   UNL     1      29.612 -22.391 -14.798  0.00  0.00    -0.071 S 
ATOM     27  C   UNL     1      29.941 -23.983 -14.329  0.00  0.00    +0.084 C 
ATOM     28  C   UNL     1      28.995 -24.882 -14.680  0.00  0.00    +0.012 C 
ATOM     29  C   UNL     1      27.927 -24.242 -15.375  0.00  0.00    +0.019 C 
ATOM     30  C   UNL     1      28.136 -22.887 -15.508  0.00  0.00    +0.087 C 
ENDBRANCH  23  27
ENDBRANCH  20  22
ENDBRANCH   4  20
TORSDOF 5
ENDMDL
MODEL 8
REMARK VINA RESULT:     -10.5      4.541     11.184
REMARK  Name = 9875401
REMARK  5 active torsions:
REMARK  status: ('A' for Active; 'I' for Inactive)
REMARK    1  A    between atoms: N_3  and  C_7
REMARK    2  A    between atoms: C_4  and  C_20
REMARK    3  A    between atoms: C_8  and  N_15
REMARK    4  A    between atoms: C_20  and  N_22
REMARK    5  A    between atoms: C_23  and  C_27
REMARK                            x       y       z     vdW  Elec       q    Type
REMARK                         _______ _______ _______ _____ _____    ______ ____
ROOT
ATOM      1  O   UNL     1      35.683 -19.527 -21.213  0.00  0.00    -0.434 OA
ATOM      2  O   UNL     1      36.577 -17.526 -20.626  0.00  0.00    -0.226 OA
ATOM      3  N   UNL     1      34.548 -17.677 -21.835  0.00  0.00    -0.221 N 
ATOM      4  C   UNL     1      34.422 -19.986 -21.719  0.00  0.00    +0.210 C 
ATOM      5  C   UNL     1      33.842 -18.781 -22.429  0.00  0.00    +0.147 C 
ATOM      6  C   UNL     1      35.675 -18.150 -21.168  0.00  0.00    +0.409 C 
ENDROOT
BRANCH   3   7
ATOM      7  C   UNL     1      34.161 -16.321 -22.027  0.00  0.00    +0.057 C 
ATOM      8  C   UNL     1      33.404 -13.668 -22.401  0.00  0.00    +0.054 C 
ATOM      9  C   UNL     1      34.065 -15.461 -20.932  0.00  0.00    +0.016 C 
ATOM     10  C   UNL     1      33.877 -15.850 -23.308  0.00  0.00    +0.016 C 
ATOM     11  C   UNL     1      33.686 -14.133 -21.119  0.00  0.00    +0.016 C 
ATOM     12  C   UNL     1      33.498 -14.521 -23.497  0.00  0.00    +0.016 C 
BRANCH   8  15
ATOM     13  O   UNL     1      32.255  -9.662 -23.254  0.00  0.00    -0.343 OA
ATOM     14  O   UNL     1      31.209 -12.297 -21.083  0.00  0.00    -0.272 OA
ATOM     15  N   UNL     1      33.012 -12.292 -22.595  0.00  0.00    -0.254 N 
ATOM     16  C   UNL     1      33.603 -11.557 -23.721  0.00  0.00    +0.130 C 
ATOM     17  C   UNL     1      33.596 -10.059 -23.496  0.00  0.00    +0.165 C 
ATOM     18  C   UNL     1      31.964 -11.711 -21.862  0.00  0.00    +0.260 C 
ATOM     19  C   UNL     1      31.798 -10.206 -22.039  0.00  0.00    +0.228 C 
ENDBRANCH   8  15
ENDBRANCH   3   7
BRANCH   4  20
ATOM     20  C   UNL     1      33.568 -20.462 -20.552  0.00  0.00    +0.135 C 
BRANCH  20  22
ATOM     21  O   UNL     1      33.471 -22.699 -18.839  0.00  0.00    -0.270 OA
ATOM     22  N   UNL     1      34.361 -20.650 -19.373  0.00  0.00    -0.297 N 
ATOM     23  C   UNL     1      34.257 -21.790 -18.568  0.00  0.00    +0.252 C 
ATOM     24  H   UNL     1      35.003 -19.948 -19.118  0.00  0.00    +0.150 HD
BRANCH  23  27
ATOM     25 CL   UNL     1      36.325 -22.791 -13.597  0.00  0.00    -0.075 Cl
ATOM     26  S   UNL     1      34.595 -22.602 -16.004  0.00  0.00    -0.071 S 
ATOM     27  C   UNL     1      35.160 -21.851 -17.411  0.00  0.00    +0.084 C 
ATOM     28  C   UNL     1      36.420 -21.371 -17.327  0.00  0.00    +0.012 C 
ATOM     29  C   UNL     1      36.970 -21.623 -16.037  0.00  0.00    +0.019 C 
ATOM     30  C   UNL     1      36.083 -22.287 -15.218  0.00  0.00    +0.087 C 
ENDBRANCH  23  27
ENDBRANCH  20  22
ENDBRANCH   4  20
TORSDOF 5
ENDMDL
MODEL 9
REMARK VINA RESULT:     -10.2      1.941      2.531
REMARK  Name = 9875401
REMARK  5 active torsions:
REMARK  status: ('A' for Active; 'I' for Inactive)
REMARK    1  A    between atoms: N_3  and  C_7
REMARK    2  A    between atoms: C_4  and  C_20
REMARK    3  A    between atoms: C_8  and  N_15
REMARK    4  A    between atoms: C_20  and  N_22
REMARK    5  A    between atoms: C_23  and  C_27
REMARK                            x       y       z     vdW  Elec       q    Type
REMARK                         _______ _______ _______ _____ _____    ______ ____
ROOT
ATOM      1  O   UNL     1      33.696 -18.970 -21.832  0.00  0.00    -0.434 OA
ATOM      2  O   UNL     1      32.454 -19.369 -19.976  0.00  0.00    -0.226 OA
ATOM      3  N   UNL     1      34.655 -20.206 -20.205  0.00  0.00    -0.221 N 
ATOM      4  C   UNL     1      35.074 -19.115 -22.203  0.00  0.00    +0.210 C 
ATOM      5  C   UNL     1      35.593 -20.211 -21.296  0.00  0.00    +0.147 C 
ATOM      6  C   UNL     1      33.509 -19.510 -20.579  0.00  0.00    +0.409 C 
ENDROOT
BRANCH   3   7
ATOM      7  C   UNL     1      34.880 -20.917 -18.991  0.00  0.00    +0.057 C 
ATOM      8  C   UNL     1      35.319 -22.305 -16.618  0.00  0.00    +0.054 C 
ATOM      9  C   UNL     1      33.872 -21.717 -18.455  0.00  0.00    +0.016 C 
ATOM     10  C   UNL     1      36.108 -20.812 -18.338  0.00  0.00    +0.016 C 
ATOM     11  C   UNL     1      34.091 -22.413 -17.266  0.00  0.00    +0.016 C 
ATOM     12  C   UNL     1      36.328 -21.507 -17.150  0.00  0.00    +0.016 C 
BRANCH   8  15
ATOM     13  O   UNL     1      35.821 -24.636 -13.096  0.00  0.00    -0.343 OA
ATOM     14  O   UNL     1      37.892 -22.831 -15.377  0.00  0.00    -0.272 OA
ATOM     15  N   UNL     1      35.546 -23.025 -15.389  0.00  0.00    -0.254 N 
ATOM     16  C   UNL     1      34.424 -23.774 -14.808  0.00  0.00    +0.130 C 
ATOM     17  C   UNL     1      34.581 -23.981 -13.316  0.00  0.00    +0.165 C 
ATOM     18  C   UNL     1      36.834 -23.176 -14.847  0.00  0.00    +0.260 C 
ATOM     19  C   UNL     1      36.889 -23.791 -13.453  0.00  0.00    +0.228 C 
ENDBRANCH   8  15
ENDBRANCH   3   7
BRANCH   4  20
ATOM     20  C   UNL     1      35.781 -17.783 -21.999  0.00  0.00    +0.135 C 
BRANCH  20  22
ATOM     21  O   UNL     1      35.134 -15.366 -23.298  0.00  0.00    -0.270 OA
ATOM     22  N   UNL     1      34.875 -16.785 -21.510  0.00  0.00    -0.297 N 
ATOM     23  C   UNL     1      34.603 -15.606 -22.212  0.00  0.00    +0.252 C 
ATOM     24  H   UNL     1      34.428 -16.935 -20.645  0.00  0.00    +0.150 HD
BRANCH  23  27
ATOM     25 CL   UNL     1      31.052 -11.516 -21.408  0.00  0.00    -0.075 Cl
ATOM     26  S   UNL     1      33.028 -13.423 -22.537  0.00  0.00    -0.071 S 
ATOM     27  C   UNL     1      33.627 -14.696 -21.597  0.00  0.00    +0.084 C 
ATOM     28  C   UNL     1      33.135 -14.750 -20.340  0.00  0.00    +0.012 C 
ATOM     29  C   UNL     1      32.209 -13.689 -20.117  0.00  0.00    +0.019 C 
ATOM     30  C   UNL     1      32.058 -12.892 -21.231  0.00  0.00    +0.087 C 
ENDBRANCH  23  27
ENDBRANCH  20  22
ENDBRANCH   4  20
TORSDOF 5
ENDMDL
