MODEL 1
REMARK VINA RESULT:     -11.5      0.000      0.000
REMARK  Name = 25138203
REMARK  4 active torsions:
REMARK  status: ('A' for Active; 'I' for Inactive)
REMARK    1  A    between atoms: N_1  and  C_11
REMARK    2  A    between atoms: C_5  and  C_22
REMARK    3  A    between atoms: C_9  and  N_16
REMARK    4  A    between atoms: N_16  and  S_18
REMARK                            x       y       z     vdW  Elec       q    Type
REMARK                         _______ _______ _______ _____ _____    ______ ____
ROOT
ATOM      1  N   UNL     1      32.597 -11.290 -23.875  0.00  0.00    -0.301 N 
ATOM      2  N   UNL     1      32.715 -12.852 -25.667  0.00  0.00    -0.234 NA
ATOM      3  N   UNL     1      33.428 -15.115 -25.242  0.00  0.00    -0.248 NA
ATOM      4  C   UNL     1      32.877 -12.593 -24.354  0.00  0.00    +0.112 C 
ATOM      5  C   UNL     1      33.568 -14.785 -23.941  0.00  0.00    +0.063 C 
ATOM      6  C   UNL     1      33.305 -13.529 -23.434  0.00  0.00    +0.106 C 
ATOM      7  C   UNL     1      33.003 -14.115 -26.037  0.00  0.00    +0.251 C 
ATOM      8  H   UNL     1      32.753 -10.580 -24.540  0.00  0.00    +0.153 HD
ENDROOT
BRANCH   1  11
ATOM      9  C   UNL     1      31.387  -8.988 -21.244  0.00  0.00    +0.062 C 
ATOM     10  C   UNL     1      31.232  -9.869 -20.173  0.00  0.00    -0.007 C 
ATOM     11  C   UNL     1      32.139 -10.813 -22.636  0.00  0.00    +0.050 C 
ATOM     12  C   UNL     1      31.840  -9.461 -22.475  0.00  0.00    +0.030 C 
ATOM     13  C   UNL     1      31.531 -11.222 -20.334  0.00  0.00    -0.002 C 
ATOM     14  C   UNL     1      31.985 -11.694 -21.565  0.00  0.00    +0.014 C 
ATOM     15  C   UNL     1      30.746  -9.389 -18.844  0.00  0.00    +0.032 C 
BRANCH   9  16
ATOM     16  N   UNL     1      31.086  -7.597 -21.098  0.00  0.00    -0.219 N 
ATOM     17  H   UNL     1      30.162  -7.268 -21.184  0.00  0.00    +0.173 HD
BRANCH  16  18
ATOM     18  S   UNL     1      32.384  -6.517 -20.767  0.00  0.00    +0.056 S 
ATOM     19  O   UNL     1      32.684  -6.583 -19.349  0.00  0.00    -0.154 OA
ATOM     20  O   UNL     1      33.439  -6.656 -21.752  0.00  0.00    -0.154 OA
ATOM     21  C   UNL     1      31.575  -4.957 -21.050  0.00  0.00    +0.200 C 
ENDBRANCH  16  18
ENDBRANCH   9  16
ENDBRANCH   1  11
BRANCH   5  22
ATOM     22  C   UNL     1      34.023 -15.857 -23.083  0.00  0.00    +0.014 C 
ATOM     23  C   UNL     1      34.178 -17.144 -23.598  0.00  0.00    +0.001 C 
ATOM     24  C   UNL     1      34.309 -15.605 -21.740  0.00  0.00    +0.001 C 
ATOM     25  C   UNL     1      34.618 -18.179 -22.772  0.00  0.00    +0.000 C 
ATOM     26  C   UNL     1      34.749 -16.639 -20.914  0.00  0.00    +0.000 C 
ATOM     27  C   UNL     1      34.904 -17.926 -21.429  0.00  0.00    +0.000 C 
ENDBRANCH   5  22
TORSDOF 4
ENDMDL
MODEL 2
REMARK VINA RESULT:     -10.8      8.188     11.467
REMARK  Name = 25138203
REMARK  4 active torsions:
REMARK  status: ('A' for Active; 'I' for Inactive)
REMARK    1  A    between atoms: N_1  and  C_11
REMARK    2  A    between atoms: C_5  and  C_22
REMARK    3  A    between atoms: C_9  and  N_16
REMARK    4  A    between atoms: N_16  and  S_18
REMARK                            x       y       z     vdW  Elec       q    Type
REMARK                         _______ _______ _______ _____ _____    ______ ____
ROOT
ATOM      1  N   UNL     1      32.532 -21.680 -19.021  0.00  0.00    -0.301 N 
ATOM      2  N   UNL     1      31.034 -22.358 -17.299  0.00  0.00    -0.234 NA
ATOM      3  N   UNL     1      31.902 -23.123 -15.185  0.00  0.00    -0.248 NA
ATOM      4  C   UNL     1      32.304 -22.172 -17.712  0.00  0.00    +0.112 C 
ATOM      5  C   UNL     1      33.146 -22.914 -15.664  0.00  0.00    +0.063 C 
ATOM      6  C   UNL     1      33.411 -22.435 -16.931  0.00  0.00    +0.106 C 
ATOM      7  C   UNL     1      30.907 -22.828 -16.043  0.00  0.00    +0.251 C 
ATOM      8  H   UNL     1      31.836 -21.937 -19.669  0.00  0.00    +0.153 HD
ENDROOT
BRANCH   1  11
ATOM      9  C   UNL     1      34.270 -19.093 -21.013  0.00  0.00    +0.062 C 
ATOM     10  C   UNL     1      35.599 -19.343 -20.671  0.00  0.00    -0.007 C 
ATOM     11  C   UNL     1      33.559 -20.897 -19.573  0.00  0.00    +0.050 C 
ATOM     12  C   UNL     1      33.250 -19.870 -20.465  0.00  0.00    +0.030 C 
ATOM     13  C   UNL     1      35.907 -20.370 -19.778  0.00  0.00    -0.002 C 
ATOM     14  C   UNL     1      34.888 -21.147 -19.230  0.00  0.00    +0.014 C 
ATOM     15  C   UNL     1      36.710 -18.524 -21.242  0.00  0.00    +0.032 C 
BRANCH   9  16
ATOM     16  N   UNL     1      33.933 -18.044 -21.927  0.00  0.00    -0.219 N 
ATOM     17  H   UNL     1      33.818 -17.118 -21.614  0.00  0.00    +0.173 HD
BRANCH  16  18
ATOM     18  S   UNL     1      33.736 -18.448 -23.588  0.00  0.00    +0.056 S 
ATOM     19  O   UNL     1      34.789 -19.372 -23.962  0.00  0.00    -0.154 OA
ATOM     20  O   UNL     1      32.349 -18.749 -23.888  0.00  0.00    -0.154 OA
ATOM     21  C   UNL     1      34.129 -16.884 -24.341  0.00  0.00    +0.200 C 
ENDBRANCH  16  18
ENDBRANCH   9  16
ENDBRANCH   1  11
BRANCH   5  22
ATOM     22  C   UNL     1      34.218 -23.230 -14.745  0.00  0.00    +0.014 C 
ATOM     23  C   UNL     1      35.541 -22.970 -15.101  0.00  0.00    +0.001 C 
ATOM     24  C   UNL     1      33.929 -23.793 -13.501  0.00  0.00    +0.001 C 
ATOM     25  C   UNL     1      36.576 -23.274 -14.215  0.00  0.00    +0.000 C 
ATOM     26  C   UNL     1      34.962 -24.097 -12.615  0.00  0.00    +0.000 C 
ATOM     27  C   UNL     1      36.286 -23.837 -12.971  0.00  0.00    +0.000 C 
ENDBRANCH   5  22
TORSDOF 4
ENDMDL
MODEL 3
REMARK VINA RESULT:     -10.8      1.785      2.684
REMARK  Name = 25138203
REMARK  4 active torsions:
REMARK  status: ('A' for Active; 'I' for Inactive)
REMARK    1  A    between atoms: N_1  and  C_11
REMARK    2  A    between atoms: C_5  and  C_22
REMARK    3  A    between atoms: C_9  and  N_16
REMARK    4  A    between atoms: N_16  and  S_18
REMARK                            x       y       z     vdW  Elec       q    Type
REMARK                         _______ _______ _______ _____ _____    ______ ____
ROOT
ATOM      1  N   UNL     1      33.028 -14.022 -23.962  0.00  0.00    -0.301 N 
ATOM      2  N   UNL     1      33.050 -16.027 -25.245  0.00  0.00    -0.234 NA
ATOM      3  N   UNL     1      33.912 -18.060 -24.280  0.00  0.00    -0.248 NA
ATOM      4  C   UNL     1      33.326 -15.401 -24.083  0.00  0.00    +0.112 C 
ATOM      5  C   UNL     1      34.161 -17.371 -23.146  0.00  0.00    +0.063 C 
ATOM      6  C   UNL     1      33.886 -16.028 -22.988  0.00  0.00    +0.106 C 
ATOM      7  C   UNL     1      33.364 -17.337 -25.274  0.00  0.00    +0.251 C 
ATOM      8  H   UNL     1      33.084 -13.528 -24.812  0.00  0.00    +0.153 HD
ENDROOT
BRANCH   1  11
ATOM      9  C   UNL     1      31.669 -11.208 -21.981  0.00  0.00    +0.062 C 
ATOM     10  C   UNL     1      31.959 -11.633 -20.685  0.00  0.00    -0.007 C 
ATOM     11  C   UNL     1      32.670 -13.222 -22.865  0.00  0.00    +0.050 C 
ATOM     12  C   UNL     1      32.024 -12.003 -23.072  0.00  0.00    +0.030 C 
ATOM     13  C   UNL     1      32.604 -12.853 -20.478  0.00  0.00    -0.002 C 
ATOM     14  C   UNL     1      32.960 -13.646 -21.568  0.00  0.00    +0.014 C 
ATOM     15  C   UNL     1      31.588 -10.802 -19.500  0.00  0.00    +0.032 C 
BRANCH   9  16
ATOM     16  N   UNL     1      31.008  -9.961 -22.213  0.00  0.00    -0.219 N 
ATOM     17  H   UNL     1      30.027  -9.911 -22.267  0.00  0.00    +0.173 HD
BRANCH  16  18
ATOM     18  S   UNL     1      31.978  -8.551 -22.395  0.00  0.00    +0.056 S 
ATOM     19  O   UNL     1      32.059  -7.882 -21.110  0.00  0.00    -0.154 OA
ATOM     20  O   UNL     1      33.180  -8.841 -23.152  0.00  0.00    -0.154 OA
ATOM     21  C   UNL     1      30.911  -7.566 -23.423  0.00  0.00    +0.200 C 
ENDBRANCH  16  18
ENDBRANCH   9  16
ENDBRANCH   1  11
BRANCH   5  22
ATOM     22  C   UNL     1      34.750 -18.145 -22.075  0.00  0.00    +0.014 C 
ATOM     23  C   UNL     1      34.008 -19.147 -21.449  0.00  0.00    +0.001 C 
ATOM     24  C   UNL     1      36.061 -17.892 -21.668  0.00  0.00    +0.001 C 
ATOM     25  C   UNL     1      34.575 -19.894 -20.416  0.00  0.00    +0.000 C 
ATOM     26  C   UNL     1      36.627 -18.639 -20.636  0.00  0.00    +0.000 C 
ATOM     27  C   UNL     1      35.885 -19.640 -20.010  0.00  0.00    +0.000 C 
ENDBRANCH   5  22
TORSDOF 4
ENDMDL
MODEL 4
REMARK VINA RESULT:     -10.1     10.214     13.649
REMARK  Name = 25138203
REMARK  4 active torsions:
REMARK  status: ('A' for Active; 'I' for Inactive)
REMARK    1  A    between atoms: N_1  and  C_11
REMARK    2  A    between atoms: C_5  and  C_22
REMARK    3  A    between atoms: C_9  and  N_16
REMARK    4  A    between atoms: N_16  and  S_18
REMARK                            x       y       z     vdW  Elec       q    Type
REMARK                         _______ _______ _______ _____ _____    ______ ____
ROOT
ATOM      1  N   UNL     1      33.981 -22.368 -16.412  0.00  0.00    -0.301 N 
ATOM      2  N   UNL     1      32.219 -22.153 -17.998  0.00  0.00    -0.234 NA
ATOM      3  N   UNL     1      32.564 -20.869 -20.008  0.00  0.00    -0.248 NA
ATOM      4  C   UNL     1      33.486 -21.862 -17.638  0.00  0.00    +0.112 C 
ATOM      5  C   UNL     1      33.821 -20.617 -19.586  0.00  0.00    +0.063 C 
ATOM      6  C   UNL     1      34.341 -21.091 -18.399  0.00  0.00    +0.106 C 
ATOM      7  C   UNL     1      31.829 -21.632 -19.178  0.00  0.00    +0.251 C 
ATOM      8  H   UNL     1      33.288 -22.486 -15.722  0.00  0.00    +0.153 HD
ENDROOT
BRANCH   1  11
ATOM      9  C   UNL     1      36.715 -24.153 -14.673  0.00  0.00    +0.062 C 
ATOM     10  C   UNL     1      37.828 -23.459 -15.148  0.00  0.00    -0.007 C 
ATOM     11  C   UNL     1      35.269 -22.734 -15.989  0.00  0.00    +0.050 C 
ATOM     12  C   UNL     1      35.436 -23.791 -15.094  0.00  0.00    +0.030 C 
ATOM     13  C   UNL     1      37.661 -22.402 -16.044  0.00  0.00    -0.002 C 
ATOM     14  C   UNL     1      36.382 -22.039 -16.463  0.00  0.00    +0.014 C 
ATOM     15  C   UNL     1      39.210 -23.828 -14.715  0.00  0.00    +0.032 C 
BRANCH   9  16
ATOM     16  N   UNL     1      36.866 -25.239 -13.754  0.00  0.00    -0.219 N 
ATOM     17  H   UNL     1      37.225 -26.106 -14.051  0.00  0.00    +0.173 HD
BRANCH  16  18
ATOM     18  S   UNL     1      36.402 -24.986 -12.116  0.00  0.00    +0.056 S 
ATOM     19  O   UNL     1      35.077 -24.397 -12.102  0.00  0.00    -0.154 OA
ATOM     20  O   UNL     1      36.700 -26.151 -11.306  0.00  0.00    -0.154 OA
ATOM     21  C   UNL     1      37.544 -23.699 -11.661  0.00  0.00    +0.200 C 
ENDBRANCH  16  18
ENDBRANCH   9  16
ENDBRANCH   1  11
BRANCH   5  22
ATOM     22  C   UNL     1      34.614 -19.797 -20.476  0.00  0.00    +0.014 C 
ATOM     23  C   UNL     1      34.064 -19.332 -21.671  0.00  0.00    +0.001 C 
ATOM     24  C   UNL     1      35.928 -19.468 -20.139  0.00  0.00    +0.001 C 
ATOM     25  C   UNL     1      34.828 -18.541 -22.530  0.00  0.00    +0.000 C 
ATOM     26  C   UNL     1      36.691 -18.677 -20.997  0.00  0.00    +0.000 C 
ATOM     27  C   UNL     1      36.141 -18.213 -22.192  0.00  0.00    +0.000 C 
ENDBRANCH   5  22
TORSDOF 4
ENDMDL
MODEL 5
REMARK VINA RESULT:     -10.1     11.789     15.135
REMARK  Name = 25138203
REMARK  4 active torsions:
REMARK  status: ('A' for Active; 'I' for Inactive)
REMARK    1  A    between atoms: N_1  and  C_11
REMARK    2  A    between atoms: C_5  and  C_22
REMARK    3  A    between atoms: C_9  and  N_16
REMARK    4  A    between atoms: N_16  and  S_18
REMARK                            x       y       z     vdW  Elec       q    Type
REMARK                         _______ _______ _______ _____ _____    ______ ____
ROOT
ATOM      1  N   UNL     1      32.767 -23.286 -13.318  0.00  0.00    -0.301 N 
ATOM      2  N   UNL     1      30.881 -23.647 -14.726  0.00  0.00    -0.234 NA
ATOM      3  N   UNL     1      30.929 -22.890 -17.013  0.00  0.00    -0.248 NA
ATOM      4  C   UNL     1      32.129 -23.157 -14.576  0.00  0.00    +0.112 C 
ATOM      5  C   UNL     1      32.176 -22.424 -16.793  0.00  0.00    +0.063 C 
ATOM      6  C   UNL     1      32.833 -22.530 -15.584  0.00  0.00    +0.106 C 
ATOM      7  C   UNL     1      30.349 -23.482 -15.952  0.00  0.00    +0.251 C 
ATOM      8  H   UNL     1      32.144 -23.288 -12.555  0.00  0.00    +0.153 HD
ENDROOT
BRANCH   1  11
ATOM      9  C   UNL     1      36.391 -24.006 -13.502  0.00  0.00    +0.062 C 
ATOM     10  C   UNL     1      36.795 -23.660 -12.212  0.00  0.00    -0.007 C 
ATOM     11  C   UNL     1      34.116 -23.411 -12.949  0.00  0.00    +0.050 C 
ATOM     12  C   UNL     1      35.052 -23.881 -13.870  0.00  0.00    +0.030 C 
ATOM     13  C   UNL     1      35.859 -23.189 -11.291  0.00  0.00    -0.002 C 
ATOM     14  C   UNL     1      34.520 -23.065 -11.659  0.00  0.00    +0.014 C 
ATOM     15  C   UNL     1      38.224 -23.782 -11.793  0.00  0.00    +0.032 C 
BRANCH   9  16
ATOM     16  N   UNL     1      37.336 -24.490 -14.461  0.00  0.00    -0.219 N 
ATOM     17  H   UNL     1      37.855 -23.868 -15.019  0.00  0.00    +0.173 HD
BRANCH  16  18
ATOM     18  S   UNL     1      37.538 -26.193 -14.611  0.00  0.00    +0.056 S 
ATOM     19  O   UNL     1      36.755 -26.648 -15.744  0.00  0.00    -0.154 OA
ATOM     20  O   UNL     1      38.934 -26.564 -14.482  0.00  0.00    -0.154 OA
ATOM     21  C   UNL     1      36.691 -26.741 -13.145  0.00  0.00    +0.200 C 
ENDBRANCH  16  18
ENDBRANCH   9  16
ENDBRANCH   1  11
BRANCH   5  22
ATOM     22  C   UNL     1      32.803 -21.788 -17.931  0.00  0.00    +0.014 C 
ATOM     23  C   UNL     1      32.034 -21.035 -18.819  0.00  0.00    +0.001 C 
ATOM     24  C   UNL     1      34.175 -21.925 -18.142  0.00  0.00    +0.001 C 
ATOM     25  C   UNL     1      32.637 -20.420 -19.918  0.00  0.00    +0.000 C 
ATOM     26  C   UNL     1      34.778 -21.311 -19.239  0.00  0.00    +0.000 C 
ATOM     27  C   UNL     1      34.010 -20.558 -20.127  0.00  0.00    +0.000 C 
ENDBRANCH   5  22
TORSDOF 4
ENDMDL
MODEL 6
REMARK VINA RESULT:     -10.0     12.275     15.339
REMARK  Name = 25138203
REMARK  4 active torsions:
REMARK  status: ('A' for Active; 'I' for Inactive)
REMARK    1  A    between atoms: N_1  and  C_11
REMARK    2  A    between atoms: C_5  and  C_22
REMARK    3  A    between atoms: C_9  and  N_16
REMARK    4  A    between atoms: N_16  and  S_18
REMARK                            x       y       z     vdW  Elec       q    Type
REMARK                         _______ _______ _______ _____ _____    ______ ____
ROOT
ATOM      1  N   UNL     1      35.324 -22.937 -16.443  0.00  0.00    -0.301 N 
ATOM      2  N   UNL     1      33.895 -21.814 -17.981  0.00  0.00    -0.234 NA
ATOM      3  N   UNL     1      31.504 -21.938 -17.708  0.00  0.00    -0.248 NA
ATOM      4  C   UNL     1      34.024 -22.589 -16.885  0.00  0.00    +0.112 C 
ATOM      5  C   UNL     1      31.707 -22.710 -16.619  0.00  0.00    +0.063 C 
ATOM      6  C   UNL     1      32.955 -23.071 -16.156  0.00  0.00    +0.106 C 
ATOM      7  C   UNL     1      32.626 -21.531 -18.331  0.00  0.00    +0.251 C 
ATOM      8  H   UNL     1      35.987 -22.996 -17.169  0.00  0.00    +0.153 HD
ENDROOT
BRANCH   1  11
ATOM      9  C   UNL     1      37.340 -24.482 -13.754  0.00  0.00    +0.062 C 
ATOM     10  C   UNL     1      36.893 -23.766 -12.643  0.00  0.00    -0.007 C 
ATOM     11  C   UNL     1      35.850 -23.215 -15.171  0.00  0.00    +0.050 C 
ATOM     12  C   UNL     1      36.819 -24.206 -15.018  0.00  0.00    +0.030 C 
ATOM     13  C   UNL     1      35.924 -22.773 -12.797  0.00  0.00    -0.002 C 
ATOM     14  C   UNL     1      35.402 -22.499 -14.060  0.00  0.00    +0.014 C 
ATOM     15  C   UNL     1      37.436 -24.040 -11.279  0.00  0.00    +0.032 C 
BRANCH   9  16
ATOM     16  N   UNL     1      38.333 -25.503 -13.616  0.00  0.00    -0.219 N 
ATOM     17  H   UNL     1      38.141 -26.331 -13.119  0.00  0.00    +0.173 HD
BRANCH  16  18
ATOM     18  S   UNL     1      39.871 -25.242 -14.342  0.00  0.00    +0.056 S 
ATOM     19  O   UNL     1      39.768 -25.555 -15.755  0.00  0.00    -0.154 OA
ATOM     20  O   UNL     1      40.445 -23.985 -13.905  0.00  0.00    -0.154 OA
ATOM     21  C   UNL     1      40.802 -26.559 -13.589  0.00  0.00    +0.200 C 
ENDBRANCH  16  18
ENDBRANCH   9  16
ENDBRANCH   1  11
BRANCH   5  22
ATOM     22  C   UNL     1      30.503 -23.149 -15.947  0.00  0.00    +0.014 C 
ATOM     23  C   UNL     1      30.567 -24.175 -15.005  0.00  0.00    +0.001 C 
ATOM     24  C   UNL     1      29.279 -22.546 -16.239  0.00  0.00    +0.001 C 
ATOM     25  C   UNL     1      29.407 -24.600 -14.355  0.00  0.00    +0.000 C 
ATOM     26  C   UNL     1      28.120 -22.971 -15.591  0.00  0.00    +0.000 C 
ATOM     27  C   UNL     1      28.183 -23.997 -14.648  0.00  0.00    +0.000 C 
ENDBRANCH   5  22
TORSDOF 4
ENDMDL
MODEL 7
REMARK VINA RESULT:      -9.9      8.283     11.608
REMARK  Name = 25138203
REMARK  4 active torsions:
REMARK  status: ('A' for Active; 'I' for Inactive)
REMARK    1  A    between atoms: N_1  and  C_11
REMARK    2  A    between atoms: C_5  and  C_22
REMARK    3  A    between atoms: C_9  and  N_16
REMARK    4  A    between atoms: N_16  and  S_18
REMARK                            x       y       z     vdW  Elec       q    Type
REMARK                         _______ _______ _______ _____ _____    ______ ____
ROOT
ATOM      1  N   UNL     1      32.145 -21.781 -18.537  0.00  0.00    -0.301 N 
ATOM      2  N   UNL     1      30.637 -22.229 -16.750  0.00  0.00    -0.234 NA
ATOM      3  N   UNL     1      31.463 -23.168 -14.690  0.00  0.00    -0.248 NA
ATOM      4  C   UNL     1      31.899 -22.252 -17.224  0.00  0.00    +0.112 C 
ATOM      5  C   UNL     1      32.701 -23.162 -15.228  0.00  0.00    +0.063 C 
ATOM      6  C   UNL     1      32.982 -22.711 -16.501  0.00  0.00    +0.106 C 
ATOM      7  C   UNL     1      30.493 -22.694 -15.494  0.00  0.00    +0.251 C 
ATOM      8  H   UNL     1      31.385 -21.905 -19.152  0.00  0.00    +0.153 HD
ENDROOT
BRANCH   1  11
ATOM      9  C   UNL     1      34.193 -19.633 -20.745  0.00  0.00    +0.062 C 
ATOM     10  C   UNL     1      35.479 -19.962 -20.314  0.00  0.00    -0.007 C 
ATOM     11  C   UNL     1      33.261 -21.171 -19.132  0.00  0.00    +0.050 C 
ATOM     12  C   UNL     1      33.084 -20.238 -20.154  0.00  0.00    +0.030 C 
ATOM     13  C   UNL     1      35.655 -20.894 -19.291  0.00  0.00    -0.002 C 
ATOM     14  C   UNL     1      34.546 -21.500 -18.702  0.00  0.00    +0.014 C 
ATOM     15  C   UNL     1      36.684 -19.327 -20.929  0.00  0.00    +0.032 C 
BRANCH   9  16
ATOM     16  N   UNL     1      33.993 -18.679 -21.791  0.00  0.00    -0.219 N 
ATOM     17  H   UNL     1      33.358 -18.856 -22.522  0.00  0.00    +0.173 HD
BRANCH  16  18
ATOM     18  S   UNL     1      34.893 -17.213 -21.737  0.00  0.00    +0.056 S 
ATOM     19  O   UNL     1      34.626 -16.560 -20.469  0.00  0.00    -0.154 OA
ATOM     20  O   UNL     1      36.256 -17.424 -22.186  0.00  0.00    -0.154 OA
ATOM     21  C   UNL     1      34.045 -16.276 -22.989  0.00  0.00    +0.200 C 
ENDBRANCH  16  18
ENDBRANCH   9  16
ENDBRANCH   1  11
BRANCH   5  22
ATOM     22  C   UNL     1      33.746 -23.670 -14.367  0.00  0.00    +0.014 C 
ATOM     23  C   UNL     1      33.626 -23.554 -12.982  0.00  0.00    +0.001 C 
ATOM     24  C   UNL     1      34.875 -24.277 -14.920  0.00  0.00    +0.001 C 
ATOM     25  C   UNL     1      34.633 -24.044 -12.150  0.00  0.00    +0.000 C 
ATOM     26  C   UNL     1      35.881 -24.767 -14.088  0.00  0.00    +0.000 C 
ATOM     27  C   UNL     1      35.761 -24.651 -12.704  0.00  0.00    +0.000 C 
ENDBRANCH   5  22
TORSDOF 4
ENDMDL
MODEL 8
REMARK VINA RESULT:      -9.7      3.202      4.842
REMARK  Name = 25138203
REMARK  4 active torsions:
REMARK  status: ('A' for Active; 'I' for Inactive)
REMARK    1  A    between atoms: N_1  and  C_11
REMARK    2  A    between atoms: C_5  and  C_22
REMARK    3  A    between atoms: C_9  and  N_16
REMARK    4  A    between atoms: N_16  and  S_18
REMARK                            x       y       z     vdW  Elec       q    Type
REMARK                         _______ _______ _______ _____ _____    ______ ____
ROOT
ATOM      1  N   UNL     1      31.433  -8.733 -22.288  0.00  0.00    -0.301 N 
ATOM      2  N   UNL     1      31.124 -10.380 -20.596  0.00  0.00    -0.234 NA
ATOM      3  N   UNL     1      31.884 -12.637 -20.965  0.00  0.00    -0.248 NA
ATOM      4  C   UNL     1      31.581 -10.064 -21.825  0.00  0.00    +0.112 C 
ATOM      5  C   UNL     1      32.319 -12.251 -22.183  0.00  0.00    +0.063 C 
ATOM      6  C   UNL     1      32.194 -10.966 -22.671  0.00  0.00    +0.106 C 
ATOM      7  C   UNL     1      31.305 -11.665 -20.235  0.00  0.00    +0.251 C 
ATOM      8  H   UNL     1      30.643  -8.272 -21.923  0.00  0.00    +0.153 HD
ENDROOT
BRANCH   1  11
ATOM      9  C   UNL     1      32.328  -6.179 -24.810  0.00  0.00    +0.062 C 
ATOM     10  C   UNL     1      33.704  -6.382 -24.914  0.00  0.00    -0.007 C 
ATOM     11  C   UNL     1      32.193  -7.946 -23.167  0.00  0.00    +0.050 C 
ATOM     12  C   UNL     1      31.572  -6.961 -23.936  0.00  0.00    +0.030 C 
ATOM     13  C   UNL     1      34.325  -7.366 -24.144  0.00  0.00    -0.002 C 
ATOM     14  C   UNL     1      33.569  -8.148 -23.272  0.00  0.00    +0.014 C 
ATOM     15  C   UNL     1      34.537  -5.556 -25.840  0.00  0.00    +0.032 C 
BRANCH   9  16
ATOM     16  N   UNL     1      31.674  -5.175 -25.591  0.00  0.00    -0.219 N 
ATOM     17  H   UNL     1      31.423  -5.346 -26.527  0.00  0.00    +0.173 HD
BRANCH  16  18
ATOM     18  S   UNL     1      31.338  -3.660 -24.847  0.00  0.00    +0.056 S 
ATOM     19  O   UNL     1      30.032  -3.738 -24.220  0.00  0.00    -0.154 OA
ATOM     20  O   UNL     1      32.486  -3.180 -24.104  0.00  0.00    -0.154 OA
ATOM     21  C   UNL     1      31.156  -2.635 -26.291  0.00  0.00    +0.200 C 
ENDBRANCH  16  18
ENDBRANCH   9  16
ENDBRANCH   1  11
BRANCH   5  22
ATOM     22  C   UNL     1      32.942 -13.292 -22.970  0.00  0.00    +0.014 C 
ATOM     23  C   UNL     1      33.819 -14.193 -22.366  0.00  0.00    +0.001 C 
ATOM     24  C   UNL     1      32.664 -13.399 -24.334  0.00  0.00    +0.001 C 
ATOM     25  C   UNL     1      34.420 -15.198 -23.124  0.00  0.00    +0.000 C 
ATOM     26  C   UNL     1      33.265 -14.404 -25.092  0.00  0.00    +0.000 C 
ATOM     27  C   UNL     1      34.142 -15.304 -24.488  0.00  0.00    +0.000 C 
ENDBRANCH   5  22
TORSDOF 4
ENDMDL
MODEL 9
REMARK VINA RESULT:      -9.7     11.795     14.977
REMARK  Name = 25138203
REMARK  4 active torsions:
REMARK  status: ('A' for Active; 'I' for Inactive)
REMARK    1  A    between atoms: N_1  and  C_11
REMARK    2  A    between atoms: C_5  and  C_22
REMARK    3  A    between atoms: C_9  and  N_16
REMARK    4  A    between atoms: N_16  and  S_18
REMARK                            x       y       z     vdW  Elec       q    Type
REMARK                         _______ _______ _______ _____ _____    ______ ____
ROOT
ATOM      1  N   UNL     1      33.081 -23.748 -13.584  0.00  0.00    -0.301 N 
ATOM      2  N   UNL     1      34.241 -23.923 -11.513  0.00  0.00    -0.234 NA
ATOM      3  N   UNL     1      36.604 -24.398 -11.497  0.00  0.00    -0.248 NA
ATOM      4  C   UNL     1      34.279 -23.968 -12.860  0.00  0.00    +0.112 C 
ATOM      5  C   UNL     1      36.568 -24.428 -12.846  0.00  0.00    +0.063 C 
ATOM      6  C   UNL     1      35.424 -24.218 -13.588  0.00  0.00    +0.106 C 
ATOM      7  C   UNL     1      35.423 -24.143 -10.904  0.00  0.00    +0.251 C 
ATOM      8  H   UNL     1      32.269 -24.031 -13.104  0.00  0.00    +0.153 HD
ENDROOT
BRANCH   1  11
ATOM      9  C   UNL     1      31.267 -22.395 -16.510  0.00  0.00    +0.062 C 
ATOM     10  C   UNL     1      32.326 -22.125 -17.377  0.00  0.00    -0.007 C 
ATOM     11  C   UNL     1      32.828 -23.204 -14.854  0.00  0.00    +0.050 C 
ATOM     12  C   UNL     1      31.518 -22.934 -15.249  0.00  0.00    +0.030 C 
ATOM     13  C   UNL     1      33.637 -22.395 -16.981  0.00  0.00    -0.002 C 
ATOM     14  C   UNL     1      33.887 -22.935 -15.721  0.00  0.00    +0.014 C 
ATOM     15  C   UNL     1      32.085 -21.546 -18.733  0.00  0.00    +0.032 C 
BRANCH   9  16
ATOM     16  N   UNL     1      29.916 -22.125 -16.898  0.00  0.00    -0.219 N 
ATOM     17  H   UNL     1      29.714 -21.692 -17.758  0.00  0.00    +0.173 HD
BRANCH  16  18
ATOM     18  S   UNL     1      28.656 -22.580 -15.817  0.00  0.00    +0.056 S 
ATOM     19  O   UNL     1      28.774 -24.000 -15.549  0.00  0.00    -0.154 OA
ATOM     20  O   UNL     1      28.540 -21.631 -14.727  0.00  0.00    -0.154 OA
ATOM     21  C   UNL     1      27.242 -22.370 -16.877  0.00  0.00    +0.200 C 
ENDBRANCH  16  18
ENDBRANCH   9  16
ENDBRANCH   1  11
BRANCH   5  22
ATOM     22  C   UNL     1      37.836 -24.700 -13.487  0.00  0.00    +0.014 C 
ATOM     23  C   UNL     1      38.181 -24.032 -14.662  0.00  0.00    +0.001 C 
ATOM     24  C   UNL     1      38.715 -25.631 -12.931  0.00  0.00    +0.001 C 
ATOM     25  C   UNL     1      39.404 -24.294 -15.281  0.00  0.00    +0.000 C 
ATOM     26  C   UNL     1      39.937 -25.893 -13.549  0.00  0.00    +0.000 C 
ATOM     27  C   UNL     1      40.282 -25.225 -14.724  0.00  0.00    +0.000 C 
ENDBRANCH   5  22
TORSDOF 4
ENDMDL
