MODEL 1
REMARK VINA RESULT:     -12.3      0.000      0.000
REMARK  Name = 16046068
REMARK  5 active torsions:
REMARK  status: ('A' for Active; 'I' for Inactive)
REMARK    1  A    between atoms: C_1  and  C_8
REMARK    2  A    between atoms: C_6  and  O_19
REMARK    3  A    between atoms: C_10  and  C_16
REMARK    4  A    between atoms: O_19  and  C_20
REMARK    5  A    between atoms: C_20  and  C_22
REMARK                            x       y       z     vdW  Elec       q    Type
REMARK                         _______ _______ _______ _____ _____    ______ ____
ROOT
ATOM      1  C   UNL     1      34.328 -19.818 -20.536  0.00  0.00    -0.042 C 
ATOM      2  C   UNL     1      35.193 -20.684 -19.864  0.00  0.00    -0.003 C 
ATOM      3  C   UNL     1      32.949 -19.944 -20.365  0.00  0.00    -0.003 C 
ATOM      4  C   UNL     1      34.679 -21.669 -19.021  0.00  0.00    +0.037 C 
ATOM      5  C   UNL     1      32.435 -20.929 -19.522  0.00  0.00    +0.037 C 
ATOM      6  C   UNL     1      33.301 -21.793 -18.851  0.00  0.00    +0.139 C 
ENDROOT
BRANCH   1   8
ATOM      7  N   UNL     1      34.947 -17.424 -20.824  0.00  0.00    +0.395 N 
ATOM      8  C   UNL     1      34.884 -18.752 -21.449  0.00  0.00    -0.038 C 
ATOM      9  C   UNL     1      34.029 -18.494 -22.684  0.00  0.00    -0.019 C 
ATOM     10  C   UNL     1      35.045 -16.450 -21.910  0.00  0.00    +0.017 C 
ATOM     11  C   UNL     1      34.524 -17.139 -23.166  0.00  0.00    -0.014 C 
ATOM     12  H   UNL     1      35.766 -17.360 -20.219  0.00  0.00    -0.083 HD
ATOM     13  H   UNL     1      34.122 -17.251 -20.250  0.00  0.00    -0.083 HD
BRANCH  10  16
ATOM     14  O   UNL     1      34.016 -14.983 -20.336  0.00  0.00    -0.278 OA
ATOM     15  N   UNL     1      33.637 -14.620 -22.577  0.00  0.00    -0.330 N 
ATOM     16  C   UNL     1      34.198 -15.287 -21.512  0.00  0.00    +0.199 C 
ATOM     17  H   UNL     1      33.061 -13.837 -22.418  0.00  0.00    +0.145 HD
ATOM     18  H   UNL     1      33.814 -14.924 -23.496  0.00  0.00    +0.145 HD
ENDBRANCH  10  16
ENDBRANCH   1   8
BRANCH   6  19
ATOM     19  O   UNL     1      32.800 -22.754 -18.028  0.00  0.00    -0.471 OA
BRANCH  19  20
ATOM     20  C   UNL     1      33.312 -22.803 -16.698  0.00  0.00    +0.234 C 
BRANCH  20  22
ATOM     21  F   UNL     1      33.785 -23.248 -13.948  0.00  0.00    -0.204 F 
ATOM     22  C   UNL     1      32.219 -22.826 -15.682  0.00  0.00    +0.049 C 
ATOM     23  C   UNL     1      32.518 -23.050 -14.338  0.00  0.00    +0.140 C 
ATOM     24  C   UNL     1      30.898 -22.624 -16.078  0.00  0.00    +0.002 C 
ATOM     25  C   UNL     1      31.495 -23.072 -13.390  0.00  0.00    +0.029 C 
ATOM     26  C   UNL     1      29.875 -22.645 -15.130  0.00  0.00    -0.000 C 
ATOM     27  C   UNL     1      30.173 -22.870 -13.787  0.00  0.00    +0.002 C 
ENDBRANCH  20  22
ENDBRANCH  19  20
ENDBRANCH   6  19
TORSDOF 5
ENDMDL
MODEL 2
REMARK VINA RESULT:     -12.2      3.680      8.539
REMARK  Name = 16046068
REMARK  5 active torsions:
REMARK  status: ('A' for Active; 'I' for Inactive)
REMARK    1  A    between atoms: C_1  and  C_8
REMARK    2  A    between atoms: C_6  and  O_19
REMARK    3  A    between atoms: C_10  and  C_16
REMARK    4  A    between atoms: O_19  and  C_20
REMARK    5  A    between atoms: C_20  and  C_22
REMARK                            x       y       z     vdW  Elec       q    Type
REMARK                         _______ _______ _______ _____ _____    ______ ____
ROOT
ATOM      1  C   UNL     1      33.876 -21.471 -18.913  0.00  0.00    -0.042 C 
ATOM      2  C   UNL     1      35.243 -21.218 -19.051  0.00  0.00    -0.003 C 
ATOM      3  C   UNL     1      32.955 -20.737 -19.662  0.00  0.00    -0.003 C 
ATOM      4  C   UNL     1      35.685 -20.236 -19.936  0.00  0.00    +0.037 C 
ATOM      5  C   UNL     1      33.398 -19.754 -20.548  0.00  0.00    +0.037 C 
ATOM      6  C   UNL     1      34.764 -19.503 -20.684  0.00  0.00    +0.139 C 
ENDROOT
BRANCH   1   8
ATOM      7  N   UNL     1      31.947 -22.493 -17.717  0.00  0.00    +0.395 N 
ATOM      8  C   UNL     1      33.396 -22.534 -17.954  0.00  0.00    -0.038 C 
ATOM      9  C   UNL     1      33.964 -22.394 -16.547  0.00  0.00    -0.019 C 
ATOM     10  C   UNL     1      31.703 -23.223 -16.473  0.00  0.00    +0.017 C 
ATOM     11  C   UNL     1      33.022 -23.246 -15.711  0.00  0.00    -0.014 C 
ATOM     12  H   UNL     1      31.453 -22.939 -18.489  0.00  0.00    -0.083 HD
ATOM     13  H   UNL     1      31.615 -21.532 -17.649  0.00  0.00    -0.083 HD
BRANCH  10  16
ATOM     14  O   UNL     1      30.797 -22.079 -14.585  0.00  0.00    -0.278 OA
ATOM     15  N   UNL     1      29.496 -22.270 -16.473  0.00  0.00    -0.330 N 
ATOM     16  C   UNL     1      30.643 -22.466 -15.741  0.00  0.00    +0.199 C 
ATOM     17  H   UNL     1      28.738 -21.781 -16.078  0.00  0.00    +0.145 HD
ATOM     18  H   UNL     1      29.433 -22.618 -17.392  0.00  0.00    +0.145 HD
ENDBRANCH  10  16
ENDBRANCH   1   8
BRANCH   6  19
ATOM     19  O   UNL     1      35.196 -18.545 -21.548  0.00  0.00    -0.471 OA
BRANCH  19  20
ATOM     20  C   UNL     1      35.046 -17.186 -21.141  0.00  0.00    +0.234 C 
BRANCH  20  22
ATOM     21  F   UNL     1      34.294 -14.490 -20.756  0.00  0.00    -0.204 F 
ATOM     22  C   UNL     1      34.497 -16.335 -22.236  0.00  0.00    +0.049 C 
ATOM     23  C   UNL     1      34.145 -15.009 -21.983  0.00  0.00    +0.140 C 
ATOM     24  C   UNL     1      34.335 -16.867 -23.515  0.00  0.00    +0.002 C 
ATOM     25  C   UNL     1      33.631 -14.216 -23.008  0.00  0.00    +0.029 C 
ATOM     26  C   UNL     1      33.821 -16.074 -24.541  0.00  0.00    -0.000 C 
ATOM     27  C   UNL     1      33.469 -14.748 -24.287  0.00  0.00    +0.002 C 
ENDBRANCH  20  22
ENDBRANCH  19  20
ENDBRANCH   6  19
TORSDOF 5
ENDMDL
MODEL 3
REMARK VINA RESULT:     -12.2      3.896      8.590
REMARK  Name = 16046068
REMARK  5 active torsions:
REMARK  status: ('A' for Active; 'I' for Inactive)
REMARK    1  A    between atoms: C_1  and  C_8
REMARK    2  A    between atoms: C_6  and  O_19
REMARK    3  A    between atoms: C_10  and  C_16
REMARK    4  A    between atoms: O_19  and  C_20
REMARK    5  A    between atoms: C_20  and  C_22
REMARK                            x       y       z     vdW  Elec       q    Type
REMARK                         _______ _______ _______ _____ _____    ______ ____
ROOT
ATOM      1  C   UNL     1      34.372 -21.013 -19.388  0.00  0.00    -0.042 C 
ATOM      2  C   UNL     1      33.452 -20.276 -20.138  0.00  0.00    -0.003 C 
ATOM      3  C   UNL     1      35.728 -20.685 -19.438  0.00  0.00    -0.003 C 
ATOM      4  C   UNL     1      33.888 -19.215 -20.931  0.00  0.00    +0.037 C 
ATOM      5  C   UNL     1      36.164 -19.624 -20.232  0.00  0.00    +0.037 C 
ATOM      6  C   UNL     1      35.243 -18.890 -20.979  0.00  0.00    +0.139 C 
ENDROOT
BRANCH   1   8
ATOM      7  N   UNL     1      32.444 -22.198 -18.353  0.00  0.00    +0.395 N 
ATOM      8  C   UNL     1      33.902 -22.161 -18.530  0.00  0.00    -0.038 C 
ATOM      9  C   UNL     1      34.406 -22.102 -17.093  0.00  0.00    -0.019 C 
ATOM     10  C   UNL     1      32.182 -23.027 -17.177  0.00  0.00    +0.017 C 
ATOM     11  C   UNL     1      33.470 -23.051 -16.362  0.00  0.00    -0.014 C 
ATOM     12  H   UNL     1      32.001 -22.607 -19.176  0.00  0.00    -0.083 HD
ATOM     13  H   UNL     1      32.066 -21.259 -18.231  0.00  0.00    -0.083 HD
BRANCH  10  16
ATOM     14  O   UNL     1      30.102 -21.870 -17.020  0.00  0.00    -0.278 OA
ATOM     15  N   UNL     1      31.224 -22.366 -15.074  0.00  0.00    -0.330 N 
ATOM     16  C   UNL     1      31.061 -22.370 -16.439  0.00  0.00    +0.199 C 
ATOM     17  H   UNL     1      30.538 -21.956 -14.498  0.00  0.00    +0.145 HD
ATOM     18  H   UNL     1      32.025 -22.773 -14.672  0.00  0.00    +0.145 HD
ENDBRANCH  10  16
ENDBRANCH   1   8
BRANCH   6  19
ATOM     19  O   UNL     1      35.667 -17.854 -21.753  0.00  0.00    -0.471 OA
BRANCH  19  20
ATOM     20  C   UNL     1      34.741 -17.329 -22.702  0.00  0.00    +0.234 C 
BRANCH  20  22
ATOM     21  F   UNL     1      34.341 -15.369 -24.698  0.00  0.00    -0.204 F 
ATOM     22  C   UNL     1      34.361 -15.921 -22.389  0.00  0.00    +0.049 C 
ATOM     23  C   UNL     1      34.177 -14.999 -23.420  0.00  0.00    +0.140 C 
ATOM     24  C   UNL     1      34.191 -15.526 -21.062  0.00  0.00    +0.002 C 
ATOM     25  C   UNL     1      33.823 -13.683 -23.124  0.00  0.00    +0.029 C 
ATOM     26  C   UNL     1      33.836 -14.210 -20.767  0.00  0.00    -0.000 C 
ATOM     27  C   UNL     1      33.652 -13.288 -21.797  0.00  0.00    +0.002 C 
ENDBRANCH  20  22
ENDBRANCH  19  20
ENDBRANCH   6  19
TORSDOF 5
ENDMDL
MODEL 4
REMARK VINA RESULT:     -12.1      2.276      3.223
REMARK  Name = 16046068
REMARK  5 active torsions:
REMARK  status: ('A' for Active; 'I' for Inactive)
REMARK    1  A    between atoms: C_1  and  C_8
REMARK    2  A    between atoms: C_6  and  O_19
REMARK    3  A    between atoms: C_10  and  C_16
REMARK    4  A    between atoms: O_19  and  C_20
REMARK    5  A    between atoms: C_20  and  C_22
REMARK                            x       y       z     vdW  Elec       q    Type
REMARK                         _______ _______ _______ _____ _____    ______ ____
ROOT
ATOM      1  C   UNL     1      34.787 -19.964 -20.335  0.00  0.00    -0.042 C 
ATOM      2  C   UNL     1      33.469 -20.329 -20.053  0.00  0.00    -0.003 C 
ATOM      3  C   UNL     1      35.834 -20.522 -19.600  0.00  0.00    -0.003 C 
ATOM      4  C   UNL     1      33.200 -21.251 -19.041  0.00  0.00    +0.037 C 
ATOM      5  C   UNL     1      35.566 -21.444 -18.588  0.00  0.00    +0.037 C 
ATOM      6  C   UNL     1      34.248 -21.807 -18.308  0.00  0.00    +0.139 C 
ENDROOT
BRANCH   1   8
ATOM      7  N   UNL     1      35.256 -17.594 -20.935  0.00  0.00    +0.395 N 
ATOM      8  C   UNL     1      35.078 -18.966 -21.429  0.00  0.00    -0.038 C 
ATOM      9  C   UNL     1      33.944 -18.808 -22.435  0.00  0.00    -0.019 C 
ATOM     10  C   UNL     1      35.065 -16.704 -22.079  0.00  0.00    +0.017 C 
ATOM     11  C   UNL     1      34.272 -17.489 -23.118  0.00  0.00    -0.014 C 
ATOM     12  H   UNL     1      36.195 -17.479 -20.553  0.00  0.00    -0.083 HD
ATOM     13  H   UNL     1      34.591 -17.384 -20.191  0.00  0.00    -0.083 HD
BRANCH  10  16
ATOM     14  O   UNL     1      34.175 -15.296 -20.372  0.00  0.00    -0.278 OA
ATOM     15  N   UNL     1      33.772 -14.737 -22.567  0.00  0.00    -0.330 N 
ATOM     16  C   UNL     1      34.309 -15.520 -21.572  0.00  0.00    +0.199 C 
ATOM     17  H   UNL     1      33.255 -13.932 -22.334  0.00  0.00    +0.145 HD
ATOM     18  H   UNL     1      33.906 -14.981 -23.511  0.00  0.00    +0.145 HD
ENDBRANCH  10  16
ENDBRANCH   1   8
BRANCH   6  19
ATOM     19  O   UNL     1      33.986 -22.707 -17.322  0.00  0.00    -0.471 OA
BRANCH  19  20
ATOM     20  C   UNL     1      34.313 -22.323 -15.987  0.00  0.00    +0.234 C 
BRANCH  20  22
ATOM     21  F   UNL     1      37.010 -21.524 -15.719  0.00  0.00    -0.204 F 
ATOM     22  C   UNL     1      35.363 -23.203 -15.396  0.00  0.00    +0.049 C 
ATOM     23  C   UNL     1      36.678 -22.749 -15.291  0.00  0.00    +0.140 C 
ATOM     24  C   UNL     1      35.028 -24.481 -14.950  0.00  0.00    +0.002 C 
ATOM     25  C   UNL     1      37.658 -23.574 -14.738  0.00  0.00    +0.029 C 
ATOM     26  C   UNL     1      36.008 -25.305 -14.397  0.00  0.00    -0.000 C 
ATOM     27  C   UNL     1      37.323 -24.853 -14.292  0.00  0.00    +0.002 C 
ENDBRANCH  20  22
ENDBRANCH  19  20
ENDBRANCH   6  19
TORSDOF 5
ENDMDL
MODEL 5
REMARK VINA RESULT:     -11.9      3.866      8.533
REMARK  Name = 16046068
REMARK  5 active torsions:
REMARK  status: ('A' for Active; 'I' for Inactive)
REMARK    1  A    between atoms: C_1  and  C_8
REMARK    2  A    between atoms: C_6  and  O_19
REMARK    3  A    between atoms: C_10  and  C_16
REMARK    4  A    between atoms: O_19  and  C_20
REMARK    5  A    between atoms: C_20  and  C_22
REMARK                            x       y       z     vdW  Elec       q    Type
REMARK                         _______ _______ _______ _____ _____    ______ ____
ROOT
ATOM      1  C   UNL     1      33.598 -21.642 -18.568  0.00  0.00    -0.042 C 
ATOM      2  C   UNL     1      34.889 -21.341 -19.007  0.00  0.00    -0.003 C 
ATOM      3  C   UNL     1      32.503 -20.983 -19.130  0.00  0.00    -0.003 C 
ATOM      4  C   UNL     1      35.083 -20.387 -20.005  0.00  0.00    +0.037 C 
ATOM      5  C   UNL     1      32.697 -20.028 -20.128  0.00  0.00    +0.037 C 
ATOM      6  C   UNL     1      33.988 -19.730 -20.565  0.00  0.00    +0.139 C 
ENDROOT
BRANCH   1   8
ATOM      7  N   UNL     1      32.047 -22.625 -16.888  0.00  0.00    +0.395 N 
ATOM      8  C   UNL     1      33.387 -22.674 -17.488  0.00  0.00    -0.038 C 
ATOM      9  C   UNL     1      34.295 -22.493 -16.278  0.00  0.00    -0.019 C 
ATOM     10  C   UNL     1      32.134 -23.316 -15.602  0.00  0.00    +0.017 C 
ATOM     11  C   UNL     1      33.605 -23.318 -15.203  0.00  0.00    -0.014 C 
ATOM     12  H   UNL     1      31.374 -23.094 -17.494  0.00  0.00    -0.083 HD
ATOM     13  H   UNL     1      31.736 -21.662 -16.766  0.00  0.00    -0.083 HD
BRANCH  10  16
ATOM     14  O   UNL     1      30.207 -22.060 -14.969  0.00  0.00    -0.278 OA
ATOM     15  N   UNL     1      31.857 -22.393 -13.400  0.00  0.00    -0.330 N 
ATOM     16  C   UNL     1      31.292 -22.537 -14.646  0.00  0.00    +0.199 C 
ATOM     17  H   UNL     1      31.379 -21.895 -12.698  0.00  0.00    +0.145 HD
ATOM     18  H   UNL     1      32.737 -22.790 -13.211  0.00  0.00    +0.145 HD
ENDBRANCH  10  16
ENDBRANCH   1   8
BRANCH   6  19
ATOM     19  O   UNL     1      34.178 -18.799 -21.539  0.00  0.00    -0.471 OA
BRANCH  19  20
ATOM     20  C   UNL     1      35.130 -17.769 -21.278  0.00  0.00    +0.234 C 
BRANCH  20  22
ATOM     21  F   UNL     1      34.798 -16.829 -23.922  0.00  0.00    -0.204 F 
ATOM     22  C   UNL     1      34.586 -16.416 -21.594  0.00  0.00    +0.049 C 
ATOM     23  C   UNL     1      34.445 -16.010 -22.921  0.00  0.00    +0.140 C 
ATOM     24  C   UNL     1      34.218 -15.556 -20.559  0.00  0.00    +0.002 C 
ATOM     25  C   UNL     1      33.937 -14.745 -23.213  0.00  0.00    +0.029 C 
ATOM     26  C   UNL     1      33.709 -14.290 -20.852  0.00  0.00    -0.000 C 
ATOM     27  C   UNL     1      33.569 -13.885 -22.178  0.00  0.00    +0.002 C 
ENDBRANCH  20  22
ENDBRANCH  19  20
ENDBRANCH   6  19
TORSDOF 5
ENDMDL
MODEL 6
REMARK VINA RESULT:     -11.8      3.192      5.329
REMARK  Name = 16046068
REMARK  5 active torsions:
REMARK  status: ('A' for Active; 'I' for Inactive)
REMARK    1  A    between atoms: C_1  and  C_8
REMARK    2  A    between atoms: C_6  and  O_19
REMARK    3  A    between atoms: C_10  and  C_16
REMARK    4  A    between atoms: O_19  and  C_20
REMARK    5  A    between atoms: C_20  and  C_22
REMARK                            x       y       z     vdW  Elec       q    Type
REMARK                         _______ _______ _______ _____ _____    ______ ____
ROOT
ATOM      1  C   UNL     1      34.163 -15.200 -22.958  0.00  0.00    -0.042 C 
ATOM      2  C   UNL     1      34.492 -15.607 -21.663  0.00  0.00    -0.003 C 
ATOM      3  C   UNL     1      34.019 -16.152 -23.969  0.00  0.00    -0.003 C 
ATOM      4  C   UNL     1      34.674 -16.961 -21.381  0.00  0.00    +0.037 C 
ATOM      5  C   UNL     1      34.201 -17.506 -23.687  0.00  0.00    +0.037 C 
ATOM      6  C   UNL     1      34.530 -17.910 -22.393  0.00  0.00    +0.139 C 
ENDROOT
BRANCH   1   8
ATOM      7  N   UNL     1      33.459 -12.965 -22.121  0.00  0.00    +0.395 N 
ATOM      8  C   UNL     1      33.966 -13.736 -23.264  0.00  0.00    -0.038 C 
ATOM      9  C   UNL     1      32.915 -13.467 -24.334  0.00  0.00    -0.019 C 
ATOM     10  C   UNL     1      32.890 -11.731 -22.663  0.00  0.00    +0.017 C 
ATOM     11  C   UNL     1      32.591 -11.995 -24.134  0.00  0.00    -0.014 C 
ATOM     12  H   UNL     1      34.221 -12.748 -21.479  0.00  0.00    -0.083 HD
ATOM     13  H   UNL     1      32.758 -13.495 -21.604  0.00  0.00    -0.083 HD
BRANCH  10  16
ATOM     14  O   UNL     1      31.021 -10.408 -21.996  0.00  0.00    -0.278 OA
ATOM     15  N   UNL     1      31.309 -12.467 -21.009  0.00  0.00    -0.330 N 
ATOM     16  C   UNL     1      31.651 -11.456 -21.877  0.00  0.00    +0.199 C 
ATOM     17  H   UNL     1      30.507 -12.380 -20.445  0.00  0.00    +0.145 HD
ATOM     18  H   UNL     1      31.866 -13.276 -20.953  0.00  0.00    +0.145 HD
ENDBRANCH  10  16
ENDBRANCH   1   8
BRANCH   6  19
ATOM     19  O   UNL     1      34.708 -19.231 -22.117  0.00  0.00    -0.471 OA
BRANCH  19  20
ATOM     20  C   UNL     1      35.324 -19.558 -20.873  0.00  0.00    +0.234 C 
BRANCH  20  22
ATOM     21  F   UNL     1      36.254 -21.368 -18.913  0.00  0.00    -0.204 F 
ATOM     22  C   UNL     1      34.407 -20.331 -19.985  0.00  0.00    +0.049 C 
ATOM     23  C   UNL     1      34.929 -21.209 -19.035  0.00  0.00    +0.140 C 
ATOM     24  C   UNL     1      33.027 -20.175 -20.106  0.00  0.00    +0.002 C 
ATOM     25  C   UNL     1      34.069 -21.931 -18.206  0.00  0.00    +0.029 C 
ATOM     26  C   UNL     1      32.168 -20.896 -19.277  0.00  0.00    -0.000 C 
ATOM     27  C   UNL     1      32.689 -21.774 -18.328  0.00  0.00    +0.002 C 
ENDBRANCH  20  22
ENDBRANCH  19  20
ENDBRANCH   6  19
TORSDOF 5
ENDMDL
MODEL 7
REMARK VINA RESULT:     -11.8      4.435      7.404
REMARK  Name = 16046068
REMARK  5 active torsions:
REMARK  status: ('A' for Active; 'I' for Inactive)
REMARK    1  A    between atoms: C_1  and  C_8
REMARK    2  A    between atoms: C_6  and  O_19
REMARK    3  A    between atoms: C_10  and  C_16
REMARK    4  A    between atoms: O_19  and  C_20
REMARK    5  A    between atoms: C_20  and  C_22
REMARK                            x       y       z     vdW  Elec       q    Type
REMARK                         _______ _______ _______ _____ _____    ______ ____
ROOT
ATOM      1  C   UNL     1      32.635 -13.101 -22.123  0.00  0.00    -0.042 C 
ATOM      2  C   UNL     1      32.824 -13.485 -20.794  0.00  0.00    -0.003 C 
ATOM      3  C   UNL     1      33.229 -13.837 -23.150  0.00  0.00    -0.003 C 
ATOM      4  C   UNL     1      33.603 -14.603 -20.494  0.00  0.00    +0.037 C 
ATOM      5  C   UNL     1      34.007 -14.955 -22.850  0.00  0.00    +0.037 C 
ATOM      6  C   UNL     1      34.195 -15.337 -21.521  0.00  0.00    +0.139 C 
ENDROOT
BRANCH   1   8
ATOM      7  N   UNL     1      32.545 -10.820 -23.115  0.00  0.00    +0.395 N 
ATOM      8  C   UNL     1      31.793 -11.891 -22.448  0.00  0.00    -0.038 C 
ATOM      9  C   UNL     1      31.231 -11.184 -21.220  0.00  0.00    -0.019 C 
ATOM     10  C   UNL     1      31.769  -9.591 -22.947  0.00  0.00    +0.017 C 
ATOM     11  C   UNL     1      30.839  -9.818 -21.761  0.00  0.00    -0.014 C 
ATOM     12  H   UNL     1      32.656 -11.033 -24.106  0.00  0.00    -0.083 HD
ATOM     13  H   UNL     1      33.477 -10.722 -22.712  0.00  0.00    -0.083 HD
BRANCH  10  16
ATOM     14  O   UNL     1      33.804  -8.406 -23.320  0.00  0.00    -0.278 OA
ATOM     15  N   UNL     1      32.383  -7.644 -21.680  0.00  0.00    -0.330 N 
ATOM     16  C   UNL     1      32.755  -8.500 -22.689  0.00  0.00    +0.199 C 
ATOM     17  H   UNL     1      32.967  -6.891 -21.433  0.00  0.00    +0.145 HD
ATOM     18  H   UNL     1      31.533  -7.784 -21.204  0.00  0.00    +0.145 HD
ENDBRANCH  10  16
ENDBRANCH   1   8
BRANCH   6  19
ATOM     19  O   UNL     1      34.954 -16.427 -21.228  0.00  0.00    -0.471 OA
BRANCH  19  20
ATOM     20  C   UNL     1      34.672 -17.628 -21.946  0.00  0.00    +0.234 C 
BRANCH  20  22
ATOM     21  F   UNL     1      36.995 -18.762 -20.806  0.00  0.00    -0.204 F 
ATOM     22  C   UNL     1      34.635 -18.818 -21.046  0.00  0.00    +0.049 C 
ATOM     23  C   UNL     1      35.817 -19.330 -20.514  0.00  0.00    +0.140 C 
ATOM     24  C   UNL     1      33.414 -19.418 -20.739  0.00  0.00    +0.002 C 
ATOM     25  C   UNL     1      35.779 -20.443 -19.674  0.00  0.00    +0.029 C 
ATOM     26  C   UNL     1      33.375 -20.530 -19.898  0.00  0.00    -0.000 C 
ATOM     27  C   UNL     1      34.558 -21.043 -19.366  0.00  0.00    +0.002 C 
ENDBRANCH  20  22
ENDBRANCH  19  20
ENDBRANCH   6  19
TORSDOF 5
ENDMDL
MODEL 8
REMARK VINA RESULT:     -11.4      3.468      5.989
REMARK  Name = 16046068
REMARK  5 active torsions:
REMARK  status: ('A' for Active; 'I' for Inactive)
REMARK    1  A    between atoms: C_1  and  C_8
REMARK    2  A    between atoms: C_6  and  O_19
REMARK    3  A    between atoms: C_10  and  C_16
REMARK    4  A    between atoms: O_19  and  C_20
REMARK    5  A    between atoms: C_20  and  C_22
REMARK                            x       y       z     vdW  Elec       q    Type
REMARK                         _______ _______ _______ _____ _____    ______ ____
ROOT
ATOM      1  C   UNL     1      34.045 -14.276 -22.462  0.00  0.00    -0.042 C 
ATOM      2  C   UNL     1      33.903 -14.467 -21.086  0.00  0.00    -0.003 C 
ATOM      3  C   UNL     1      34.498 -15.325 -23.264  0.00  0.00    -0.003 C 
ATOM      4  C   UNL     1      34.212 -15.701 -20.516  0.00  0.00    +0.037 C 
ATOM      5  C   UNL     1      34.807 -16.560 -22.694  0.00  0.00    +0.037 C 
ATOM      6  C   UNL     1      34.665 -16.748 -21.319  0.00  0.00    +0.139 C 
ENDROOT
BRANCH   1   8
ATOM      7  N   UNL     1      33.132 -11.985 -22.126  0.00  0.00    +0.395 N 
ATOM      8  C   UNL     1      33.712 -12.940 -23.080  0.00  0.00    -0.038 C 
ATOM      9  C   UNL     1      32.642 -13.013 -24.163  0.00  0.00    -0.019 C 
ATOM     10  C   UNL     1      32.451 -10.960 -22.915  0.00  0.00    +0.017 C 
ATOM     11  C   UNL     1      32.180 -11.569 -24.286  0.00  0.00    -0.014 C 
ATOM     12  H   UNL     1      33.870 -11.562 -21.562  0.00  0.00    -0.083 HD
ATOM     13  H   UNL     1      32.484 -12.450 -21.491  0.00  0.00    -0.083 HD
BRANCH  10  16
ATOM     14  O   UNL     1      30.615  -9.557 -22.326  0.00  0.00    -0.278 OA
ATOM     15  N   UNL     1      30.763 -11.632 -21.342  0.00  0.00    -0.330 N 
ATOM     16  C   UNL     1      31.190 -10.633 -22.185  0.00  0.00    +0.199 C 
ATOM     17  H   UNL     1      29.940 -11.512 -20.815  0.00  0.00    +0.145 HD
ATOM     18  H   UNL     1      31.280 -12.466 -21.267  0.00  0.00    +0.145 HD
ENDBRANCH  10  16
ENDBRANCH   1   8
BRANCH   6  19
ATOM     19  O   UNL     1      34.965 -17.952 -20.763  0.00  0.00    -0.471 OA
BRANCH  19  20
ATOM     20  C   UNL     1      34.229 -19.084 -21.224  0.00  0.00    +0.234 C 
BRANCH  20  22
ATOM     21  F   UNL     1      31.715 -20.050 -20.369  0.00  0.00    -0.204 F 
ATOM     22  C   UNL     1      34.079 -20.121 -20.161  0.00  0.00    +0.049 C 
ATOM     23  C   UNL     1      32.809 -20.558 -19.784  0.00  0.00    +0.140 C 
ATOM     24  C   UNL     1      35.211 -20.653 -19.545  0.00  0.00    +0.002 C 
ATOM     25  C   UNL     1      32.672 -21.527 -18.790  0.00  0.00    +0.029 C 
ATOM     26  C   UNL     1      35.074 -21.622 -18.552  0.00  0.00    -0.000 C 
ATOM     27  C   UNL     1      33.805 -22.059 -18.174  0.00  0.00    +0.002 C 
ENDBRANCH  20  22
ENDBRANCH  19  20
ENDBRANCH   6  19
TORSDOF 5
ENDMDL
MODEL 9
REMARK VINA RESULT:     -11.4      4.395      9.102
REMARK  Name = 16046068
REMARK  5 active torsions:
REMARK  status: ('A' for Active; 'I' for Inactive)
REMARK    1  A    between atoms: C_1  and  C_8
REMARK    2  A    between atoms: C_6  and  O_19
REMARK    3  A    between atoms: C_10  and  C_16
REMARK    4  A    between atoms: O_19  and  C_20
REMARK    5  A    between atoms: C_20  and  C_22
REMARK                            x       y       z     vdW  Elec       q    Type
REMARK                         _______ _______ _______ _____ _____    ______ ____
ROOT
ATOM      1  C   UNL     1      35.133 -22.102 -16.791  0.00  0.00    -0.042 C 
ATOM      2  C   UNL     1      33.897 -22.229 -17.429  0.00  0.00    -0.003 C 
ATOM      3  C   UNL     1      36.160 -21.384 -17.405  0.00  0.00    -0.003 C 
ATOM      4  C   UNL     1      33.690 -21.638 -18.675  0.00  0.00    +0.037 C 
ATOM      5  C   UNL     1      35.953 -20.793 -18.651  0.00  0.00    +0.037 C 
ATOM      6  C   UNL     1      34.717 -20.921 -19.286  0.00  0.00    +0.139 C 
ENDROOT
BRANCH   1   8
ATOM      7  N   UNL     1      36.439 -23.737 -15.443  0.00  0.00    +0.395 N 
ATOM      8  C   UNL     1      35.358 -22.742 -15.443  0.00  0.00    -0.038 C 
ATOM      9  C   UNL     1      34.168 -23.550 -14.939  0.00  0.00    -0.019 C 
ATOM     10  C   UNL     1      36.241 -24.577 -14.262  0.00  0.00    +0.017 C 
ATOM     11  C   UNL     1      34.780 -24.423 -13.854  0.00  0.00    -0.014 C 
ATOM     12  H   UNL     1      37.344 -23.270 -15.394  0.00  0.00    -0.083 HD
ATOM     13  H   UNL     1      36.423 -24.294 -16.296  0.00  0.00    -0.083 HD
BRANCH  10  16
ATOM     14  O   UNL     1      35.951 -26.546 -15.575  0.00  0.00    -0.278 OA
ATOM     15  N   UNL     1      37.584 -26.546 -13.955  0.00  0.00    -0.330 N 
ATOM     16  C   UNL     1      36.564 -25.974 -14.679  0.00  0.00    +0.199 C 
ATOM     17  H   UNL     1      37.872 -27.466 -14.153  0.00  0.00    +0.145 HD
ATOM     18  H   UNL     1      38.026 -26.035 -13.239  0.00  0.00    +0.145 HD
ENDBRANCH  10  16
ENDBRANCH   1   8
BRANCH   6  19
ATOM     19  O   UNL     1      34.515 -20.343 -20.502  0.00  0.00    -0.471 OA
BRANCH  19  20
ATOM     20  C   UNL     1      35.567 -19.532 -21.020  0.00  0.00    +0.234 C 
BRANCH  20  22
ATOM     21  F   UNL     1      34.512 -19.773 -23.630  0.00  0.00    -0.204 F 
ATOM     22  C   UNL     1      35.043 -18.367 -21.792  0.00  0.00    +0.049 C 
ATOM     23  C   UNL     1      34.533 -18.552 -23.078  0.00  0.00    +0.140 C 
ATOM     24  C   UNL     1      35.063 -17.093 -21.227  0.00  0.00    +0.002 C 
ATOM     25  C   UNL     1      34.045 -17.462 -23.797  0.00  0.00    +0.029 C 
ATOM     26  C   UNL     1      34.574 -16.003 -21.947  0.00  0.00    -0.000 C 
ATOM     27  C   UNL     1      34.065 -16.187 -23.232  0.00  0.00    +0.002 C 
ENDBRANCH  20  22
ENDBRANCH  19  20
ENDBRANCH   6  19
TORSDOF 5
ENDMDL
