MODEL 1
REMARK VINA RESULT:     -11.0      0.000      0.000
REMARK  Name = 119828
REMARK  5 active torsions:
REMARK  status: ('A' for Active; 'I' for Inactive)
REMARK    1  A    between atoms: C_1  and  C_9
REMARK    2  A    between atoms: C_2  and  S_19
REMARK    3  A    between atoms: C_10  and  C_13
REMARK    4  A    between atoms: S_19  and  N_23
REMARK    5  A    between atoms: C_24  and  C_26
REMARK                            x       y       z     vdW  Elec       q    Type
REMARK                         _______ _______ _______ _____ _____    ______ ____
ROOT
ATOM      1  C   UNL     1      33.702 -23.663 -14.670  0.00  0.00    +0.004 C 
ATOM      2  C   UNL     1      35.730 -24.503 -12.984  0.00  0.00    +0.125 C 
ATOM      3  C   UNL     1      33.950 -22.975 -13.483  0.00  0.00    +0.002 C 
ATOM      4  C   UNL     1      34.474 -24.774 -15.007  0.00  0.00    +0.002 C 
ATOM      5  C   UNL     1      34.973 -23.398 -12.633  0.00  0.00    +0.020 C 
ATOM      6  C   UNL     1      35.496 -25.198 -14.157  0.00  0.00    +0.020 C 
ENDROOT
BRANCH   1   9
ATOM      7  O   UNL     1      30.591 -22.904 -16.326  0.00  0.00    -0.358 OA
ATOM      8  N   UNL     1      31.449 -22.327 -17.253  0.00  0.00    -0.077 NA
ATOM      9  C   UNL     1      32.650 -23.227 -15.546  0.00  0.00    +0.054 A 
ATOM     10  C   UNL     1      32.675 -22.533 -16.765  0.00  0.00    +0.123 A 
ATOM     11  C   UNL     1      31.320 -23.437 -15.312  0.00  0.00    +0.155 A 
ATOM     12  C   UNL     1      30.554 -24.091 -14.240  0.00  0.00    +0.075 C 
BRANCH  10  13
ATOM     13  C   UNL     1      33.829 -22.058 -17.483  0.00  0.00    +0.021 C 
ATOM     14  C   UNL     1      35.047 -21.914 -16.821  0.00  0.00    +0.002 C 
ATOM     15  C   UNL     1      33.724 -21.742 -18.835  0.00  0.00    +0.002 C 
ATOM     16  C   UNL     1      36.164 -21.453 -17.517  0.00  0.00    +0.000 C 
ATOM     17  C   UNL     1      34.841 -21.282 -19.531  0.00  0.00    +0.000 C 
ATOM     18  C   UNL     1      36.063 -21.136 -18.872  0.00  0.00    +0.000 C 
ENDBRANCH  10  13
ENDBRANCH   1   9
BRANCH   2  19
ATOM     19  S   UNL     1      37.024 -25.039 -11.906  0.00  0.00    +0.076 S 
ATOM     20  O   UNL     1      36.579 -26.281 -11.304  0.00  0.00    -0.150 OA
ATOM     21  O   UNL     1      37.416 -23.917 -11.077  0.00  0.00    -0.150 OA
BRANCH  19  23
ATOM     22  O   UNL     1      38.267 -23.341 -14.209  0.00  0.00    -0.274 OA
ATOM     23  N   UNL     1      38.268 -25.372 -13.032  0.00  0.00    -0.185 N 
ATOM     24  C   UNL     1      38.710 -24.474 -14.057  0.00  0.00    +0.241 C 
ATOM     25  H   UNL     1      38.714 -26.248 -12.972  0.00  0.00    +0.177 HD
BRANCH  24  26
ATOM     26  C   UNL     1      39.762 -25.058 -14.967  0.00  0.00    +0.087 C 
ATOM     27  C   UNL     1      40.539 -26.147 -14.253  0.00  0.00    +0.010 C 
ENDBRANCH  24  26
ENDBRANCH  19  23
ENDBRANCH   2  19
TORSDOF 5
ENDMDL
MODEL 2
REMARK VINA RESULT:     -10.7      1.925      4.392
REMARK  Name = 119828
REMARK  5 active torsions:
REMARK  status: ('A' for Active; 'I' for Inactive)
REMARK    1  A    between atoms: C_1  and  C_9
REMARK    2  A    between atoms: C_2  and  S_19
REMARK    3  A    between atoms: C_10  and  C_13
REMARK    4  A    between atoms: S_19  and  N_23
REMARK    5  A    between atoms: C_24  and  C_26
REMARK                            x       y       z     vdW  Elec       q    Type
REMARK                         _______ _______ _______ _____ _____    ______ ____
ROOT
ATOM      1  C   UNL     1      34.333 -23.115 -16.084  0.00  0.00    +0.004 C 
ATOM      2  C   UNL     1      36.458 -24.103 -14.611  0.00  0.00    +0.125 C 
ATOM      3  C   UNL     1      35.540 -22.416 -16.047  0.00  0.00    +0.002 C 
ATOM      4  C   UNL     1      34.197 -24.310 -15.379  0.00  0.00    +0.002 C 
ATOM      5  C   UNL     1      36.612 -22.915 -15.306  0.00  0.00    +0.020 C 
ATOM      6  C   UNL     1      35.268 -24.808 -14.636  0.00  0.00    +0.020 C 
ENDROOT
BRANCH   1   9
ATOM      7  O   UNL     1      32.130 -21.649 -18.532  0.00  0.00    -0.358 OA
ATOM      8  N   UNL     1      31.171 -21.981 -17.583  0.00  0.00    -0.077 NA
ATOM      9  C   UNL     1      33.230 -22.603 -16.849  0.00  0.00    +0.054 A 
ATOM     10  C   UNL     1      31.854 -22.550 -16.586  0.00  0.00    +0.123 A 
ATOM     11  C   UNL     1      33.354 -22.026 -18.083  0.00  0.00    +0.155 A 
ATOM     12  C   UNL     1      34.486 -21.743 -18.977  0.00  0.00    +0.075 C 
BRANCH  10  13
ATOM     13  C   UNL     1      31.164 -23.023 -15.414  0.00  0.00    +0.021 C 
ATOM     14  C   UNL     1      31.420 -22.441 -14.175  0.00  0.00    +0.002 C 
ATOM     15  C   UNL     1      30.244 -24.064 -15.523  0.00  0.00    +0.002 C 
ATOM     16  C   UNL     1      30.752 -22.900 -13.040  0.00  0.00    +0.000 C 
ATOM     17  C   UNL     1      29.575 -24.523 -14.389  0.00  0.00    +0.000 C 
ATOM     18  C   UNL     1      29.830 -23.942 -13.146  0.00  0.00    +0.000 C 
ENDBRANCH  10  13
ENDBRANCH   1   9
BRANCH   2  19
ATOM     19  S   UNL     1      37.816 -24.733 -13.671  0.00  0.00    +0.076 S 
ATOM     20  O   UNL     1      38.917 -23.809 -13.857  0.00  0.00    -0.150 OA
ATOM     21  O   UNL     1      37.972 -26.139 -13.988  0.00  0.00    -0.150 OA
BRANCH  19  23
ATOM     22  O   UNL     1      36.774 -22.268 -12.067  0.00  0.00    -0.274 OA
ATOM     23  N   UNL     1      37.210 -24.575 -12.079  0.00  0.00    -0.185 N 
ATOM     24  C   UNL     1      36.787 -23.344 -11.480  0.00  0.00    +0.241 C 
ATOM     25  H   UNL     1      37.148 -25.392 -11.533  0.00  0.00    +0.177 HD
BRANCH  24  26
ATOM     26  C   UNL     1      36.380 -23.478 -10.033  0.00  0.00    +0.087 C 
ATOM     27  C   UNL     1      35.048 -24.195  -9.920  0.00  0.00    +0.010 C 
ENDBRANCH  24  26
ENDBRANCH  19  23
ENDBRANCH   2  19
TORSDOF 5
ENDMDL
MODEL 3
REMARK VINA RESULT:     -10.6      1.245      3.702
REMARK  Name = 119828
REMARK  5 active torsions:
REMARK  status: ('A' for Active; 'I' for Inactive)
REMARK    1  A    between atoms: C_1  and  C_9
REMARK    2  A    between atoms: C_2  and  S_19
REMARK    3  A    between atoms: C_10  and  C_13
REMARK    4  A    between atoms: S_19  and  N_23
REMARK    5  A    between atoms: C_24  and  C_26
REMARK                            x       y       z     vdW  Elec       q    Type
REMARK                         _______ _______ _______ _____ _____    ______ ____
ROOT
ATOM      1  C   UNL     1      34.310 -22.994 -15.412  0.00  0.00    +0.004 C 
ATOM      2  C   UNL     1      36.209 -23.600 -13.492  0.00  0.00    +0.125 C 
ATOM      3  C   UNL     1      35.079 -21.977 -14.847  0.00  0.00    +0.002 C 
ATOM      4  C   UNL     1      34.497 -24.315 -15.009  0.00  0.00    +0.002 C 
ATOM      5  C   UNL     1      36.037 -22.282 -13.880  0.00  0.00    +0.020 C 
ATOM      6  C   UNL     1      35.453 -24.621 -14.041  0.00  0.00    +0.020 C 
ENDROOT
BRANCH   1   9
ATOM      7  O   UNL     1      32.469 -21.990 -18.345  0.00  0.00    -0.358 OA
ATOM      8  N   UNL     1      31.389 -22.378 -17.562  0.00  0.00    -0.077 NA
ATOM      9  C   UNL     1      33.325 -22.680 -16.409  0.00  0.00    +0.054 A 
ATOM     10  C   UNL     1      31.927 -22.787 -16.409  0.00  0.00    +0.123 A 
ATOM     11  C   UNL     1      33.618 -22.175 -17.646  0.00  0.00    +0.155 A 
ATOM     12  C   UNL     1      34.861 -21.809 -18.339  0.00  0.00    +0.075 C 
BRANCH  10  13
ATOM     13  C   UNL     1      31.082 -23.267 -15.346  0.00  0.00    +0.021 C 
ATOM     14  C   UNL     1      31.248 -22.777 -14.053  0.00  0.00    +0.002 C 
ATOM     15  C   UNL     1      30.101 -24.220 -15.615  0.00  0.00    +0.002 C 
ATOM     16  C   UNL     1      30.430 -23.243 -13.024  0.00  0.00    +0.000 C 
ATOM     17  C   UNL     1      29.282 -24.684 -14.586  0.00  0.00    +0.000 C 
ATOM     18  C   UNL     1      29.447 -24.196 -13.289  0.00  0.00    +0.000 C 
ENDBRANCH  10  13
ENDBRANCH   1   9
BRANCH   2  19
ATOM     19  S   UNL     1      37.422 -23.986 -12.265  0.00  0.00    +0.076 S 
ATOM     20  O   UNL     1      36.773 -24.842 -11.291  0.00  0.00    -0.150 OA
ATOM     21  O   UNL     1      38.058 -22.750 -11.853  0.00  0.00    -0.150 OA
BRANCH  19  23
ATOM     22  O   UNL     1      38.919 -23.407 -14.941  0.00  0.00    -0.274 OA
ATOM     23  N   UNL     1      38.529 -24.914 -13.183  0.00  0.00    -0.185 N 
ATOM     24  C   UNL     1      39.116 -24.500 -14.422  0.00  0.00    +0.241 C 
ATOM     25  H   UNL     1      38.780 -25.798 -12.833  0.00  0.00    +0.177 HD
BRANCH  24  26
ATOM     26  C   UNL     1      39.990 -25.551 -15.063  0.00  0.00    +0.087 C 
ATOM     27  C   UNL     1      40.642 -26.418 -14.004  0.00  0.00    +0.010 C 
ENDBRANCH  24  26
ENDBRANCH  19  23
ENDBRANCH   2  19
TORSDOF 5
ENDMDL
MODEL 4
REMARK VINA RESULT:     -10.2      1.889      2.975
REMARK  Name = 119828
REMARK  5 active torsions:
REMARK  status: ('A' for Active; 'I' for Inactive)
REMARK    1  A    between atoms: C_1  and  C_9
REMARK    2  A    between atoms: C_2  and  S_19
REMARK    3  A    between atoms: C_10  and  C_13
REMARK    4  A    between atoms: S_19  and  N_23
REMARK    5  A    between atoms: C_24  and  C_26
REMARK                            x       y       z     vdW  Elec       q    Type
REMARK                         _______ _______ _______ _____ _____    ______ ____
ROOT
ATOM      1  C   UNL     1      33.847 -23.019 -15.969  0.00  0.00    +0.004 C 
ATOM      2  C   UNL     1      36.288 -23.784 -14.912  0.00  0.00    +0.125 C 
ATOM      3  C   UNL     1      34.808 -22.055 -15.667  0.00  0.00    +0.002 C 
ATOM      4  C   UNL     1      34.115 -24.368 -15.737  0.00  0.00    +0.002 C 
ATOM      5  C   UNL     1      36.039 -22.441 -15.136  0.00  0.00    +0.020 C 
ATOM      6  C   UNL     1      35.344 -24.753 -15.204  0.00  0.00    +0.020 C 
ENDROOT
BRANCH   1   9
ATOM      7  O   UNL     1      30.374 -22.399 -16.714  0.00  0.00    -0.358 OA
ATOM      8  N   UNL     1      30.926 -21.751 -17.812  0.00  0.00    -0.077 NA
ATOM      9  C   UNL     1      32.580 -22.622 -16.519  0.00  0.00    +0.054 A 
ATOM     10  C   UNL     1      32.247 -21.899 -17.672  0.00  0.00    +0.123 A 
ATOM     11  C   UNL     1      31.371 -22.914 -15.950  0.00  0.00    +0.155 A 
ATOM     12  C   UNL     1      30.951 -23.637 -14.741  0.00  0.00    +0.075 C 
BRANCH  10  13
ATOM     13  C   UNL     1      33.144 -21.340 -18.650  0.00  0.00    +0.021 C 
ATOM     14  C   UNL     1      32.662 -20.445 -19.603  0.00  0.00    +0.002 C 
ATOM     15  C   UNL     1      34.490 -21.699 -18.642  0.00  0.00    +0.002 C 
ATOM     16  C   UNL     1      33.531 -19.905 -20.550  0.00  0.00    +0.000 C 
ATOM     17  C   UNL     1      35.360 -21.158 -19.589  0.00  0.00    +0.000 C 
ATOM     18  C   UNL     1      34.880 -20.261 -20.545  0.00  0.00    +0.000 C 
ENDBRANCH  10  13
ENDBRANCH   1   9
BRANCH   2  19
ATOM     19  S   UNL     1      37.847 -24.272 -14.236  0.00  0.00    +0.076 S 
ATOM     20  O   UNL     1      38.852 -23.430 -14.856  0.00  0.00    -0.150 OA
ATOM     21  O   UNL     1      37.943 -25.716 -14.317  0.00  0.00    -0.150 OA
BRANCH  19  23
ATOM     22  O   UNL     1      35.992 -25.341 -11.967  0.00  0.00    -0.274 OA
ATOM     23  N   UNL     1      37.652 -23.807 -12.601  0.00  0.00    -0.185 N 
ATOM     24  C   UNL     1      36.723 -24.399 -11.685  0.00  0.00    +0.241 C 
ATOM     25  H   UNL     1      38.221 -23.078 -12.265  0.00  0.00    +0.177 HD
BRANCH  24  26
ATOM     26  C   UNL     1      36.699 -23.737 -10.329  0.00  0.00    +0.087 C 
ATOM     27  C   UNL     1      35.345 -23.922  -9.672  0.00  0.00    +0.010 C 
ENDBRANCH  24  26
ENDBRANCH  19  23
ENDBRANCH   2  19
TORSDOF 5
ENDMDL
MODEL 5
REMARK VINA RESULT:      -9.8      2.878      6.588
REMARK  Name = 119828
REMARK  5 active torsions:
REMARK  status: ('A' for Active; 'I' for Inactive)
REMARK    1  A    between atoms: C_1  and  C_9
REMARK    2  A    between atoms: C_2  and  S_19
REMARK    3  A    between atoms: C_10  and  C_13
REMARK    4  A    between atoms: S_19  and  N_23
REMARK    5  A    between atoms: C_24  and  C_26
REMARK                            x       y       z     vdW  Elec       q    Type
REMARK                         _______ _______ _______ _____ _____    ______ ____
ROOT
ATOM      1  C   UNL     1      34.288 -23.068 -14.891  0.00  0.00    +0.004 C 
ATOM      2  C   UNL     1      31.727 -23.834 -14.176  0.00  0.00    +0.125 C 
ATOM      3  C   UNL     1      34.022 -24.400 -14.577  0.00  0.00    +0.002 C 
ATOM      4  C   UNL     1      33.264 -22.122 -14.844  0.00  0.00    +0.002 C 
ATOM      5  C   UNL     1      32.730 -24.787 -14.218  0.00  0.00    +0.020 C 
ATOM      6  C   UNL     1      31.974 -22.508 -14.483  0.00  0.00    +0.020 C 
ENDROOT
BRANCH   1   9
ATOM      7  O   UNL     1      37.814 -22.347 -15.107  0.00  0.00    -0.358 OA
ATOM      8  N   UNL     1      37.442 -21.870 -16.357  0.00  0.00    -0.077 NA
ATOM      9  C   UNL     1      35.617 -22.669 -15.263  0.00  0.00    +0.054 A 
ATOM     10  C   UNL     1      36.124 -22.074 -16.427  0.00  0.00    +0.123 A 
ATOM     11  C   UNL     1      36.716 -22.822 -14.464  0.00  0.00    +0.155 A 
ATOM     12  C   UNL     1      36.942 -23.368 -13.118  0.00  0.00    +0.075 C 
BRANCH  10  13
ATOM     13  C   UNL     1      35.394 -21.690 -17.608  0.00  0.00    +0.021 C 
ATOM     14  C   UNL     1      36.013 -20.909 -18.582  0.00  0.00    +0.002 C 
ATOM     15  C   UNL     1      34.072 -22.099 -17.771  0.00  0.00    +0.002 C 
ATOM     16  C   UNL     1      35.305 -20.537 -19.725  0.00  0.00    +0.000 C 
ATOM     17  C   UNL     1      33.366 -21.728 -18.915  0.00  0.00    +0.000 C 
ATOM     18  C   UNL     1      33.982 -20.945 -19.892  0.00  0.00    +0.000 C 
ENDBRANCH  10  13
ENDBRANCH   1   9
BRANCH   2  19
ATOM     19  S   UNL     1      30.091 -24.325 -13.719  0.00  0.00    +0.076 S 
ATOM     20  O   UNL     1      30.003 -24.194 -12.277  0.00  0.00    -0.150 OA
ATOM     21  O   UNL     1      29.802 -25.590 -14.363  0.00  0.00    -0.150 OA
BRANCH  19  23
ATOM     22  O   UNL     1      28.161 -24.340 -16.171  0.00  0.00    -0.274 OA
ATOM     23  N   UNL     1      29.163 -23.090 -14.455  0.00  0.00    -0.185 N 
ATOM     24  C   UNL     1      28.332 -23.264 -15.608  0.00  0.00    +0.241 C 
ATOM     25  H   UNL     1      29.204 -22.191 -14.055  0.00  0.00    +0.177 HD
BRANCH  24  26
ATOM     26  C   UNL     1      27.696 -21.988 -16.100  0.00  0.00    +0.087 C 
ATOM     27  C   UNL     1      26.297 -21.839 -15.534  0.00  0.00    +0.010 C 
ENDBRANCH  24  26
ENDBRANCH  19  23
ENDBRANCH   2  19
TORSDOF 5
ENDMDL
MODEL 6
REMARK VINA RESULT:      -9.8      3.186      7.435
REMARK  Name = 119828
REMARK  5 active torsions:
REMARK  status: ('A' for Active; 'I' for Inactive)
REMARK    1  A    between atoms: C_1  and  C_9
REMARK    2  A    between atoms: C_2  and  S_19
REMARK    3  A    between atoms: C_10  and  C_13
REMARK    4  A    between atoms: S_19  and  N_23
REMARK    5  A    between atoms: C_24  and  C_26
REMARK                            x       y       z     vdW  Elec       q    Type
REMARK                         _______ _______ _______ _____ _____    ______ ____
ROOT
ATOM      1  C   UNL     1      33.894 -22.912 -15.586  0.00  0.00    +0.004 C 
ATOM      2  C   UNL     1      31.357 -23.746 -14.856  0.00  0.00    +0.125 C 
ATOM      3  C   UNL     1      33.687 -23.505 -14.341  0.00  0.00    +0.002 C 
ATOM      4  C   UNL     1      32.823 -22.738 -16.462  0.00  0.00    +0.002 C 
ATOM      5  C   UNL     1      32.409 -23.927 -13.973  0.00  0.00    +0.020 C 
ATOM      6  C   UNL     1      31.545 -23.157 -16.094  0.00  0.00    +0.020 C 
ENDROOT
BRANCH   1   9
ATOM      7  O   UNL     1      36.830 -21.579 -17.198  0.00  0.00    -0.358 OA
ATOM      8  N   UNL     1      37.437 -22.027 -16.031  0.00  0.00    -0.077 NA
ATOM      9  C   UNL     1      35.210 -22.480 -15.966  0.00  0.00    +0.054 A 
ATOM     10  C   UNL     1      36.447 -22.562 -15.311  0.00  0.00    +0.123 A 
ATOM     11  C   UNL     1      35.502 -21.854 -17.147  0.00  0.00    +0.155 A 
ATOM     12  C   UNL     1      34.711 -21.441 -18.315  0.00  0.00    +0.075 C 
BRANCH  10  13
ATOM     13  C   UNL     1      36.721 -23.134 -14.018  0.00  0.00    +0.021 C 
ATOM     14  C   UNL     1      37.122 -24.464 -13.919  0.00  0.00    +0.002 C 
ATOM     15  C   UNL     1      36.582 -22.355 -12.871  0.00  0.00    +0.002 C 
ATOM     16  C   UNL     1      37.387 -25.018 -12.666  0.00  0.00    +0.000 C 
ATOM     17  C   UNL     1      36.847 -22.909 -11.618  0.00  0.00    +0.000 C 
ATOM     18  C   UNL     1      37.249 -24.241 -11.516  0.00  0.00    +0.000 C 
ENDBRANCH  10  13
ENDBRANCH   1   9
BRANCH   2  19
ATOM     19  S   UNL     1      29.738 -24.278 -14.388  0.00  0.00    +0.076 S 
ATOM     20  O   UNL     1      29.676 -24.205 -12.941  0.00  0.00    -0.150 OA
ATOM     21  O   UNL     1      29.455 -25.522 -15.076  0.00  0.00    -0.150 OA
BRANCH  19  23
ATOM     22  O   UNL     1      27.614 -24.272 -16.674  0.00  0.00    -0.274 OA
ATOM     23  N   UNL     1      28.779 -23.030 -15.058  0.00  0.00    -0.185 N 
ATOM     24  C   UNL     1      27.853 -23.196 -16.138  0.00  0.00    +0.241 C 
ATOM     25  H   UNL     1      28.871 -22.129 -14.672  0.00  0.00    +0.177 HD
BRANCH  24  26
ATOM     26  C   UNL     1      27.204 -21.910 -16.588  0.00  0.00    +0.087 C 
ATOM     27  C   UNL     1      25.931 -21.654 -15.805  0.00  0.00    +0.010 C 
ENDBRANCH  24  26
ENDBRANCH  19  23
ENDBRANCH   2  19
TORSDOF 5
ENDMDL
MODEL 7
REMARK VINA RESULT:      -9.7      3.028      6.762
REMARK  Name = 119828
REMARK  5 active torsions:
REMARK  status: ('A' for Active; 'I' for Inactive)
REMARK    1  A    between atoms: C_1  and  C_9
REMARK    2  A    between atoms: C_2  and  S_19
REMARK    3  A    between atoms: C_10  and  C_13
REMARK    4  A    between atoms: S_19  and  N_23
REMARK    5  A    between atoms: C_24  and  C_26
REMARK                            x       y       z     vdW  Elec       q    Type
REMARK                         _______ _______ _______ _____ _____    ______ ____
ROOT
ATOM      1  C   UNL     1      34.366 -23.226 -14.721  0.00  0.00    +0.004 C 
ATOM      2  C   UNL     1      33.900 -22.399 -17.320  0.00  0.00    +0.125 C 
ATOM      3  C   UNL     1      33.155 -23.529 -15.341  0.00  0.00    +0.002 C 
ATOM      4  C   UNL     1      35.342 -22.506 -15.410  0.00  0.00    +0.002 C 
ATOM      5  C   UNL     1      32.920 -23.114 -16.652  0.00  0.00    +0.020 C 
ATOM      6  C   UNL     1      35.107 -22.089 -16.719  0.00  0.00    +0.020 C 
ENDROOT
BRANCH   1   9
ATOM      7  O   UNL     1      34.255 -24.001 -11.201  0.00  0.00    -0.358 OA
ATOM      8  N   UNL     1      35.514 -24.522 -11.475  0.00  0.00    -0.077 NA
ATOM      9  C   UNL     1      34.609 -23.656 -13.372  0.00  0.00    +0.054 A 
ATOM     10  C   UNL     1      35.702 -24.304 -12.779  0.00  0.00    +0.123 A 
ATOM     11  C   UNL     1      33.726 -23.487 -12.341  0.00  0.00    +0.155 A 
ATOM     12  C   UNL     1      32.387 -22.892 -12.221  0.00  0.00    +0.075 C 
BRANCH  10  13
ATOM     13  C   UNL     1      36.925 -24.724 -13.413  0.00  0.00    +0.021 C 
ATOM     14  C   UNL     1      36.906 -25.771 -14.332  0.00  0.00    +0.002 C 
ATOM     15  C   UNL     1      38.123 -24.085 -13.103  0.00  0.00    +0.002 C 
ATOM     16  C   UNL     1      38.090 -26.178 -14.946  0.00  0.00    +0.000 C 
ATOM     17  C   UNL     1      39.308 -24.491 -13.717  0.00  0.00    +0.000 C 
ATOM     18  C   UNL     1      39.292 -25.539 -14.638  0.00  0.00    +0.000 C 
ENDBRANCH  10  13
ENDBRANCH   1   9
BRANCH   2  19
ATOM     19  S   UNL     1      33.600 -21.872 -18.981  0.00  0.00    +0.076 S 
ATOM     20  O   UNL     1      32.365 -21.113 -18.961  0.00  0.00    -0.150 OA
ATOM     21  O   UNL     1      33.747 -23.019 -19.854  0.00  0.00    -0.150 OA
BRANCH  19  23
ATOM     22  O   UNL     1      34.132 -19.668 -21.125  0.00  0.00    -0.274 OA
ATOM     23  N   UNL     1      34.914 -20.803 -19.224  0.00  0.00    -0.185 N 
ATOM     24  C   UNL     1      35.011 -19.851 -20.290  0.00  0.00    +0.241 C 
ATOM     25  H   UNL     1      35.660 -20.847 -18.584  0.00  0.00    +0.177 HD
BRANCH  24  26
ATOM     26  C   UNL     1      36.319 -19.098 -20.318  0.00  0.00    +0.087 C 
ATOM     27  C   UNL     1      36.390 -18.201 -21.539  0.00  0.00    +0.010 C 
ENDBRANCH  24  26
ENDBRANCH  19  23
ENDBRANCH   2  19
TORSDOF 5
ENDMDL
MODEL 8
REMARK VINA RESULT:      -9.5     11.587     15.188
REMARK  Name = 119828
REMARK  5 active torsions:
REMARK  status: ('A' for Active; 'I' for Inactive)
REMARK    1  A    between atoms: C_1  and  C_9
REMARK    2  A    between atoms: C_2  and  S_19
REMARK    3  A    between atoms: C_10  and  C_13
REMARK    4  A    between atoms: S_19  and  N_23
REMARK    5  A    between atoms: C_24  and  C_26
REMARK                            x       y       z     vdW  Elec       q    Type
REMARK                         _______ _______ _______ _____ _____    ______ ____
ROOT
ATOM      1  C   UNL     1      32.473 -12.556 -23.339  0.00  0.00    +0.004 C 
ATOM      2  C   UNL     1      31.760 -10.703 -21.411  0.00  0.00    +0.125 C 
ATOM      3  C   UNL     1      32.924 -11.240 -23.437  0.00  0.00    +0.002 C 
ATOM      4  C   UNL     1      31.662 -12.937 -22.270  0.00  0.00    +0.002 C 
ATOM      5  C   UNL     1      32.566 -10.306 -22.464  0.00  0.00    +0.020 C 
ATOM      6  C   UNL     1      31.302 -12.004 -21.299  0.00  0.00    +0.020 C 
ENDROOT
BRANCH   1   9
ATOM      7  O   UNL     1      33.095 -14.438 -26.350  0.00  0.00    -0.358 OA
ATOM      8  N   UNL     1      33.626 -15.346 -25.441  0.00  0.00    -0.077 NA
ATOM      9  C   UNL     1      32.844 -13.518 -24.339  0.00  0.00    +0.054 A 
ATOM     10  C   UNL     1      33.464 -14.773 -24.245  0.00  0.00    +0.123 A 
ATOM     11  C   UNL     1      32.633 -13.353 -25.679  0.00  0.00    +0.155 A 
ATOM     12  C   UNL     1      32.035 -12.291 -26.503  0.00  0.00    +0.075 C 
BRANCH  10  13
ATOM     13  C   UNL     1      33.909 -15.447 -23.054  0.00  0.00    +0.021 C 
ATOM     14  C   UNL     1      34.418 -16.741 -23.138  0.00  0.00    +0.002 C 
ATOM     15  C   UNL     1      33.826 -14.805 -21.820  0.00  0.00    +0.002 C 
ATOM     16  C   UNL     1      34.849 -17.394 -21.983  0.00  0.00    +0.000 C 
ATOM     17  C   UNL     1      34.257 -15.458 -20.665  0.00  0.00    +0.000 C 
ATOM     18  C   UNL     1      34.768 -16.754 -20.747  0.00  0.00    +0.000 C 
ENDBRANCH  10  13
ENDBRANCH   1   9
BRANCH   2  19
ATOM     19  S   UNL     1      31.305  -9.518 -20.180  0.00  0.00    +0.076 S 
ATOM     20  O   UNL     1      32.194  -9.723 -19.054  0.00  0.00    -0.150 OA
ATOM     21  O   UNL     1      29.867  -9.577 -20.005  0.00  0.00    -0.150 OA
BRANCH  19  23
ATOM     22  O   UNL     1      31.897  -6.654 -19.092  0.00  0.00    -0.274 OA
ATOM     23  N   UNL     1      31.719  -8.056 -20.967  0.00  0.00    -0.185 N 
ATOM     24  C   UNL     1      31.939  -6.803 -20.308  0.00  0.00    +0.241 C 
ATOM     25  H   UNL     1      31.812  -8.078 -21.947  0.00  0.00    +0.177 HD
BRANCH  24  26
ATOM     26  C   UNL     1      32.205  -5.657 -21.252  0.00  0.00    +0.087 C 
ATOM     27  C   UNL     1      33.223  -6.057 -22.302  0.00  0.00    +0.010 C 
ENDBRANCH  24  26
ENDBRANCH  19  23
ENDBRANCH   2  19
TORSDOF 5
ENDMDL
MODEL 9
REMARK VINA RESULT:      -9.5     11.608     15.198
REMARK  Name = 119828
REMARK  5 active torsions:
REMARK  status: ('A' for Active; 'I' for Inactive)
REMARK    1  A    between atoms: C_1  and  C_9
REMARK    2  A    between atoms: C_2  and  S_19
REMARK    3  A    between atoms: C_10  and  C_13
REMARK    4  A    between atoms: S_19  and  N_23
REMARK    5  A    between atoms: C_24  and  C_26
REMARK                            x       y       z     vdW  Elec       q    Type
REMARK                         _______ _______ _______ _____ _____    ______ ____
ROOT
ATOM      1  C   UNL     1      32.485 -12.533 -23.328  0.00  0.00    +0.004 C 
ATOM      2  C   UNL     1      31.781 -10.668 -21.408  0.00  0.00    +0.125 C 
ATOM      3  C   UNL     1      31.641 -12.898 -22.279  0.00  0.00    +0.002 C 
ATOM      4  C   UNL     1      32.975 -11.230 -23.408  0.00  0.00    +0.002 C 
ATOM      5  C   UNL     1      31.285 -11.957 -21.311  0.00  0.00    +0.020 C 
ATOM      6  C   UNL     1      32.620 -10.290 -22.441  0.00  0.00    +0.020 C 
ENDROOT
BRANCH   1   9
ATOM      7  O   UNL     1      33.096 -14.428 -26.333  0.00  0.00    -0.358 OA
ATOM      8  N   UNL     1      33.622 -15.335 -25.422  0.00  0.00    -0.077 NA
ATOM      9  C   UNL     1      32.850 -13.500 -24.325  0.00  0.00    +0.054 A 
ATOM     10  C   UNL     1      33.463 -14.757 -24.228  0.00  0.00    +0.123 A 
ATOM     11  C   UNL     1      32.639 -13.338 -25.666  0.00  0.00    +0.155 A 
ATOM     12  C   UNL     1      32.047 -12.276 -26.493  0.00  0.00    +0.075 C 
BRANCH  10  13
ATOM     13  C   UNL     1      33.905 -15.431 -23.034  0.00  0.00    +0.021 C 
ATOM     14  C   UNL     1      33.822 -14.785 -21.803  0.00  0.00    +0.002 C 
ATOM     15  C   UNL     1      34.416 -16.724 -23.116  0.00  0.00    +0.002 C 
ATOM     16  C   UNL     1      34.251 -15.438 -20.647  0.00  0.00    +0.000 C 
ATOM     17  C   UNL     1      34.844 -17.377 -21.960  0.00  0.00    +0.000 C 
ATOM     18  C   UNL     1      34.763 -16.733 -20.724  0.00  0.00    +0.000 C 
ENDBRANCH  10  13
ENDBRANCH   1   9
BRANCH   2  19
ATOM     19  S   UNL     1      31.331  -9.478 -20.180  0.00  0.00    +0.076 S 
ATOM     20  O   UNL     1      32.252  -9.650 -19.074  0.00  0.00    -0.150 OA
ATOM     21  O   UNL     1      29.900  -9.565 -19.969  0.00  0.00    -0.150 OA
BRANCH  19  23
ATOM     22  O   UNL     1      32.137  -6.649 -19.139  0.00  0.00    -0.274 OA
ATOM     23  N   UNL     1      31.695  -8.017 -20.995  0.00  0.00    -0.185 N 
ATOM     24  C   UNL     1      32.030  -6.782 -20.353  0.00  0.00    +0.241 C 
ATOM     25  H   UNL     1      31.671  -8.028 -21.979  0.00  0.00    +0.177 HD
BRANCH  24  26
ATOM     26  C   UNL     1      32.218  -5.630 -21.310  0.00  0.00    +0.087 C 
ATOM     27  C   UNL     1      33.221  -5.991 -22.388  0.00  0.00    +0.010 C 
ENDBRANCH  24  26
ENDBRANCH  19  23
ENDBRANCH   2  19
TORSDOF 5
ENDMDL
