MODEL 1
REMARK VINA RESULT:     -11.5      0.000      0.000
REMARK  Name = 46916694
REMARK  4 active torsions:
REMARK  status: ('A' for Active; 'I' for Inactive)
REMARK    1  A    between atoms: C_4  and  O_22
REMARK    2  A    between atoms: C_5  and  C_15
REMARK    3  A    between atoms: O_22  and  C_25
REMARK    4  A    between atoms: C_28  and  C_31
REMARK                            x       y       z     vdW  Elec       q    Type
REMARK                         _______ _______ _______ _____ _____    ______ ____
ROOT
ATOM      1  O   UNL     1      30.463 -22.448 -14.501  0.00  0.00    -0.458 OA
ATOM      2  C   UNL     1      31.494 -22.534 -16.509  0.00  0.00    +0.072 C 
ATOM      3  C   UNL     1      31.662 -22.610 -15.130  0.00  0.00    +0.148 C 
ATOM      4  C   UNL     1      32.625 -22.680 -17.332  0.00  0.00    +0.148 C 
ATOM      5  C   UNL     1      33.998 -22.962 -15.339  0.00  0.00    +0.060 C 
ATOM      6  C   UNL     1      30.108 -22.314 -16.718  0.00  0.00    +0.039 C 
ATOM      7  C   UNL     1      32.887 -22.822 -14.502  0.00  0.00    +0.042 C 
ATOM      8  C   UNL     1      29.529 -22.269 -15.471  0.00  0.00    +0.123 C 
ATOM      9  C   UNL     1      33.872 -22.893 -16.729  0.00  0.00    +0.042 C 
ATOM     10  C   UNL     1      28.147 -22.072 -15.011  0.00  0.00    +0.072 C 
ENDROOT
BRANCH   5  15
ATOM     11  O   UNL     1      35.827 -22.278 -14.075  0.00  0.00    -0.270 OA
ATOM     12  N   UNL     1      35.903 -24.423 -15.024  0.00  0.00    -0.268 N 
ATOM     13  N   UNL     1      37.563 -26.139 -14.983  0.00  0.00    -0.252 NA
ATOM     14  N   UNL     1      39.182 -24.474 -13.410  0.00  0.00    -0.269 NA
ATOM     15  C   UNL     1      35.310 -23.184 -14.750  0.00  0.00    +0.251 C 
ATOM     16  C   UNL     1      37.169 -24.905 -14.613  0.00  0.00    +0.131 C 
ATOM     17  C   UNL     1      37.965 -24.087 -13.839  0.00  0.00    +0.185 C 
ATOM     18  C   UNL     1      39.576 -25.709 -13.781  0.00  0.00    +0.057 C 
ATOM     19  C   UNL     1      38.780 -26.527 -14.554  0.00  0.00    +0.167 C 
ATOM     20  C   UNL     1      40.916 -26.170 -13.325  0.00  0.00    +0.049 C 
ATOM     21  H   UNL     1      35.369 -25.040 -15.576  0.00  0.00    +0.156 HD
ENDBRANCH   5  15
BRANCH   4  22
ATOM     22  O   UNL     1      32.533 -22.613 -18.695  0.00  0.00    -0.454 OA
BRANCH  22  25
ATOM     23  N   UNL     1      34.960 -20.204 -20.025  0.00  0.00    -0.186 NA
ATOM     24  N   UNL     1      32.730 -19.407 -20.470  0.00  0.00    -0.208 NA
ATOM     25  C   UNL     1      33.057 -21.494 -19.314  0.00  0.00    +0.168 C 
ATOM     26  C   UNL     1      34.416 -21.284 -19.427  0.00  0.00    +0.145 C 
ATOM     27  C   UNL     1      32.254 -20.512 -19.859  0.00  0.00    +0.202 C 
ATOM     28  C   UNL     1      34.073 -19.319 -20.517  0.00  0.00    +0.087 C 
BRANCH  28  31
ATOM     29  O   UNL     1      35.305 -17.379 -20.465  0.00  0.00    -0.259 OA
ATOM     30  N   UNL     1      34.371 -17.936 -22.535  0.00  0.00    -0.265 N 
ATOM     31  C   UNL     1      34.622 -18.143 -21.164  0.00  0.00    +0.312 C 
ATOM     32  C   UNL     1      33.561 -18.858 -23.326  0.00  0.00    +0.116 C 
ATOM     33  C   UNL     1      34.902 -16.786 -23.254  0.00  0.00    +0.116 C 
ENDBRANCH  28  31
ENDBRANCH  22  25
ENDBRANCH   4  22
TORSDOF 4
ENDMDL
MODEL 2
REMARK VINA RESULT:     -11.0      2.583      8.058
REMARK  Name = 46916694
REMARK  4 active torsions:
REMARK  status: ('A' for Active; 'I' for Inactive)
REMARK    1  A    between atoms: C_4  and  O_22
REMARK    2  A    between atoms: C_5  and  C_15
REMARK    3  A    between atoms: O_22  and  C_25
REMARK    4  A    between atoms: C_28  and  C_31
REMARK                            x       y       z     vdW  Elec       q    Type
REMARK                         _______ _______ _______ _____ _____    ______ ____
ROOT
ATOM      1  O   UNL     1      39.063 -24.096 -14.775  0.00  0.00    -0.458 OA
ATOM      2  C   UNL     1      36.904 -23.622 -14.311  0.00  0.00    +0.072 C 
ATOM      3  C   UNL     1      37.996 -23.321 -15.119  0.00  0.00    +0.148 C 
ATOM      4  C   UNL     1      35.702 -22.921 -14.517  0.00  0.00    +0.148 C 
ATOM      5  C   UNL     1      36.775 -21.679 -16.318  0.00  0.00    +0.060 C 
ATOM      6  C   UNL     1      37.346 -24.640 -13.427  0.00  0.00    +0.039 C 
ATOM      7  C   UNL     1      37.978 -22.363 -16.130  0.00  0.00    +0.042 C 
ATOM      8  C   UNL     1      38.660 -24.890 -13.749  0.00  0.00    +0.123 C 
ATOM      9  C   UNL     1      35.655 -21.951 -15.527  0.00  0.00    +0.042 C 
ATOM     10  C   UNL     1      39.667 -25.818 -13.214  0.00  0.00    +0.072 C 
ENDROOT
BRANCH   5  15
ATOM     11  O   UNL     1      37.367 -19.629 -17.245  0.00  0.00    -0.270 OA
ATOM     12  N   UNL     1      35.801 -20.935 -18.406  0.00  0.00    -0.268 N 
ATOM     13  N   UNL     1      34.603 -20.575 -20.441  0.00  0.00    -0.252 NA
ATOM     14  N   UNL     1      35.874 -18.087 -20.697  0.00  0.00    -0.269 NA
ATOM     15  C   UNL     1      36.687 -20.663 -17.356  0.00  0.00    +0.251 C 
ATOM     16  C   UNL     1      35.492 -20.131 -19.531  0.00  0.00    +0.131 C 
ATOM     17  C   UNL     1      36.116 -18.908 -19.657  0.00  0.00    +0.185 C 
ATOM     18  C   UNL     1      34.985 -18.532 -21.607  0.00  0.00    +0.057 C 
ATOM     19  C   UNL     1      34.361 -19.754 -21.482  0.00  0.00    +0.167 C 
ATOM     20  C   UNL     1      34.692 -17.649 -22.771  0.00  0.00    +0.049 C 
ATOM     21  H   UNL     1      35.331 -21.799 -18.357  0.00  0.00    +0.156 HD
ENDBRANCH   5  15
BRANCH   4  22
ATOM     22  O   UNL     1      34.591 -23.163 -13.757  0.00  0.00    -0.454 OA
BRANCH  22  25
ATOM     23  N   UNL     1      31.991 -23.122 -16.344  0.00  0.00    -0.186 NA
ATOM     24  N   UNL     1      31.013 -22.503 -14.231  0.00  0.00    -0.208 NA
ATOM     25  C   UNL     1      33.359 -23.024 -14.368  0.00  0.00    +0.168 C 
ATOM     26  C   UNL     1      33.178 -23.248 -15.717  0.00  0.00    +0.145 C 
ATOM     27  C   UNL     1      32.230 -22.649 -13.668  0.00  0.00    +0.202 C 
ATOM     28  C   UNL     1      30.965 -22.752 -15.554  0.00  0.00    +0.087 C 
BRANCH  28  31
ATOM     29  O   UNL     1      29.520 -21.620 -16.936  0.00  0.00    -0.259 OA
ATOM     30  N   UNL     1      28.677 -23.570 -15.961  0.00  0.00    -0.265 N 
ATOM     31  C   UNL     1      29.674 -22.602 -16.194  0.00  0.00    +0.312 C 
ATOM     32  C   UNL     1      28.894 -24.715 -15.079  0.00  0.00    +0.116 C 
ATOM     33  C   UNL     1      27.362 -23.493 -16.582  0.00  0.00    +0.116 C 
ENDBRANCH  28  31
ENDBRANCH  22  25
ENDBRANCH   4  22
TORSDOF 4
ENDMDL
MODEL 3
REMARK VINA RESULT:     -10.7      2.816      8.312
REMARK  Name = 46916694
REMARK  4 active torsions:
REMARK  status: ('A' for Active; 'I' for Inactive)
REMARK    1  A    between atoms: C_4  and  O_22
REMARK    2  A    between atoms: C_5  and  C_15
REMARK    3  A    between atoms: O_22  and  C_25
REMARK    4  A    between atoms: C_28  and  C_31
REMARK                            x       y       z     vdW  Elec       q    Type
REMARK                         _______ _______ _______ _____ _____    ______ ____
ROOT
ATOM      1  O   UNL     1      37.459 -22.837 -15.280  0.00  0.00    -0.458 OA
ATOM      2  C   UNL     1      35.266 -23.341 -15.075  0.00  0.00    +0.072 C 
ATOM      3  C   UNL     1      36.229 -22.706 -15.853  0.00  0.00    +0.148 C 
ATOM      4  C   UNL     1      33.928 -23.314 -15.508  0.00  0.00    +0.148 C 
ATOM      5  C   UNL     1      34.618 -22.022 -17.455  0.00  0.00    +0.060 C 
ATOM      6  C   UNL     1      35.964 -23.887 -13.967  0.00  0.00    +0.039 C 
ATOM      7  C   UNL     1      35.954 -22.038 -17.044  0.00  0.00    +0.042 C 
ATOM      8  C   UNL     1      37.287 -23.553 -14.138  0.00  0.00    +0.123 C 
ATOM      9  C   UNL     1      33.622 -22.649 -16.703  0.00  0.00    +0.042 C 
ATOM     10  C   UNL     1      38.500 -23.815 -13.351  0.00  0.00    +0.072 C 
ENDROOT
BRANCH   5  15
ATOM     11  O   UNL     1      33.241 -21.699 -19.302  0.00  0.00    -0.270 OA
ATOM     12  N   UNL     1      35.135 -20.327 -19.105  0.00  0.00    -0.268 N 
ATOM     13  N   UNL     1      36.008 -18.588 -20.489  0.00  0.00    -0.252 NA
ATOM     14  N   UNL     1      33.867 -18.980 -22.258  0.00  0.00    -0.269 NA
ATOM     15  C   UNL     1      34.260 -21.340 -18.689  0.00  0.00    +0.251 C 
ATOM     16  C   UNL     1      35.059 -19.518 -20.264  0.00  0.00    +0.131 C 
ATOM     17  C   UNL     1      34.007 -19.710 -21.134  0.00  0.00    +0.185 C 
ATOM     18  C   UNL     1      34.816 -18.050 -22.481  0.00  0.00    +0.057 C 
ATOM     19  C   UNL     1      35.868 -17.857 -21.612  0.00  0.00    +0.167 C 
ATOM     20  C   UNL     1      34.694 -17.225 -23.715  0.00  0.00    +0.049 C 
ATOM     21  H   UNL     1      35.903 -20.156 -18.513  0.00  0.00    +0.156 HD
ENDBRANCH   5  15
BRANCH   4  22
ATOM     22  O   UNL     1      32.931 -23.915 -14.791  0.00  0.00    -0.454 OA
BRANCH  22  25
ATOM     23  N   UNL     1      30.056 -22.426 -16.515  0.00  0.00    -0.186 NA
ATOM     24  N   UNL     1      29.271 -24.108 -14.979  0.00  0.00    -0.208 NA
ATOM     25  C   UNL     1      31.628 -23.656 -15.173  0.00  0.00    +0.168 C 
ATOM     26  C   UNL     1      31.315 -22.703 -16.119  0.00  0.00    +0.145 C 
ATOM     27  C   UNL     1      30.555 -24.335 -14.631  0.00  0.00    +0.202 C 
ATOM     28  C   UNL     1      29.096 -23.154 -15.914  0.00  0.00    +0.087 C 
BRANCH  28  31
ATOM     29  O   UNL     1      27.307 -23.463 -17.322  0.00  0.00    -0.259 OA
ATOM     30  N   UNL     1      26.954 -21.996 -15.537  0.00  0.00    -0.265 N 
ATOM     31  C   UNL     1      27.729 -22.881 -16.312  0.00  0.00    +0.312 C 
ATOM     32  C   UNL     1      27.486 -21.328 -14.352  0.00  0.00    +0.116 C 
ATOM     33  C   UNL     1      25.569 -21.687 -15.868  0.00  0.00    +0.116 C 
ENDBRANCH  28  31
ENDBRANCH  22  25
ENDBRANCH   4  22
TORSDOF 4
ENDMDL
MODEL 4
REMARK VINA RESULT:     -10.4      3.186      7.768
REMARK  Name = 46916694
REMARK  4 active torsions:
REMARK  status: ('A' for Active; 'I' for Inactive)
REMARK    1  A    between atoms: C_4  and  O_22
REMARK    2  A    between atoms: C_5  and  C_15
REMARK    3  A    between atoms: O_22  and  C_25
REMARK    4  A    between atoms: C_28  and  C_31
REMARK                            x       y       z     vdW  Elec       q    Type
REMARK                         _______ _______ _______ _____ _____    ______ ____
ROOT
ATOM      1  O   UNL     1      36.130 -22.676 -12.378  0.00  0.00    -0.458 OA
ATOM      2  C   UNL     1      34.333 -23.622 -13.367  0.00  0.00    +0.072 C 
ATOM      3  C   UNL     1      35.436 -22.794 -13.546  0.00  0.00    +0.148 C 
ATOM      4  C   UNL     1      33.491 -23.867 -14.466  0.00  0.00    +0.148 C 
ATOM      5  C   UNL     1      34.917 -22.439 -15.833  0.00  0.00    +0.060 C 
ATOM      6  C   UNL     1      34.369 -24.026 -12.006  0.00  0.00    +0.039 C 
ATOM      7  C   UNL     1      35.767 -22.184 -14.753  0.00  0.00    +0.042 C 
ATOM      8  C   UNL     1      35.475 -23.425 -11.453  0.00  0.00    +0.123 C 
ATOM      9  C   UNL     1      33.798 -23.265 -15.694  0.00  0.00    +0.042 C 
ATOM     10  C   UNL     1      36.058 -23.441 -10.104  0.00  0.00    +0.072 C 
ENDROOT
BRANCH   5  15
ATOM     11  O   UNL     1      36.385 -21.683 -17.470  0.00  0.00    -0.270 OA
ATOM     12  N   UNL     1      34.087 -21.433 -17.872  0.00  0.00    -0.268 N 
ATOM     13  N   UNL     1      32.870 -20.493 -19.700  0.00  0.00    -0.252 NA
ATOM     14  N   UNL     1      35.304 -19.910 -20.965  0.00  0.00    -0.269 NA
ATOM     15  C   UNL     1      35.202 -21.832 -17.123  0.00  0.00    +0.251 C 
ATOM     16  C   UNL     1      34.056 -20.799 -19.138  0.00  0.00    +0.131 C 
ATOM     17  C   UNL     1      35.252 -20.512 -19.760  0.00  0.00    +0.185 C 
ATOM     18  C   UNL     1      34.117 -19.604 -21.525  0.00  0.00    +0.057 C 
ATOM     19  C   UNL     1      32.921 -19.891 -20.904  0.00  0.00    +0.167 C 
ATOM     20  C   UNL     1      34.136 -18.937 -22.856  0.00  0.00    +0.049 C 
ATOM     21  H   UNL     1      33.210 -21.618 -17.465  0.00  0.00    +0.156 HD
ENDBRANCH   5  15
BRANCH   4  22
ATOM     22  O   UNL     1      32.387 -24.668 -14.361  0.00  0.00    -0.454 OA
BRANCH  22  25
ATOM     23  N   UNL     1      30.039 -22.677 -16.356  0.00  0.00    -0.186 NA
ATOM     24  N   UNL     1      28.806 -24.298 -15.069  0.00  0.00    -0.208 NA
ATOM     25  C   UNL     1      31.205 -24.197 -14.900  0.00  0.00    +0.168 C 
ATOM     26  C   UNL     1      31.173 -23.160 -15.809  0.00  0.00    +0.145 C 
ATOM     27  C   UNL     1      29.979 -24.733 -14.563  0.00  0.00    +0.202 C 
ATOM     28  C   UNL     1      28.908 -23.282 -15.947  0.00  0.00    +0.087 C 
BRANCH  28  31
ATOM     29  O   UNL     1      27.376 -23.162 -17.656  0.00  0.00    -0.259 OA
ATOM     30  N   UNL     1      26.858 -21.931 -15.738  0.00  0.00    -0.265 N 
ATOM     31  C   UNL     1      27.667 -22.787 -16.510  0.00  0.00    +0.312 C 
ATOM     32  C   UNL     1      27.234 -21.510 -14.391  0.00  0.00    +0.116 C 
ATOM     33  C   UNL     1      25.592 -21.408 -16.232  0.00  0.00    +0.116 C 
ENDBRANCH  28  31
ENDBRANCH  22  25
ENDBRANCH   4  22
TORSDOF 4
ENDMDL
MODEL 5
REMARK VINA RESULT:     -10.2      3.967      7.818
REMARK  Name = 46916694
REMARK  4 active torsions:
REMARK  status: ('A' for Active; 'I' for Inactive)
REMARK    1  A    between atoms: C_4  and  O_22
REMARK    2  A    between atoms: C_5  and  C_15
REMARK    3  A    between atoms: O_22  and  C_25
REMARK    4  A    between atoms: C_28  and  C_31
REMARK                            x       y       z     vdW  Elec       q    Type
REMARK                         _______ _______ _______ _____ _____    ______ ____
ROOT
ATOM      1  O   UNL     1      32.615 -19.292 -23.934  0.00  0.00    -0.458 OA
ATOM      2  C   UNL     1      33.850 -17.466 -23.441  0.00  0.00    +0.072 C 
ATOM      3  C   UNL     1      33.527 -18.767 -23.068  0.00  0.00    +0.148 C 
ATOM      4  C   UNL     1      34.783 -16.756 -22.663  0.00  0.00    +0.148 C 
ATOM      5  C   UNL     1      34.994 -18.697 -21.205  0.00  0.00    +0.060 C 
ATOM      6  C   UNL     1      33.083 -17.196 -24.604  0.00  0.00    +0.039 C 
ATOM      7  C   UNL     1      34.071 -19.421 -21.964  0.00  0.00    +0.042 C 
ATOM      8  C   UNL     1      32.352 -18.333 -24.859  0.00  0.00    +0.123 C 
ATOM      9  C   UNL     1      35.345 -17.388 -21.546  0.00  0.00    +0.042 C 
ATOM     10  C   UNL     1      31.381 -18.690 -25.903  0.00  0.00    +0.072 C 
ENDROOT
BRANCH   5  15
ATOM     11  O   UNL     1      36.734 -18.958 -19.683  0.00  0.00    -0.270 OA
ATOM     12  N   UNL     1      34.839 -20.316 -19.411  0.00  0.00    -0.268 N 
ATOM     13  N   UNL     1      34.299 -22.020 -17.827  0.00  0.00    -0.252 NA
ATOM     14  N   UNL     1      36.792 -21.615 -16.607  0.00  0.00    -0.269 NA
ATOM     15  C   UNL     1      35.599 -19.318 -20.037  0.00  0.00    +0.251 C 
ATOM     16  C   UNL     1      35.175 -21.103 -18.283  0.00  0.00    +0.131 C 
ATOM     17  C   UNL     1      36.400 -20.905 -17.683  0.00  0.00    +0.185 C 
ATOM     18  C   UNL     1      35.915 -22.531 -16.152  0.00  0.00    +0.057 C 
ATOM     19  C   UNL     1      34.690 -22.730 -16.751  0.00  0.00    +0.167 C 
ATOM     20  C   UNL     1      36.315 -23.336 -14.964  0.00  0.00    +0.049 C 
ATOM     21  H   UNL     1      33.955 -20.492 -19.808  0.00  0.00    +0.156 HD
ENDBRANCH   5  15
BRANCH   4  22
ATOM     22  O   UNL     1      35.143 -15.473 -22.970  0.00  0.00    -0.454 OA
BRANCH  22  25
ATOM     23  N   UNL     1      32.634 -12.834 -23.415  0.00  0.00    -0.186 NA
ATOM     24  N   UNL     1      33.112 -13.084 -21.066  0.00  0.00    -0.208 NA
ATOM     25  C   UNL     1      34.238 -14.471 -22.680  0.00  0.00    +0.168 C 
ATOM     26  C   UNL     1      33.525 -13.816 -23.663  0.00  0.00    +0.145 C 
ATOM     27  C   UNL     1      33.988 -14.059 -21.386  0.00  0.00    +0.202 C 
ATOM     28  C   UNL     1      32.478 -12.522 -22.114  0.00  0.00    +0.087 C 
BRANCH  28  31
ATOM     29  O   UNL     1      30.598 -11.752 -21.041  0.00  0.00    -0.259 OA
ATOM     30  N   UNL     1      31.719 -10.192 -22.374  0.00  0.00    -0.265 N 
ATOM     31  C   UNL     1      31.531 -11.469 -21.808  0.00  0.00    +0.312 C 
ATOM     32  C   UNL     1      32.831  -9.896 -23.274  0.00  0.00    +0.116 C 
ATOM     33  C   UNL     1      30.816  -9.083 -22.099  0.00  0.00    +0.116 C 
ENDBRANCH  28  31
ENDBRANCH  22  25
ENDBRANCH   4  22
TORSDOF 4
ENDMDL
MODEL 6
REMARK VINA RESULT:     -10.2      3.000      8.186
REMARK  Name = 46916694
REMARK  4 active torsions:
REMARK  status: ('A' for Active; 'I' for Inactive)
REMARK    1  A    between atoms: C_4  and  O_22
REMARK    2  A    between atoms: C_5  and  C_15
REMARK    3  A    between atoms: O_22  and  C_25
REMARK    4  A    between atoms: C_28  and  C_31
REMARK                            x       y       z     vdW  Elec       q    Type
REMARK                         _______ _______ _______ _____ _____    ______ ____
ROOT
ATOM      1  O   UNL     1      34.320 -19.339 -20.990  0.00  0.00    -0.458 OA
ATOM      2  C   UNL     1      35.486 -20.446 -19.403  0.00  0.00    +0.072 C 
ATOM      3  C   UNL     1      34.222 -20.166 -19.910  0.00  0.00    +0.148 C 
ATOM      4  C   UNL     1      35.589 -21.289 -18.281  0.00  0.00    +0.148 C 
ATOM      5  C   UNL     1      33.161 -21.504 -18.263  0.00  0.00    +0.060 C 
ATOM      6  C   UNL     1      36.399 -19.742 -20.231  0.00  0.00    +0.039 C 
ATOM      7  C   UNL     1      33.037 -20.669 -19.377  0.00  0.00    +0.042 C 
ATOM      8  C   UNL     1      35.642 -19.088 -21.175  0.00  0.00    +0.123 C 
ATOM      9  C   UNL     1      34.413 -21.809 -17.723  0.00  0.00    +0.042 C 
ATOM     10  C   UNL     1      35.982 -18.206 -22.300  0.00  0.00    +0.072 C 
ENDROOT
BRANCH   5  15
ATOM     11  O   UNL     1      30.857 -21.801 -18.153  0.00  0.00    -0.270 OA
ATOM     12  N   UNL     1      32.167 -22.847 -16.511  0.00  0.00    -0.268 N 
ATOM     13  N   UNL     1      31.601 -24.211 -14.634  0.00  0.00    -0.252 NA
ATOM     14  N   UNL     1      28.893 -23.948 -15.315  0.00  0.00    -0.269 NA
ATOM     15  C   UNL     1      31.964 -22.062 -17.654  0.00  0.00    +0.251 C 
ATOM     16  C   UNL     1      31.201 -23.494 -15.702  0.00  0.00    +0.131 C 
ATOM     17  C   UNL     1      29.870 -23.364 -16.036  0.00  0.00    +0.185 C 
ATOM     18  C   UNL     1      29.294 -24.666 -14.247  0.00  0.00    +0.057 C 
ATOM     19  C   UNL     1      30.625 -24.796 -13.913  0.00  0.00    +0.167 C 
ATOM     20  C   UNL     1      28.241 -25.325 -13.426  0.00  0.00    +0.049 C 
ATOM     21  H   UNL     1      33.105 -22.966 -16.235  0.00  0.00    +0.156 HD
ENDBRANCH   5  15
BRANCH   4  22
ATOM     22  O   UNL     1      36.800 -21.603 -17.729  0.00  0.00    -0.454 OA
BRANCH  22  25
ATOM     23  N   UNL     1      35.794 -21.956 -14.218  0.00  0.00    -0.186 NA
ATOM     24  N   UNL     1      37.882 -23.110 -14.563  0.00  0.00    -0.208 NA
ATOM     25  C   UNL     1      36.814 -21.974 -16.397  0.00  0.00    +0.168 C 
ATOM     26  C   UNL     1      35.812 -21.611 -15.522  0.00  0.00    +0.145 C 
ATOM     27  C   UNL     1      37.834 -22.731 -15.857  0.00  0.00    +0.202 C 
ATOM     28  C   UNL     1      36.844 -22.695 -13.811  0.00  0.00    +0.087 C 
BRANCH  28  31
ATOM     29  O   UNL     1      37.917 -22.896 -11.788  0.00  0.00    -0.259 OA
ATOM     30  N   UNL     1      35.697 -23.627 -11.839  0.00  0.00    -0.265 N 
ATOM     31  C   UNL     1      36.862 -23.082 -12.414  0.00  0.00    +0.312 C 
ATOM     32  C   UNL     1      34.472 -23.832 -12.608  0.00  0.00    +0.116 C 
ATOM     33  C   UNL     1      35.637 -24.023 -10.439  0.00  0.00    +0.116 C 
ENDBRANCH  28  31
ENDBRANCH  22  25
ENDBRANCH   4  22
TORSDOF 4
ENDMDL
MODEL 7
REMARK VINA RESULT:     -10.1      2.041      7.890
REMARK  Name = 46916694
REMARK  4 active torsions:
REMARK  status: ('A' for Active; 'I' for Inactive)
REMARK    1  A    between atoms: C_4  and  O_22
REMARK    2  A    between atoms: C_5  and  C_15
REMARK    3  A    between atoms: O_22  and  C_25
REMARK    4  A    between atoms: C_28  and  C_31
REMARK                            x       y       z     vdW  Elec       q    Type
REMARK                         _______ _______ _______ _____ _____    ______ ____
ROOT
ATOM      1  O   UNL     1      29.196 -24.428 -15.488  0.00  0.00    -0.458 OA
ATOM      2  C   UNL     1      31.158 -23.800 -14.564  0.00  0.00    +0.072 C 
ATOM      3  C   UNL     1      30.337 -23.709 -15.683  0.00  0.00    +0.148 C 
ATOM      4  C   UNL     1      32.389 -23.119 -14.575  0.00  0.00    +0.148 C 
ATOM      5  C   UNL     1      31.882 -22.312 -16.818  0.00  0.00    +0.060 C 
ATOM      6  C   UNL     1      30.464 -24.626 -13.641  0.00  0.00    +0.039 C 
ATOM      7  C   UNL     1      30.654 -22.981 -16.827  0.00  0.00    +0.042 C 
ATOM      8  C   UNL     1      29.283 -24.980 -14.250  0.00  0.00    +0.123 C 
ATOM      9  C   UNL     1      32.735 -22.378 -15.714  0.00  0.00    +0.042 C 
ATOM     10  C   UNL     1      28.144 -25.809 -13.829  0.00  0.00    +0.072 C 
ENDROOT
BRANCH   5  15
ATOM     11  O   UNL     1      31.399 -21.127 -18.761  0.00  0.00    -0.270 OA
ATOM     12  N   UNL     1      33.654 -21.328 -18.142  0.00  0.00    -0.268 N 
ATOM     13  N   UNL     1      35.672 -20.549 -19.154  0.00  0.00    -0.252 NA
ATOM     14  N   UNL     1      34.148 -19.410 -21.215  0.00  0.00    -0.269 NA
ATOM     15  C   UNL     1      32.277 -21.534 -17.982  0.00  0.00    +0.251 C 
ATOM     16  C   UNL     1      34.328 -20.640 -19.180  0.00  0.00    +0.131 C 
ATOM     17  C   UNL     1      33.579 -20.080 -20.193  0.00  0.00    +0.185 C 
ATOM     18  C   UNL     1      35.492 -19.320 -21.188  0.00  0.00    +0.057 C 
ATOM     19  C   UNL     1      36.242 -19.880 -20.176  0.00  0.00    +0.167 C 
ATOM     20  C   UNL     1      36.155 -18.588 -22.302  0.00  0.00    +0.049 C 
ATOM     21  H   UNL     1      34.228 -21.713 -17.441  0.00  0.00    +0.156 HD
ENDBRANCH   5  15
BRANCH   4  22
ATOM     22  O   UNL     1      33.246 -23.167 -13.511  0.00  0.00    -0.454 OA
BRANCH  22  25
ATOM     23  N   UNL     1      36.028 -24.962 -15.091  0.00  0.00    -0.186 NA
ATOM     24  N   UNL     1      36.299 -25.033 -12.697  0.00  0.00    -0.208 NA
ATOM     25  C   UNL     1      34.410 -23.897 -13.664  0.00  0.00    +0.168 C 
ATOM     26  C   UNL     1      34.897 -24.252 -14.905  0.00  0.00    +0.145 C 
ATOM     27  C   UNL     1      35.160 -24.319 -12.585  0.00  0.00    +0.202 C 
ATOM     28  C   UNL     1      36.671 -25.315 -13.961  0.00  0.00    +0.087 C 
BRANCH  28  31
ATOM     29  O   UNL     1      37.769 -27.295 -14.358  0.00  0.00    -0.259 OA
ATOM     30  N   UNL     1      39.132 -25.426 -14.018  0.00  0.00    -0.265 N 
ATOM     31  C   UNL     1      37.890 -26.083 -14.121  0.00  0.00    +0.312 C 
ATOM     32  C   UNL     1      39.235 -23.996 -13.737  0.00  0.00    +0.116 C 
ATOM     33  C   UNL     1      40.396 -26.130 -14.182  0.00  0.00    +0.116 C 
ENDBRANCH  28  31
ENDBRANCH  22  25
ENDBRANCH   4  22
TORSDOF 4
ENDMDL
MODEL 8
REMARK VINA RESULT:      -9.9      2.359      9.334
REMARK  Name = 46916694
REMARK  4 active torsions:
REMARK  status: ('A' for Active; 'I' for Inactive)
REMARK    1  A    between atoms: C_4  and  O_22
REMARK    2  A    between atoms: C_5  and  C_15
REMARK    3  A    between atoms: O_22  and  C_25
REMARK    4  A    between atoms: C_28  and  C_31
REMARK                            x       y       z     vdW  Elec       q    Type
REMARK                         _______ _______ _______ _____ _____    ______ ____
ROOT
ATOM      1  O   UNL     1      32.039 -22.285 -17.723  0.00  0.00    -0.458 OA
ATOM      2  C   UNL     1      34.286 -22.055 -17.705  0.00  0.00    +0.072 C 
ATOM      3  C   UNL     1      33.101 -21.690 -18.336  0.00  0.00    +0.148 C 
ATOM      4  C   UNL     1      35.497 -21.537 -18.197  0.00  0.00    +0.148 C 
ATOM      5  C   UNL     1      34.248 -20.333 -19.909  0.00  0.00    +0.060 C 
ATOM      6  C   UNL     1      33.909 -22.923 -16.647  0.00  0.00    +0.039 C 
ATOM      7  C   UNL     1      33.033 -20.836 -19.435  0.00  0.00    +0.042 C 
ATOM      8  C   UNL     1      32.539 -23.030 -16.703  0.00  0.00    +0.123 C 
ATOM      9  C   UNL     1      35.459 -20.676 -19.303  0.00  0.00    +0.042 C 
ATOM     10  C   UNL     1      31.555 -23.767 -15.898  0.00  0.00    +0.072 C 
ENDROOT
BRANCH   5  15
ATOM     11  O   UNL     1      34.303 -19.923 -22.197  0.00  0.00    -0.270 OA
ATOM     12  N   UNL     1      34.215 -18.068 -20.763  0.00  0.00    -0.268 N 
ATOM     13  N   UNL     1      34.191 -15.716 -21.178  0.00  0.00    -0.252 NA
ATOM     14  N   UNL     1      34.312 -16.245 -23.930  0.00  0.00    -0.269 NA
ATOM     15  C   UNL     1      34.249 -19.438 -21.055  0.00  0.00    +0.251 C 
ATOM     16  C   UNL     1      34.232 -16.973 -21.661  0.00  0.00    +0.131 C 
ATOM     17  C   UNL     1      34.292 -17.233 -23.013  0.00  0.00    +0.185 C 
ATOM     18  C   UNL     1      34.271 -14.988 -23.446  0.00  0.00    +0.057 C 
ATOM     19  C   UNL     1      34.212 -14.728 -22.094  0.00  0.00    +0.167 C 
ATOM     20  C   UNL     1      34.293 -13.871 -24.430  0.00  0.00    +0.049 C 
ATOM     21  H   UNL     1      34.173 -17.836 -19.806  0.00  0.00    +0.156 HD
ENDBRANCH   5  15
BRANCH   4  22
ATOM     22  O   UNL     1      36.699 -21.856 -17.627  0.00  0.00    -0.454 OA
BRANCH  22  25
ATOM     23  N   UNL     1      35.981 -21.558 -14.042  0.00  0.00    -0.186 NA
ATOM     24  N   UNL     1      37.484 -23.408 -14.396  0.00  0.00    -0.208 NA
ATOM     25  C   UNL     1      36.712 -22.106 -16.268  0.00  0.00    +0.168 C 
ATOM     26  C   UNL     1      35.992 -21.342 -15.373  0.00  0.00    +0.145 C 
ATOM     27  C   UNL     1      37.448 -23.136 -15.717  0.00  0.00    +0.202 C 
ATOM     28  C   UNL     1      36.738 -22.591 -13.627  0.00  0.00    +0.087 C 
BRANCH  28  31
ATOM     29  O   UNL     1      37.765 -22.500 -11.573  0.00  0.00    -0.259 OA
ATOM     30  N   UNL     1      35.637 -23.468 -11.604  0.00  0.00    -0.265 N 
ATOM     31  C   UNL     1      36.755 -22.852 -12.201  0.00  0.00    +0.312 C 
ATOM     32  C   UNL     1      34.464 -23.870 -12.377  0.00  0.00    +0.116 C 
ATOM     33  C   UNL     1      35.577 -23.746 -10.176  0.00  0.00    +0.116 C 
ENDBRANCH  28  31
ENDBRANCH  22  25
ENDBRANCH   4  22
TORSDOF 4
ENDMDL
MODEL 9
REMARK VINA RESULT:      -9.6      9.600     16.506
REMARK  Name = 46916694
REMARK  4 active torsions:
REMARK  status: ('A' for Active; 'I' for Inactive)
REMARK    1  A    between atoms: C_4  and  O_22
REMARK    2  A    between atoms: C_5  and  C_15
REMARK    3  A    between atoms: O_22  and  C_25
REMARK    4  A    between atoms: C_28  and  C_31
REMARK                            x       y       z     vdW  Elec       q    Type
REMARK                         _______ _______ _______ _____ _____    ______ ____
ROOT
ATOM      1  O   UNL     1      31.803  -7.919 -19.336  0.00  0.00    -0.458 OA
ATOM      2  C   UNL     1      31.697  -9.053 -21.287  0.00  0.00    +0.072 C 
ATOM      3  C   UNL     1      31.976  -7.830 -20.686  0.00  0.00    +0.148 C 
ATOM      4  C   UNL     1      31.821  -9.160 -22.683  0.00  0.00    +0.148 C 
ATOM      5  C   UNL     1      32.491  -6.818 -22.769  0.00  0.00    +0.060 C 
ATOM      6  C   UNL     1      31.334  -9.929 -20.230  0.00  0.00    +0.039 C 
ATOM      7  C   UNL     1      32.374  -6.691 -21.382  0.00  0.00    +0.042 C 
ATOM      8  C   UNL     1      31.414  -9.193 -19.071  0.00  0.00    +0.123 C 
ATOM      9  C   UNL     1      32.219  -8.030 -23.410  0.00  0.00    +0.042 C 
ATOM     10  C   UNL     1      31.168  -9.513 -17.658  0.00  0.00    +0.072 C 
ENDROOT
BRANCH   5  15
ATOM     11  O   UNL     1      32.485  -4.541 -23.240  0.00  0.00    -0.270 OA
ATOM     12  N   UNL     1      33.730  -5.939 -24.654  0.00  0.00    -0.268 N 
ATOM     13  N   UNL     1      35.048  -5.497 -26.596  0.00  0.00    -0.252 NA
ATOM     14  N   UNL     1      34.417  -2.775 -26.349  0.00  0.00    -0.269 NA
ATOM     15  C   UNL     1      32.900  -5.667 -23.558  0.00  0.00    +0.251 C 
ATOM     16  C   UNL     1      34.261  -5.034 -25.605  0.00  0.00    +0.131 C 
ATOM     17  C   UNL     1      33.951  -3.696 -25.484  0.00  0.00    +0.185 C 
ATOM     18  C   UNL     1      35.204  -3.239 -27.340  0.00  0.00    +0.057 C 
ATOM     19  C   UNL     1      35.514  -4.576 -27.461  0.00  0.00    +0.167 C 
ATOM     20  C   UNL     1      35.736  -2.248 -28.317  0.00  0.00    +0.049 C 
ATOM     21  H   UNL     1      33.976  -6.885 -24.779  0.00  0.00    +0.156 HD
ENDBRANCH   5  15
BRANCH   4  22
ATOM     22  O   UNL     1      31.559 -10.331 -23.340  0.00  0.00    -0.454 OA
BRANCH  22  25
ATOM     23  N   UNL     1      32.133 -13.456 -21.505  0.00  0.00    -0.186 NA
ATOM     24  N   UNL     1      34.085 -12.943 -22.821  0.00  0.00    -0.208 NA
ATOM     25  C   UNL     1      32.177 -11.475 -22.870  0.00  0.00    +0.168 C 
ATOM     26  C   UNL     1      31.560 -12.332 -21.982  0.00  0.00    +0.145 C 
ATOM     27  C   UNL     1      33.451 -11.835 -23.259  0.00  0.00    +0.202 C 
ATOM     28  C   UNL     1      33.377 -13.698 -21.959  0.00  0.00    +0.087 C 
BRANCH  28  31
ATOM     29  O   UNL     1      34.200 -14.982 -20.239  0.00  0.00    -0.259 OA
ATOM     30  N   UNL     1      34.408 -15.896 -22.381  0.00  0.00    -0.265 N 
ATOM     31  C   UNL     1      34.026 -14.896 -21.465  0.00  0.00    +0.312 C 
ATOM     32  C   UNL     1      34.188 -15.759 -23.819  0.00  0.00    +0.116 C 
ATOM     33  C   UNL     1      35.051 -17.132 -21.955  0.00  0.00    +0.116 C 
ENDBRANCH  28  31
ENDBRANCH  22  25
ENDBRANCH   4  22
TORSDOF 4
ENDMDL
