MODEL 1
REMARK VINA RESULT:     -11.8      0.000      0.000
REMARK  Name = 1116191
REMARK  3 active torsions:
REMARK  status: ('A' for Active; 'I' for Inactive)
REMARK    1  A    between atoms: N_2  and  C_7
REMARK    2  A    between atoms: C_4  and  C_15
REMARK    3  A    between atoms: N_14  and  C_18
REMARK                            x       y       z     vdW  Elec       q    Type
REMARK                         _______ _______ _______ _____ _____    ______ ____
ROOT
ATOM      1  O   UNL     1      36.824 -18.345 -20.003  0.00  0.00    -0.275 OA
ATOM      2  N   UNL     1      34.913 -19.286 -20.998  0.00  0.00    -0.281 N 
ATOM      3  C   UNL     1      34.369 -19.422 -22.329  0.00  0.00    +0.103 C 
ATOM      4  C   UNL     1      35.096 -18.355 -23.129  0.00  0.00    +0.106 C 
ATOM      5  C   UNL     1      36.409 -18.133 -22.380  0.00  0.00    +0.096 C 
ATOM      6  C   UNL     1      36.105 -18.571 -20.966  0.00  0.00    +0.226 C 
ENDROOT
BRANCH   2   7
ATOM      7  C   UNL     1      34.314 -19.956 -19.870  0.00  0.00    +0.075 C 
ATOM      8  C   UNL     1      32.847 -20.292 -20.155  0.00  0.00    +0.020 C 
ATOM      9  C   UNL     1      35.112 -21.210 -19.504  0.00  0.00    +0.020 C 
ATOM     10  C   UNL     1      32.208 -21.050 -18.994  0.00  0.00    +0.002 C 
ATOM     11  C   UNL     1      34.469 -21.968 -18.345  0.00  0.00    +0.002 C 
ATOM     12  C   UNL     1      33.006 -22.299 -18.630  0.00  0.00    +0.000 C 
ENDBRANCH   2   7
BRANCH   4  15
ATOM     13  O   UNL     1      33.543 -16.874 -24.149  0.00  0.00    -0.275 OA
ATOM     14  N   UNL     1      34.568 -16.259 -22.122  0.00  0.00    -0.284 N 
ATOM     15  C   UNL     1      34.303 -17.083 -23.209  0.00  0.00    +0.228 C 
ATOM     16  H   UNL     1      35.216 -16.601 -21.465  0.00  0.00    +0.155 HD
BRANCH  14  18
ATOM     17 BR   UNL     1      33.314 -11.486 -23.962  0.00  0.00    -0.049 Br
ATOM     18  C   UNL     1      34.012 -14.986 -21.851  0.00  0.00    +0.051 C 
ATOM     19  C   UNL     1      33.953 -14.043 -22.864  0.00  0.00    +0.021 C 
ATOM     20  C   UNL     1      33.538 -14.711 -20.579  0.00  0.00    +0.015 C 
ATOM     21  C   UNL     1      33.405 -12.789 -22.596  0.00  0.00    +0.036 C 
ATOM     22  C   UNL     1      32.991 -13.457 -20.311  0.00  0.00    +0.002 C 
ATOM     23  C   UNL     1      32.924 -12.495 -21.320  0.00  0.00    +0.007 C 
ENDBRANCH  14  18
ENDBRANCH   4  15
TORSDOF 3
ENDMDL
MODEL 2
REMARK VINA RESULT:     -11.5      3.314      7.374
REMARK  Name = 1116191
REMARK  3 active torsions:
REMARK  status: ('A' for Active; 'I' for Inactive)
REMARK    1  A    between atoms: N_2  and  C_7
REMARK    2  A    between atoms: C_4  and  C_15
REMARK    3  A    between atoms: N_14  and  C_18
REMARK                            x       y       z     vdW  Elec       q    Type
REMARK                         _______ _______ _______ _____ _____    ______ ____
ROOT
ATOM      1  O   UNL     1      33.142 -17.430 -24.170  0.00  0.00    -0.275 OA
ATOM      2  N   UNL     1      34.739 -16.942 -22.515  0.00  0.00    -0.281 N 
ATOM      3  C   UNL     1      35.782 -17.647 -21.806  0.00  0.00    +0.103 C 
ATOM      4  C   UNL     1      35.418 -19.111 -21.989  0.00  0.00    +0.106 C 
ATOM      5  C   UNL     1      34.594 -19.151 -23.275  0.00  0.00    +0.096 C 
ATOM      6  C   UNL     1      34.033 -17.753 -23.396  0.00  0.00    +0.226 C 
ENDROOT
BRANCH   2   7
ATOM      7  C   UNL     1      34.575 -15.515 -22.384  0.00  0.00    +0.075 C 
ATOM      8  C   UNL     1      33.730 -14.957 -23.533  0.00  0.00    +0.020 C 
ATOM      9  C   UNL     1      33.965 -15.167 -21.024  0.00  0.00    +0.020 C 
ATOM     10  C   UNL     1      33.499 -13.456 -23.384  0.00  0.00    +0.002 C 
ATOM     11  C   UNL     1      33.732 -13.665 -20.878  0.00  0.00    +0.002 C 
ATOM     12  C   UNL     1      32.893 -13.111 -22.027  0.00  0.00    +0.000 C 
ENDBRANCH   2   7
BRANCH   4  15
ATOM     13  O   UNL     1      33.463 -19.282 -20.649  0.00  0.00    -0.275 OA
ATOM     14  N   UNL     1      35.381 -20.512 -20.059  0.00  0.00    -0.284 N 
ATOM     15  C   UNL     1      34.624 -19.635 -20.827  0.00  0.00    +0.228 C 
ATOM     16  H   UNL     1      36.304 -20.671 -20.363  0.00  0.00    +0.155 HD
BRANCH  14  18
ATOM     17 BR   UNL     1      36.689 -22.269 -15.269  0.00  0.00    -0.049 Br
ATOM     18  C   UNL     1      34.977 -21.204 -18.892  0.00  0.00    +0.051 C 
ATOM     19  C   UNL     1      35.877 -21.361 -17.852  0.00  0.00    +0.021 C 
ATOM     20  C   UNL     1      33.688 -21.706 -18.816  0.00  0.00    +0.015 C 
ATOM     21  C   UNL     1      35.477 -22.042 -16.702  0.00  0.00    +0.036 C 
ATOM     22  C   UNL     1      33.289 -22.387 -17.667  0.00  0.00    +0.002 C 
ATOM     23  C   UNL     1      34.184 -22.555 -16.609  0.00  0.00    +0.007 C 
ENDBRANCH  14  18
ENDBRANCH   4  15
TORSDOF 3
ENDMDL
MODEL 3
REMARK VINA RESULT:     -11.2      1.152      1.667
REMARK  Name = 1116191
REMARK  3 active torsions:
REMARK  status: ('A' for Active; 'I' for Inactive)
REMARK    1  A    between atoms: N_2  and  C_7
REMARK    2  A    between atoms: C_4  and  C_15
REMARK    3  A    between atoms: N_14  and  C_18
REMARK                            x       y       z     vdW  Elec       q    Type
REMARK                         _______ _______ _______ _____ _____    ______ ____
ROOT
ATOM      1  O   UNL     1      36.508 -18.062 -20.163  0.00  0.00    -0.275 OA
ATOM      2  N   UNL     1      34.826 -19.440 -21.055  0.00  0.00    -0.281 N 
ATOM      3  C   UNL     1      34.374 -19.849 -22.365  0.00  0.00    +0.103 C 
ATOM      4  C   UNL     1      34.953 -18.795 -23.294  0.00  0.00    +0.106 C 
ATOM      5  C   UNL     1      36.175 -18.252 -22.555  0.00  0.00    +0.096 C 
ATOM      6  C   UNL     1      35.881 -18.536 -21.099  0.00  0.00    +0.226 C 
ENDROOT
BRANCH   2   7
ATOM      7  C   UNL     1      34.293 -20.040 -19.857  0.00  0.00    +0.075 C 
ATOM      8  C   UNL     1      32.838 -20.471 -20.066  0.00  0.00    +0.020 C 
ATOM      9  C   UNL     1      35.164 -21.217 -19.412  0.00  0.00    +0.020 C 
ATOM     10  C   UNL     1      32.271 -21.157 -18.826  0.00  0.00    +0.002 C 
ATOM     11  C   UNL     1      34.593 -21.904 -18.173  0.00  0.00    +0.002 C 
ATOM     12  C   UNL     1      33.142 -22.329 -18.384  0.00  0.00    +0.000 C 
ENDBRANCH   2   7
BRANCH   4  15
ATOM     13  O   UNL     1      32.865 -17.950 -24.054  0.00  0.00    -0.275 OA
ATOM     14  N   UNL     1      34.484 -16.457 -23.224  0.00  0.00    -0.284 N 
ATOM     15  C   UNL     1      33.965 -17.698 -23.574  0.00  0.00    +0.228 C 
ATOM     16  H   UNL     1      35.395 -16.456 -22.852  0.00  0.00    +0.155 HD
BRANCH  14  18
ATOM     17 BR   UNL     1      32.323 -12.336 -20.756  0.00  0.00    -0.049 Br
ATOM     18  C   UNL     1      33.852 -15.196 -23.340  0.00  0.00    +0.051 C 
ATOM     19  C   UNL     1      33.472 -14.520 -22.193  0.00  0.00    +0.021 C 
ATOM     20  C   UNL     1      33.628 -14.666 -24.600  0.00  0.00    +0.015 C 
ATOM     21  C   UNL     1      32.850 -13.277 -22.309  0.00  0.00    +0.036 C 
ATOM     22  C   UNL     1      33.005 -13.423 -24.715  0.00  0.00    +0.002 C 
ATOM     23  C   UNL     1      32.616 -12.729 -23.569  0.00  0.00    +0.007 C 
ENDBRANCH  14  18
ENDBRANCH   4  15
TORSDOF 3
ENDMDL
MODEL 4
REMARK VINA RESULT:     -11.2      5.635     10.769
REMARK  Name = 1116191
REMARK  3 active torsions:
REMARK  status: ('A' for Active; 'I' for Inactive)
REMARK    1  A    between atoms: N_2  and  C_7
REMARK    2  A    between atoms: C_4  and  C_15
REMARK    3  A    between atoms: N_14  and  C_18
REMARK                            x       y       z     vdW  Elec       q    Type
REMARK                         _______ _______ _______ _____ _____    ______ ____
ROOT
ATOM      1  O   UNL     1      32.087  -7.685 -19.393  0.00  0.00    -0.275 OA
ATOM      2  N   UNL     1      31.649  -7.661 -21.702  0.00  0.00    -0.281 N 
ATOM      3  C   UNL     1      30.924  -8.473 -22.653  0.00  0.00    +0.103 C 
ATOM      4  C   UNL     1      30.768  -9.808 -21.945  0.00  0.00    +0.106 C 
ATOM      5  C   UNL     1      30.845  -9.472 -20.457  0.00  0.00    +0.096 C 
ATOM      6  C   UNL     1      31.620  -8.175 -20.411  0.00  0.00    +0.226 C 
ENDROOT
BRANCH   2   7
ATOM      7  C   UNL     1      32.215  -6.390 -22.080  0.00  0.00    +0.075 C 
ATOM      8  C   UNL     1      33.227  -6.561 -23.217  0.00  0.00    +0.020 C 
ATOM      9  C   UNL     1      31.110  -5.402 -22.462  0.00  0.00    +0.020 C 
ATOM     10  C   UNL     1      33.798  -5.220 -23.669  0.00  0.00    +0.002 C 
ATOM     11  C   UNL     1      31.684  -4.062 -22.917  0.00  0.00    +0.002 C 
ATOM     12  C   UNL     1      32.695  -4.237 -24.048  0.00  0.00    +0.000 C 
ENDBRANCH   2   7
BRANCH   4  15
ATOM     13  O   UNL     1      32.680 -10.477 -23.188  0.00  0.00    -0.275 OA
ATOM     14  N   UNL     1      31.749 -11.956 -21.612  0.00  0.00    -0.284 N 
ATOM     15  C   UNL     1      31.852 -10.772 -22.333  0.00  0.00    +0.228 C 
ATOM     16  H   UNL     1      31.010 -12.009 -20.965  0.00  0.00    +0.155 HD
BRANCH  14  18
ATOM     17 BR   UNL     1      33.950 -15.613 -24.698  0.00  0.00    -0.049 Br
ATOM     18  C   UNL     1      32.587 -13.093 -21.701  0.00  0.00    +0.051 C 
ATOM     19  C   UNL     1      32.808 -13.678 -22.936  0.00  0.00    +0.021 C 
ATOM     20  C   UNL     1      33.170 -13.595 -20.548  0.00  0.00    +0.015 C 
ATOM     21  C   UNL     1      33.635 -14.798 -23.022  0.00  0.00    +0.036 C 
ATOM     22  C   UNL     1      33.996 -14.715 -20.635  0.00  0.00    +0.002 C 
ATOM     23  C   UNL     1      34.228 -15.317 -21.872  0.00  0.00    +0.007 C 
ENDBRANCH  14  18
ENDBRANCH   4  15
TORSDOF 3
ENDMDL
MODEL 5
REMARK VINA RESULT:     -10.3      2.552      4.164
REMARK  Name = 1116191
REMARK  3 active torsions:
REMARK  status: ('A' for Active; 'I' for Inactive)
REMARK    1  A    between atoms: N_2  and  C_7
REMARK    2  A    between atoms: C_4  and  C_15
REMARK    3  A    between atoms: N_14  and  C_18
REMARK                            x       y       z     vdW  Elec       q    Type
REMARK                         _______ _______ _______ _____ _____    ______ ____
ROOT
ATOM      1  O   UNL     1      35.695 -21.036 -16.552  0.00  0.00    -0.275 OA
ATOM      2  N   UNL     1      34.231 -22.080 -18.067  0.00  0.00    -0.281 N 
ATOM      3  C   UNL     1      34.154 -22.291 -19.494  0.00  0.00    +0.103 C 
ATOM      4  C   UNL     1      35.086 -21.237 -20.066  0.00  0.00    +0.106 C 
ATOM      5  C   UNL     1      36.078 -20.940 -18.942  0.00  0.00    +0.096 C 
ATOM      6  C   UNL     1      35.334 -21.326 -17.684  0.00  0.00    +0.226 C 
ENDROOT
BRANCH   2   7
ATOM      7  C   UNL     1      33.306 -22.720 -17.163  0.00  0.00    +0.075 C 
ATOM      8  C   UNL     1      33.840 -22.689 -15.728  0.00  0.00    +0.020 C 
ATOM      9  C   UNL     1      31.925 -22.067 -17.258  0.00  0.00    +0.020 C 
ATOM     10  C   UNL     1      32.851 -23.312 -14.747  0.00  0.00    +0.002 C 
ATOM     11  C   UNL     1      30.938 -22.690 -16.273  0.00  0.00    +0.002 C 
ATOM     12  C   UNL     1      31.475 -22.661 -14.844  0.00  0.00    +0.000 C 
ENDBRANCH   2   7
BRANCH   4  15
ATOM     13  O   UNL     1      33.189 -19.805 -20.091  0.00  0.00    -0.275 OA
ATOM     14  N   UNL     1      35.128 -19.177 -21.269  0.00  0.00    -0.284 N 
ATOM     15  C   UNL     1      34.342 -19.995 -20.466  0.00  0.00    +0.228 C 
ATOM     16  H   UNL     1      36.035 -19.503 -21.465  0.00  0.00    +0.155 HD
BRANCH  14  18
ATOM     17 BR   UNL     1      33.843 -14.136 -20.443  0.00  0.00    -0.049 Br
ATOM     18  C   UNL     1      34.773 -17.930 -21.835  0.00  0.00    +0.051 C 
ATOM     19  C   UNL     1      34.529 -16.851 -21.002  0.00  0.00    +0.021 C 
ATOM     20  C   UNL     1      34.679 -17.815 -23.213  0.00  0.00    +0.015 C 
ATOM     21  C   UNL     1      34.181 -15.622 -21.562  0.00  0.00    +0.036 C 
ATOM     22  C   UNL     1      34.330 -16.586 -23.772  0.00  0.00    +0.002 C 
ATOM     23  C   UNL     1      34.080 -15.489 -22.946  0.00  0.00    +0.007 C 
ENDBRANCH  14  18
ENDBRANCH   4  15
TORSDOF 3
ENDMDL
MODEL 6
REMARK VINA RESULT:      -9.9      3.127      7.263
REMARK  Name = 1116191
REMARK  3 active torsions:
REMARK  status: ('A' for Active; 'I' for Inactive)
REMARK    1  A    between atoms: N_2  and  C_7
REMARK    2  A    between atoms: C_4  and  C_15
REMARK    3  A    between atoms: N_14  and  C_18
REMARK                            x       y       z     vdW  Elec       q    Type
REMARK                         _______ _______ _______ _____ _____    ______ ____
ROOT
ATOM      1  O   UNL     1      32.907 -18.850 -22.957  0.00  0.00    -0.275 OA
ATOM      2  N   UNL     1      34.613 -17.380 -22.284  0.00  0.00    -0.281 N 
ATOM      3  C   UNL     1      36.030 -17.454 -22.010  0.00  0.00    +0.103 C 
ATOM      4  C   UNL     1      36.277 -18.934 -21.776  0.00  0.00    +0.106 C 
ATOM      5  C   UNL     1      35.158 -19.642 -22.538  0.00  0.00    +0.096 C 
ATOM      6  C   UNL     1      34.057 -18.609 -22.619  0.00  0.00    +0.226 C 
ENDROOT
BRANCH   2   7
ATOM      7  C   UNL     1      33.922 -16.115 -22.324  0.00  0.00    +0.075 C 
ATOM      8  C   UNL     1      34.047 -15.385 -20.984  0.00  0.00    +0.020 C 
ATOM      9  C   UNL     1      34.443 -15.254 -23.478  0.00  0.00    +0.020 C 
ATOM     10  C   UNL     1      33.368 -14.019 -21.021  0.00  0.00    +0.002 C 
ATOM     11  C   UNL     1      33.764 -13.886 -23.511  0.00  0.00    +0.002 C 
ATOM     12  C   UNL     1      33.888 -13.163 -22.173  0.00  0.00    +0.000 C 
ENDBRANCH   2   7
BRANCH   4  15
ATOM     13  O   UNL     1      36.785 -18.568 -19.484  0.00  0.00    -0.275 OA
ATOM     14  N   UNL     1      35.522 -20.455 -20.101  0.00  0.00    -0.284 N 
ATOM     15  C   UNL     1      36.234 -19.281 -20.316  0.00  0.00    +0.228 C 
ATOM     16  H   UNL     1      35.152 -20.892 -20.902  0.00  0.00    +0.155 HD
BRANCH  14  18
ATOM     17 BR   UNL     1      32.012 -22.839 -16.980  0.00  0.00    -0.049 Br
ATOM     18  C   UNL     1      35.268 -21.094 -18.864  0.00  0.00    +0.051 C 
ATOM     19  C   UNL     1      33.993 -21.562 -18.592  0.00  0.00    +0.021 C 
ATOM     20  C   UNL     1      36.301 -21.238 -17.953  0.00  0.00    +0.015 C 
ATOM     21  C   UNL     1      33.744 -22.192 -17.373  0.00  0.00    +0.036 C 
ATOM     22  C   UNL     1      36.051 -21.868 -16.733  0.00  0.00    +0.002 C 
ATOM     23  C   UNL     1      34.772 -22.345 -16.444  0.00  0.00    +0.007 C 
ENDBRANCH  14  18
ENDBRANCH   4  15
TORSDOF 3
ENDMDL
MODEL 7
REMARK VINA RESULT:      -9.9      2.557      3.925
REMARK  Name = 1116191
REMARK  3 active torsions:
REMARK  status: ('A' for Active; 'I' for Inactive)
REMARK    1  A    between atoms: N_2  and  C_7
REMARK    2  A    between atoms: C_4  and  C_15
REMARK    3  A    between atoms: N_14  and  C_18
REMARK                            x       y       z     vdW  Elec       q    Type
REMARK                         _______ _______ _______ _____ _____    ______ ____
ROOT
ATOM      1  O   UNL     1      35.898 -21.147 -16.715  0.00  0.00    -0.275 OA
ATOM      2  N   UNL     1      34.244 -22.071 -18.106  0.00  0.00    -0.281 N 
ATOM      3  C   UNL     1      34.009 -22.213 -19.525  0.00  0.00    +0.103 C 
ATOM      4  C   UNL     1      34.914 -21.164 -20.149  0.00  0.00    +0.106 C 
ATOM      5  C   UNL     1      36.029 -20.952 -19.126  0.00  0.00    +0.096 C 
ATOM      6  C   UNL     1      35.409 -21.372 -17.813  0.00  0.00    +0.226 C 
ENDROOT
BRANCH   2   7
ATOM      7  C   UNL     1      33.397 -22.722 -17.137  0.00  0.00    +0.075 C 
ATOM      8  C   UNL     1      33.989 -22.600 -15.730  0.00  0.00    +0.020 C 
ATOM      9  C   UNL     1      31.978 -22.150 -17.195  0.00  0.00    +0.020 C 
ATOM     10  C   UNL     1      33.081 -23.235 -14.680  0.00  0.00    +0.002 C 
ATOM     11  C   UNL     1      31.072 -22.785 -16.142  0.00  0.00    +0.002 C 
ATOM     12  C   UNL     1      31.667 -22.665 -14.742  0.00  0.00    +0.000 C 
ENDBRANCH   2   7
BRANCH   4  15
ATOM     13  O   UNL     1      32.995 -19.762 -20.112  0.00  0.00    -0.275 OA
ATOM     14  N   UNL     1      35.010 -18.942 -21.010  0.00  0.00    -0.284 N 
ATOM     15  C   UNL     1      34.178 -19.882 -20.413  0.00  0.00    +0.228 C 
ATOM     16  H   UNL     1      35.938 -19.225 -21.176  0.00  0.00    +0.155 HD
BRANCH  14  18
ATOM     17 BR   UNL     1      33.830 -15.658 -24.956  0.00  0.00    -0.049 Br
ATOM     18  C   UNL     1      34.676 -17.624 -21.404  0.00  0.00    +0.051 C 
ATOM     19  C   UNL     1      34.460 -17.352 -22.744  0.00  0.00    +0.021 C 
ATOM     20  C   UNL     1      34.572 -16.635 -20.439  0.00  0.00    +0.015 C 
ATOM     21  C   UNL     1      34.130 -16.053 -23.131  0.00  0.00    +0.036 C 
ATOM     22  C   UNL     1      34.243 -15.337 -20.827  0.00  0.00    +0.002 C 
ATOM     23  C   UNL     1      34.022 -15.046 -22.174  0.00  0.00    +0.007 C 
ENDBRANCH  14  18
ENDBRANCH   4  15
TORSDOF 3
ENDMDL
MODEL 8
REMARK VINA RESULT:      -9.7      3.152      4.841
REMARK  Name = 1116191
REMARK  3 active torsions:
REMARK  status: ('A' for Active; 'I' for Inactive)
REMARK    1  A    between atoms: N_2  and  C_7
REMARK    2  A    between atoms: C_4  and  C_15
REMARK    3  A    between atoms: N_14  and  C_18
REMARK                            x       y       z     vdW  Elec       q    Type
REMARK                         _______ _______ _______ _____ _____    ______ ____
ROOT
ATOM      1  O   UNL     1      35.973 -21.282 -16.158  0.00  0.00    -0.275 OA
ATOM      2  N   UNL     1      34.012 -22.195 -17.079  0.00  0.00    -0.281 N 
ATOM      3  C   UNL     1      33.552 -22.624 -18.380  0.00  0.00    +0.103 C 
ATOM      4  C   UNL     1      34.500 -21.934 -19.346  0.00  0.00    +0.106 C 
ATOM      5  C   UNL     1      35.773 -21.692 -18.537  0.00  0.00    +0.096 C 
ATOM      6  C   UNL     1      35.299 -21.669 -17.102  0.00  0.00    +0.226 C 
ENDROOT
BRANCH   2   7
ATOM      7  C   UNL     1      33.231 -22.432 -15.890  0.00  0.00    +0.075 C 
ATOM      8  C   UNL     1      31.777 -22.750 -16.251  0.00  0.00    +0.020 C 
ATOM      9  C   UNL     1      33.855 -23.552 -15.053  0.00  0.00    +0.020 C 
ATOM     10  C   UNL     1      30.944 -23.059 -15.010  0.00  0.00    +0.002 C 
ATOM     11  C   UNL     1      33.018 -23.861 -13.813  0.00  0.00    +0.002 C 
ATOM     12  C   UNL     1      31.569 -24.173 -14.176  0.00  0.00    +0.000 C 
ENDBRANCH   2   7
BRANCH   4  15
ATOM     13  O   UNL     1      32.816 -20.265 -19.509  0.00  0.00    -0.275 OA
ATOM     14  N   UNL     1      34.823 -20.004 -20.709  0.00  0.00    -0.284 N 
ATOM     15  C   UNL     1      33.932 -20.640 -19.853  0.00  0.00    +0.228 C 
ATOM     16  H   UNL     1      35.678 -20.465 -20.867  0.00  0.00    +0.155 HD
BRANCH  14  18
ATOM     17 BR   UNL     1      33.074 -17.501 -25.001  0.00  0.00    -0.049 Br
ATOM     18  C   UNL     1      34.643 -18.770 -21.378  0.00  0.00    +0.051 C 
ATOM     19  C   UNL     1      34.054 -18.758 -22.631  0.00  0.00    +0.021 C 
ATOM     20  C   UNL     1      35.058 -17.600 -20.763  0.00  0.00    +0.015 C 
ATOM     21  C   UNL     1      33.876 -17.541 -23.289  0.00  0.00    +0.036 C 
ATOM     22  C   UNL     1      34.880 -16.384 -21.421  0.00  0.00    +0.002 C 
ATOM     23  C   UNL     1      34.289 -16.354 -22.685  0.00  0.00    +0.007 C 
ENDBRANCH  14  18
ENDBRANCH   4  15
TORSDOF 3
ENDMDL
MODEL 9
REMARK VINA RESULT:      -9.4      5.099      9.046
REMARK  Name = 1116191
REMARK  3 active torsions:
REMARK  status: ('A' for Active; 'I' for Inactive)
REMARK    1  A    between atoms: N_2  and  C_7
REMARK    2  A    between atoms: C_4  and  C_15
REMARK    3  A    between atoms: N_14  and  C_18
REMARK                            x       y       z     vdW  Elec       q    Type
REMARK                         _______ _______ _______ _____ _____    ______ ____
ROOT
ATOM      1  O   UNL     1      31.681 -20.031 -19.322  0.00  0.00    -0.275 OA
ATOM      2  N   UNL     1      33.923 -20.600 -19.743  0.00  0.00    -0.281 N 
ATOM      3  C   UNL     1      34.769 -21.761 -19.592  0.00  0.00    +0.103 C 
ATOM      4  C   UNL     1      34.028 -22.620 -18.581  0.00  0.00    +0.106 C 
ATOM      5  C   UNL     1      32.564 -22.203 -18.713  0.00  0.00    +0.096 C 
ATOM      6  C   UNL     1      32.630 -20.801 -19.275  0.00  0.00    +0.226 C 
ENDROOT
BRANCH   2   7
ATOM      7  C   UNL     1      34.383 -19.421 -20.437  0.00  0.00    +0.075 C 
ATOM      8  C   UNL     1      35.913 -19.364 -20.454  0.00  0.00    +0.020 C 
ATOM      9  C   UNL     1      33.808 -19.375 -21.855  0.00  0.00    +0.020 C 
ATOM     10  C   UNL     1      36.422 -18.153 -21.230  0.00  0.00    +0.002 C 
ATOM     11  C   UNL     1      34.321 -18.164 -22.631  0.00  0.00    +0.002 C 
ATOM     12  C   UNL     1      35.847 -18.107 -22.643  0.00  0.00    +0.000 C 
ENDBRANCH   2   7
BRANCH   4  15
ATOM     13  O   UNL     1      35.277 -21.451 -16.931  0.00  0.00    -0.275 OA
ATOM     14  N   UNL     1      34.032 -23.349 -16.310  0.00  0.00    -0.284 N 
ATOM     15  C   UNL     1      34.528 -22.388 -17.184  0.00  0.00    +0.228 C 
ATOM     16  H   UNL     1      33.441 -24.030 -16.703  0.00  0.00    +0.155 HD
BRANCH  14  18
ATOM     17 BR   UNL     1      37.586 -23.988 -12.476  0.00  0.00    -0.049 Br
ATOM     18  C   UNL     1      34.280 -23.458 -14.921  0.00  0.00    +0.051 C 
ATOM     19  C   UNL     1      35.578 -23.637 -14.476  0.00  0.00    +0.021 C 
ATOM     20  C   UNL     1      33.216 -23.383 -14.037  0.00  0.00    +0.015 C 
ATOM     21  C   UNL     1      35.821 -23.744 -13.106  0.00  0.00    +0.036 C 
ATOM     22  C   UNL     1      33.459 -23.490 -12.668  0.00  0.00    +0.002 C 
ATOM     23  C   UNL     1      34.762 -23.671 -12.202  0.00  0.00    +0.007 C 
ENDBRANCH  14  18
ENDBRANCH   4  15
TORSDOF 3
ENDMDL
