MODEL 1
REMARK VINA RESULT:     -11.6      0.000      0.000
REMARK  Name = 25070031
REMARK  6 active torsions:
REMARK  status: ('A' for Active; 'I' for Inactive)
REMARK    1  A    between atoms: C_1  and  O_15
REMARK    2  A    between atoms: C_4  and  C_10
REMARK    3  A    between atoms: O_15  and  C_16
REMARK    4  A    between atoms: C_16  and  C_17
REMARK    5  A    between atoms: C_17  and  C_18
REMARK    6  A    between atoms: C_18  and  N_19
REMARK                            x       y       z     vdW  Elec       q    Type
REMARK                         _______ _______ _______ _____ _____    ______ ____
ROOT
ATOM      1  C   UNL     1      34.081 -21.659 -18.697  0.00  0.00    +0.139 C 
ATOM      2  C   UNL     1      35.308 -21.192 -19.167  0.00  0.00    +0.037 C 
ATOM      3  C   UNL     1      32.893 -21.132 -19.207  0.00  0.00    +0.037 C 
ATOM      4  C   UNL     1      34.162 -19.673 -20.655  0.00  0.00    +0.019 C 
ATOM      5  C   UNL     1      35.349 -20.199 -20.146  0.00  0.00    +0.005 C 
ATOM      6  C   UNL     1      32.934 -20.139 -20.185  0.00  0.00    +0.005 C 
ENDROOT
BRANCH   4  10
ATOM      7  O   UNL     1      34.369 -15.762 -24.455  0.00  0.00    -0.268 OA
ATOM      8  N   UNL     1      33.758 -18.884 -22.884  0.00  0.00    -0.179 NA
ATOM      9  N   UNL     1      33.818 -17.897 -23.810  0.00  0.00    -0.202 N 
ATOM     10  C   UNL     1      34.206 -18.614 -21.698  0.00  0.00    +0.099 C 
ATOM     11  C   UNL     1      34.754 -17.302 -21.292  0.00  0.00    +0.025 C 
ATOM     12  C   UNL     1      34.803 -16.353 -22.226  0.00  0.00    +0.061 C 
ATOM     13  C   UNL     1      34.317 -16.636 -23.592  0.00  0.00    +0.265 C 
ATOM     14  H   UNL     1      33.478 -18.101 -24.711  0.00  0.00    +0.178 HD
ENDBRANCH   4  10
BRANCH   1  15
ATOM     15  O   UNL     1      34.040 -22.632 -17.734  0.00  0.00    -0.476 OA
BRANCH  15  16
ATOM     16  C   UNL     1      32.811 -22.797 -17.041  0.00  0.00    +0.203 C 
BRANCH  16  17
ATOM     17  C   UNL     1      33.106 -23.156 -15.591  0.00  0.00    +0.025 C 
BRANCH  17  18
ATOM     18  C   UNL     1      34.361 -22.451 -15.085  0.00  0.00    -0.073 C 
BRANCH  18  19
ATOM     19  N   UNL     1      35.527 -23.309 -15.257  0.00  0.00    +0.388 N 
ATOM     20  C   UNL     1      36.799 -22.625 -14.980  0.00  0.00    -0.058 C 
ATOM     21  C   UNL     1      37.778 -23.790 -14.812  0.00  0.00    -0.023 C 
ATOM     22  C   UNL     1      35.500 -24.443 -14.332  0.00  0.00    -0.077 C 
ATOM     23  C   UNL     1      36.921 -24.979 -14.392  0.00  0.00    -0.025 C 
ATOM     24  C   UNL     1      37.232 -21.680 -16.093  0.00  0.00    -0.023 C 
ATOM     25  H   UNL     1      35.479 -23.599 -16.234  0.00  0.00    -0.080 HD
ENDBRANCH  18  19
ENDBRANCH  17  18
ENDBRANCH  16  17
ENDBRANCH  15  16
ENDBRANCH   1  15
TORSDOF 6
ENDMDL
MODEL 2
REMARK VINA RESULT:     -11.3      3.288      9.639
REMARK  Name = 25070031
REMARK  6 active torsions:
REMARK  status: ('A' for Active; 'I' for Inactive)
REMARK    1  A    between atoms: C_1  and  O_15
REMARK    2  A    between atoms: C_4  and  C_10
REMARK    3  A    between atoms: O_15  and  C_16
REMARK    4  A    between atoms: C_16  and  C_17
REMARK    5  A    between atoms: C_17  and  C_18
REMARK    6  A    between atoms: C_18  and  N_19
REMARK                            x       y       z     vdW  Elec       q    Type
REMARK                         _______ _______ _______ _____ _____    ______ ____
ROOT
ATOM      1  C   UNL     1      34.417 -16.668 -23.299  0.00  0.00    +0.139 C 
ATOM      2  C   UNL     1      33.885 -17.912 -23.638  0.00  0.00    +0.037 C 
ATOM      3  C   UNL     1      34.901 -16.444 -22.010  0.00  0.00    +0.037 C 
ATOM      4  C   UNL     1      34.324 -18.710 -21.401  0.00  0.00    +0.019 C 
ATOM      5  C   UNL     1      33.840 -18.933 -22.688  0.00  0.00    +0.005 C 
ATOM      6  C   UNL     1      34.855 -17.465 -21.061  0.00  0.00    +0.005 C 
ENDROOT
BRANCH   4  10
ATOM      7  O   UNL     1      34.090 -22.722 -17.709  0.00  0.00    -0.268 OA
ATOM      8  N   UNL     1      35.382 -20.211 -19.857  0.00  0.00    -0.179 NA
ATOM      9  N   UNL     1      35.298 -21.207 -18.942  0.00  0.00    -0.202 N 
ATOM     10  C   UNL     1      34.274 -19.798 -20.388  0.00  0.00    +0.099 C 
ATOM     11  C   UNL     1      32.935 -20.326 -20.044  0.00  0.00    +0.025 C 
ATOM     12  C   UNL     1      32.887 -21.307 -19.143  0.00  0.00    +0.061 C 
ATOM     13  C   UNL     1      34.134 -21.812 -18.535  0.00  0.00    +0.265 C 
ATOM     14  H   UNL     1      36.139 -21.522 -18.539  0.00  0.00    +0.178 HD
ENDBRANCH   4  10
BRANCH   1  15
ATOM     15  O   UNL     1      34.459 -15.664 -24.231  0.00  0.00    -0.476 OA
BRANCH  15  16
ATOM     16  C   UNL     1      33.216 -15.237 -24.770  0.00  0.00    +0.203 C 
BRANCH  16  17
ATOM     17  C   UNL     1      33.085 -13.732 -24.572  0.00  0.00    +0.025 C 
BRANCH  17  18
ATOM     18  C   UNL     1      33.468 -13.319 -23.155  0.00  0.00    -0.073 C 
BRANCH  18  19
ATOM     19  N   UNL     1      32.361 -12.616 -22.517  0.00  0.00    +0.388 N 
ATOM     20  C   UNL     1      32.497 -12.520 -21.056  0.00  0.00    -0.058 C 
ATOM     21  C   UNL     1      31.494 -11.422 -20.695  0.00  0.00    -0.023 C 
ATOM     22  C   UNL     1      32.268 -11.229 -22.978  0.00  0.00    -0.077 C 
ATOM     23  C   UNL     1      31.344 -10.583 -21.959  0.00  0.00    -0.025 C 
ATOM     24  C   UNL     1      32.189 -13.826 -20.334  0.00  0.00    -0.023 C 
ATOM     25  H   UNL     1      31.541 -13.168 -22.767  0.00  0.00    -0.080 HD
ENDBRANCH  18  19
ENDBRANCH  17  18
ENDBRANCH  16  17
ENDBRANCH  15  16
ENDBRANCH   1  15
TORSDOF 6
ENDMDL
MODEL 3
REMARK VINA RESULT:     -11.2      2.471      3.806
REMARK  Name = 25070031
REMARK  6 active torsions:
REMARK  status: ('A' for Active; 'I' for Inactive)
REMARK    1  A    between atoms: C_1  and  O_15
REMARK    2  A    between atoms: C_4  and  C_10
REMARK    3  A    between atoms: O_15  and  C_16
REMARK    4  A    between atoms: C_16  and  C_17
REMARK    5  A    between atoms: C_17  and  C_18
REMARK    6  A    between atoms: C_18  and  N_19
REMARK                            x       y       z     vdW  Elec       q    Type
REMARK                         _______ _______ _______ _____ _____    ______ ____
ROOT
ATOM      1  C   UNL     1      34.264 -21.321 -18.922  0.00  0.00    +0.139 C 
ATOM      2  C   UNL     1      33.045 -20.875 -19.433  0.00  0.00    +0.037 C 
ATOM      3  C   UNL     1      35.460 -20.823 -19.440  0.00  0.00    +0.037 C 
ATOM      4  C   UNL     1      34.217 -19.434 -20.977  0.00  0.00    +0.019 C 
ATOM      5  C   UNL     1      33.022 -19.931 -20.460  0.00  0.00    +0.005 C 
ATOM      6  C   UNL     1      35.437 -19.880 -20.467  0.00  0.00    +0.005 C 
ENDROOT
BRANCH   4  10
ATOM      7  O   UNL     1      34.172 -15.721 -24.976  0.00  0.00    -0.268 OA
ATOM      8  N   UNL     1      33.671 -18.759 -23.213  0.00  0.00    -0.179 NA
ATOM      9  N   UNL     1      33.670 -17.820 -24.190  0.00  0.00    -0.202 N 
ATOM     10  C   UNL     1      34.192 -18.429 -22.073  0.00  0.00    +0.099 C 
ATOM     11  C   UNL     1      34.760 -17.097 -21.769  0.00  0.00    +0.025 C 
ATOM     12  C   UNL     1      34.747 -16.197 -22.751  0.00  0.00    +0.061 C 
ATOM     13  C   UNL     1      34.177 -16.549 -24.067  0.00  0.00    +0.265 C 
ATOM     14  H   UNL     1      33.275 -18.069 -25.056  0.00  0.00    +0.178 HD
ENDBRANCH   4  10
BRANCH   1  15
ATOM     15  O   UNL     1      34.287 -22.249 -17.915  0.00  0.00    -0.476 OA
BRANCH  15  16
ATOM     16  C   UNL     1      33.118 -23.041 -17.747  0.00  0.00    +0.203 C 
BRANCH  16  17
ATOM     17  C   UNL     1      32.606 -22.866 -16.324  0.00  0.00    +0.025 C 
BRANCH  17  18
ATOM     18  C   UNL     1      31.107 -22.584 -16.299  0.00  0.00    -0.073 C 
BRANCH  18  19
ATOM     19  N   UNL     1      30.506 -23.152 -15.098  0.00  0.00    +0.388 N 
ATOM     20  C   UNL     1      29.591 -24.268 -15.376  0.00  0.00    -0.058 C 
ATOM     21  C   UNL     1      29.444 -24.934 -14.006  0.00  0.00    -0.023 C 
ATOM     22  C   UNL     1      31.521 -23.711 -14.203  0.00  0.00    -0.077 C 
ATOM     23  C   UNL     1      30.708 -24.561 -13.240  0.00  0.00    -0.025 C 
ATOM     24  C   UNL     1      28.246 -23.822 -15.935  0.00  0.00    -0.023 C 
ATOM     25  H   UNL     1      30.003 -22.369 -14.680  0.00  0.00    -0.080 HD
ENDBRANCH  18  19
ENDBRANCH  17  18
ENDBRANCH  16  17
ENDBRANCH  15  16
ENDBRANCH   1  15
TORSDOF 6
ENDMDL
MODEL 4
REMARK VINA RESULT:     -11.2      1.575      2.374
REMARK  Name = 25070031
REMARK  6 active torsions:
REMARK  status: ('A' for Active; 'I' for Inactive)
REMARK    1  A    between atoms: C_1  and  O_15
REMARK    2  A    between atoms: C_4  and  C_10
REMARK    3  A    between atoms: O_15  and  C_16
REMARK    4  A    between atoms: C_16  and  C_17
REMARK    5  A    between atoms: C_17  and  C_18
REMARK    6  A    between atoms: C_18  and  N_19
REMARK                            x       y       z     vdW  Elec       q    Type
REMARK                         _______ _______ _______ _____ _____    ______ ____
ROOT
ATOM      1  C   UNL     1      34.930 -21.037 -19.003  0.00  0.00    +0.139 C 
ATOM      2  C   UNL     1      33.660 -20.779 -19.519  0.00  0.00    +0.037 C 
ATOM      3  C   UNL     1      36.042 -20.378 -19.528  0.00  0.00    +0.037 C 
ATOM      4  C   UNL     1      34.613 -19.205 -21.083  0.00  0.00    +0.019 C 
ATOM      5  C   UNL     1      33.502 -19.863 -20.559  0.00  0.00    +0.005 C 
ATOM      6  C   UNL     1      35.884 -19.462 -20.568  0.00  0.00    +0.005 C 
ENDROOT
BRANCH   4  10
ATOM      7  O   UNL     1      33.946 -15.653 -25.172  0.00  0.00    -0.268 OA
ATOM      8  N   UNL     1      34.946 -17.041 -22.063  0.00  0.00    -0.179 NA
ATOM      9  N   UNL     1      34.769 -16.177 -23.092  0.00  0.00    -0.202 N 
ATOM     10  C   UNL     1      34.445 -18.229 -22.193  0.00  0.00    +0.099 C 
ATOM     11  C   UNL     1      33.717 -18.703 -23.391  0.00  0.00    +0.025 C 
ATOM     12  C   UNL     1      33.557 -17.829 -24.384  0.00  0.00    +0.061 C 
ATOM     13  C   UNL     1      34.100 -16.461 -24.258  0.00  0.00    +0.265 C 
ATOM     14  H   UNL     1      35.149 -15.274 -22.995  0.00  0.00    +0.178 HD
ENDBRANCH   4  10
BRANCH   1  15
ATOM     15  O   UNL     1      35.085 -21.938 -17.983  0.00  0.00    -0.476 OA
BRANCH  15  16
ATOM     16  C   UNL     1      36.092 -21.651 -17.022  0.00  0.00    +0.203 C 
BRANCH  16  17
ATOM     17  C   UNL     1      35.898 -22.563 -15.818  0.00  0.00    +0.025 C 
BRANCH  17  18
ATOM     18  C   UNL     1      37.222 -22.855 -15.118  0.00  0.00    -0.073 C 
BRANCH  18  19
ATOM     19  N   UNL     1      37.120 -24.081 -14.335  0.00  0.00    +0.388 N 
ATOM     20  C   UNL     1      38.363 -24.424 -13.628  0.00  0.00    -0.058 C 
ATOM     21  C   UNL     1      37.889 -25.446 -12.591  0.00  0.00    -0.023 C 
ATOM     22  C   UNL     1      36.109 -23.963 -13.283  0.00  0.00    -0.077 C 
ATOM     23  C   UNL     1      36.411 -25.143 -12.373  0.00  0.00    -0.025 C 
ATOM     24  C   UNL     1      39.437 -25.003 -14.541  0.00  0.00    -0.023 C 
ATOM     25  H   UNL     1      36.888 -24.796 -15.024  0.00  0.00    -0.080 HD
ENDBRANCH  18  19
ENDBRANCH  17  18
ENDBRANCH  16  17
ENDBRANCH  15  16
ENDBRANCH   1  15
TORSDOF 6
ENDMDL
MODEL 5
REMARK VINA RESULT:     -11.0      1.370      1.948
REMARK  Name = 25070031
REMARK  6 active torsions:
REMARK  status: ('A' for Active; 'I' for Inactive)
REMARK    1  A    between atoms: C_1  and  O_15
REMARK    2  A    between atoms: C_4  and  C_10
REMARK    3  A    between atoms: O_15  and  C_16
REMARK    4  A    between atoms: C_16  and  C_17
REMARK    5  A    between atoms: C_17  and  C_18
REMARK    6  A    between atoms: C_18  and  N_19
REMARK                            x       y       z     vdW  Elec       q    Type
REMARK                         _______ _______ _______ _____ _____    ______ ____
ROOT
ATOM      1  C   UNL     1      34.224 -21.808 -18.511  0.00  0.00    +0.139 C 
ATOM      2  C   UNL     1      35.457 -21.275 -18.885  0.00  0.00    +0.037 C 
ATOM      3  C   UNL     1      33.050 -21.316 -19.082  0.00  0.00    +0.037 C 
ATOM      4  C   UNL     1      34.344 -19.760 -20.401  0.00  0.00    +0.019 C 
ATOM      5  C   UNL     1      35.517 -20.251 -19.830  0.00  0.00    +0.005 C 
ATOM      6  C   UNL     1      33.110 -20.292 -20.027  0.00  0.00    +0.005 C 
ENDROOT
BRANCH   4  10
ATOM      7  O   UNL     1      34.533 -15.772 -24.122  0.00  0.00    -0.268 OA
ATOM      8  N   UNL     1      34.937 -17.533 -21.068  0.00  0.00    -0.179 NA
ATOM      9  N   UNL     1      34.974 -16.559 -22.009  0.00  0.00    -0.202 N 
ATOM     10  C   UNL     1      34.408 -18.667 -21.408  0.00  0.00    +0.099 C 
ATOM     11  C   UNL     1      33.868 -18.967 -22.752  0.00  0.00    +0.025 C 
ATOM     12  C   UNL     1      33.916 -17.988 -23.654  0.00  0.00    +0.061 C 
ATOM     13  C   UNL     1      34.495 -16.678 -23.292  0.00  0.00    +0.265 C 
ATOM     14  H   UNL     1      35.375 -15.697 -21.753  0.00  0.00    +0.178 HD
ENDBRANCH   4  10
BRANCH   1  15
ATOM     15  O   UNL     1      34.165 -22.812 -17.581  0.00  0.00    -0.476 OA
BRANCH  15  16
ATOM     16  C   UNL     1      34.071 -22.419 -16.218  0.00  0.00    +0.203 C 
BRANCH  16  17
ATOM     17  C   UNL     1      35.108 -23.188 -15.411  0.00  0.00    +0.025 C 
BRANCH  17  18
ATOM     18  C   UNL     1      34.450 -24.111 -14.390  0.00  0.00    -0.073 C 
BRANCH  18  19
ATOM     19  N   UNL     1      35.455 -24.672 -13.494  0.00  0.00    +0.388 N 
ATOM     20  C   UNL     1      36.659 -25.143 -14.192  0.00  0.00    -0.058 C 
ATOM     21  C   UNL     1      37.679 -25.271 -13.058  0.00  0.00    -0.023 C 
ATOM     22  C   UNL     1      35.940 -23.673 -12.539  0.00  0.00    -0.077 C 
ATOM     23  C   UNL     1      37.199 -24.310 -11.976  0.00  0.00    -0.025 C 
ATOM     24  C   UNL     1      36.456 -26.465 -14.921  0.00  0.00    -0.023 C 
ATOM     25  H   UNL     1      34.975 -25.448 -13.039  0.00  0.00    -0.080 HD
ENDBRANCH  18  19
ENDBRANCH  17  18
ENDBRANCH  16  17
ENDBRANCH  15  16
ENDBRANCH   1  15
TORSDOF 6
ENDMDL
MODEL 6
REMARK VINA RESULT:     -10.9      4.615      7.214
REMARK  Name = 25070031
REMARK  6 active torsions:
REMARK  status: ('A' for Active; 'I' for Inactive)
REMARK    1  A    between atoms: C_1  and  O_15
REMARK    2  A    between atoms: C_4  and  C_10
REMARK    3  A    between atoms: O_15  and  C_16
REMARK    4  A    between atoms: C_16  and  C_17
REMARK    5  A    between atoms: C_17  and  C_18
REMARK    6  A    between atoms: C_18  and  N_19
REMARK                            x       y       z     vdW  Elec       q    Type
REMARK                         _______ _______ _______ _____ _____    ______ ____
ROOT
ATOM      1  C   UNL     1      34.128 -15.218 -21.321  0.00  0.00    +0.139 C 
ATOM      2  C   UNL     1      34.152 -14.694 -22.613  0.00  0.00    +0.037 C 
ATOM      3  C   UNL     1      33.473 -14.527 -20.301  0.00  0.00    +0.037 C 
ATOM      4  C   UNL     1      32.868 -12.790 -21.867  0.00  0.00    +0.019 C 
ATOM      5  C   UNL     1      33.522 -13.480 -22.887  0.00  0.00    +0.005 C 
ATOM      6  C   UNL     1      32.844 -13.312 -20.574  0.00  0.00    +0.005 C 
ENDROOT
BRANCH   4  10
ATOM      7  O   UNL     1      30.390  -8.035 -22.881  0.00  0.00    -0.268 OA
ATOM      8  N   UNL     1      32.646 -10.762 -23.129  0.00  0.00    -0.179 NA
ATOM      9  N   UNL     1      32.013  -9.586 -23.362  0.00  0.00    -0.202 N 
ATOM     10  C   UNL     1      32.197 -11.495 -22.159  0.00  0.00    +0.099 C 
ATOM     11  C   UNL     1      31.036 -11.141 -21.313  0.00  0.00    +0.025 C 
ATOM     12  C   UNL     1      30.438  -9.978 -21.566  0.00  0.00    +0.061 C 
ATOM     13  C   UNL     1      30.937  -9.111 -22.652  0.00  0.00    +0.265 C 
ATOM     14  H   UNL     1      32.353  -9.028 -24.099  0.00  0.00    +0.178 HD
ENDBRANCH   4  10
BRANCH   1  15
ATOM     15  O   UNL     1      34.749 -16.409 -21.052  0.00  0.00    -0.476 OA
BRANCH  15  16
ATOM     16  C   UNL     1      35.189 -17.169 -22.170  0.00  0.00    +0.203 C 
BRANCH  16  17
ATOM     17  C   UNL     1      35.647 -18.538 -21.685  0.00  0.00    +0.025 C 
BRANCH  17  18
ATOM     18  C   UNL     1      34.461 -19.438 -21.351  0.00  0.00    -0.073 C 
BRANCH  18  19
ATOM     19  N   UNL     1      34.576 -19.940 -19.986  0.00  0.00    +0.388 N 
ATOM     20  C   UNL     1      33.618 -21.011 -19.678  0.00  0.00    -0.058 C 
ATOM     21  C   UNL     1      34.204 -21.632 -18.408  0.00  0.00    -0.023 C 
ATOM     22  C   UNL     1      35.894 -20.531 -19.742  0.00  0.00    -0.077 C 
ATOM     23  C   UNL     1      35.694 -21.310 -18.452  0.00  0.00    -0.025 C 
ATOM     24  C   UNL     1      32.198 -20.505 -19.455  0.00  0.00    -0.023 C 
ATOM     25  H   UNL     1      34.401 -19.121 -19.406  0.00  0.00    -0.080 HD
ENDBRANCH  18  19
ENDBRANCH  17  18
ENDBRANCH  16  17
ENDBRANCH  15  16
ENDBRANCH   1  15
TORSDOF 6
ENDMDL
MODEL 7
REMARK VINA RESULT:     -10.9      1.237      1.884
REMARK  Name = 25070031
REMARK  6 active torsions:
REMARK  status: ('A' for Active; 'I' for Inactive)
REMARK    1  A    between atoms: C_1  and  O_15
REMARK    2  A    between atoms: C_4  and  C_10
REMARK    3  A    between atoms: O_15  and  C_16
REMARK    4  A    between atoms: C_16  and  C_17
REMARK    5  A    between atoms: C_17  and  C_18
REMARK    6  A    between atoms: C_18  and  N_19
REMARK                            x       y       z     vdW  Elec       q    Type
REMARK                         _______ _______ _______ _____ _____    ______ ____
ROOT
ATOM      1  C   UNL     1      34.527 -21.524 -18.566  0.00  0.00    +0.139 C 
ATOM      2  C   UNL     1      35.701 -20.968 -19.072  0.00  0.00    +0.037 C 
ATOM      3  C   UNL     1      33.291 -21.133 -19.084  0.00  0.00    +0.037 C 
ATOM      4  C   UNL     1      34.408 -19.633 -20.614  0.00  0.00    +0.019 C 
ATOM      5  C   UNL     1      35.642 -20.023 -20.096  0.00  0.00    +0.005 C 
ATOM      6  C   UNL     1      33.232 -20.187 -20.107  0.00  0.00    +0.005 C 
ENDROOT
BRANCH   4  10
ATOM      7  O   UNL     1      34.221 -15.904 -24.594  0.00  0.00    -0.268 OA
ATOM      8  N   UNL     1      33.848 -18.972 -22.851  0.00  0.00    -0.179 NA
ATOM      9  N   UNL     1      33.811 -18.029 -23.822  0.00  0.00    -0.202 N 
ATOM     10  C   UNL     1      34.345 -18.624 -21.705  0.00  0.00    +0.099 C 
ATOM     11  C   UNL     1      34.848 -17.270 -21.389  0.00  0.00    +0.025 C 
ATOM     12  C   UNL     1      34.800 -16.366 -22.367  0.00  0.00    +0.061 C 
ATOM     13  C   UNL     1      34.258 -16.736 -23.689  0.00  0.00    +0.265 C 
ATOM     14  H   UNL     1      33.434 -18.291 -24.693  0.00  0.00    +0.178 HD
ENDBRANCH   4  10
BRANCH   1  15
ATOM     15  O   UNL     1      34.585 -22.450 -17.558  0.00  0.00    -0.476 OA
BRANCH  15  16
ATOM     16  C   UNL     1      35.323 -22.089 -16.398  0.00  0.00    +0.203 C 
BRANCH  16  17
ATOM     17  C   UNL     1      35.326 -23.266 -15.431  0.00  0.00    +0.025 C 
BRANCH  17  18
ATOM     18  C   UNL     1      35.492 -22.803 -13.987  0.00  0.00    -0.073 C 
BRANCH  18  19
ATOM     19  N   UNL     1      36.546 -23.566 -13.329  0.00  0.00    +0.388 N 
ATOM     20  C   UNL     1      36.035 -24.657 -12.487  0.00  0.00    -0.058 C 
ATOM     21  C   UNL     1      37.274 -25.529 -12.274  0.00  0.00    -0.023 C 
ATOM     22  C   UNL     1      37.421 -24.221 -14.304  0.00  0.00    -0.077 C 
ATOM     23  C   UNL     1      38.182 -25.235 -13.464  0.00  0.00    -0.025 C 
ATOM     24  C   UNL     1      35.450 -24.176 -11.165  0.00  0.00    -0.023 C 
ATOM     25  H   UNL     1      37.037 -22.874 -12.764  0.00  0.00    -0.080 HD
ENDBRANCH  18  19
ENDBRANCH  17  18
ENDBRANCH  16  17
ENDBRANCH  15  16
ENDBRANCH   1  15
TORSDOF 6
ENDMDL
MODEL 8
REMARK VINA RESULT:     -10.8      5.165     10.911
REMARK  Name = 25070031
REMARK  6 active torsions:
REMARK  status: ('A' for Active; 'I' for Inactive)
REMARK    1  A    between atoms: C_1  and  O_15
REMARK    2  A    between atoms: C_4  and  C_10
REMARK    3  A    between atoms: O_15  and  C_16
REMARK    4  A    between atoms: C_16  and  C_17
REMARK    5  A    between atoms: C_17  and  C_18
REMARK    6  A    between atoms: C_18  and  N_19
REMARK                            x       y       z     vdW  Elec       q    Type
REMARK                         _______ _______ _______ _____ _____    ______ ____
ROOT
ATOM      1  C   UNL     1      33.764 -14.417 -23.268  0.00  0.00    +0.139 C 
ATOM      2  C   UNL     1      34.060 -15.583 -23.972  0.00  0.00    +0.037 C 
ATOM      3  C   UNL     1      33.853 -14.401 -21.875  0.00  0.00    +0.037 C 
ATOM      4  C   UNL     1      34.537 -16.718 -21.894  0.00  0.00    +0.019 C 
ATOM      5  C   UNL     1      34.447 -16.734 -23.285  0.00  0.00    +0.005 C 
ATOM      6  C   UNL     1      34.239 -15.552 -21.188  0.00  0.00    +0.005 C 
ENDROOT
BRANCH   4  10
ATOM      7  O   UNL     1      36.006 -21.254 -19.238  0.00  0.00    -0.268 OA
ATOM      8  N   UNL     1      36.156 -18.024 -20.699  0.00  0.00    -0.179 NA
ATOM      9  N   UNL     1      36.497 -19.159 -20.042  0.00  0.00    -0.202 N 
ATOM     10  C   UNL     1      34.948 -17.946 -21.162  0.00  0.00    +0.099 C 
ATOM     11  C   UNL     1      33.923 -19.000 -21.001  0.00  0.00    +0.025 C 
ATOM     12  C   UNL     1      34.290 -20.105 -20.353  0.00  0.00    +0.061 C 
ATOM     13  C   UNL     1      35.665 -20.231 -19.830  0.00  0.00    +0.265 C 
ATOM     14  H   UNL     1      37.414 -19.219 -19.690  0.00  0.00    +0.178 HD
ENDBRANCH   4  10
BRANCH   1  15
ATOM     15  O   UNL     1      33.381 -13.287 -23.942  0.00  0.00    -0.476 OA
BRANCH  15  16
ATOM     16  C   UNL     1      32.391 -12.476 -23.324  0.00  0.00    +0.203 C 
BRANCH  16  17
ATOM     17  C   UNL     1      32.900 -11.043 -23.255  0.00  0.00    +0.025 C 
BRANCH  17  18
ATOM     18  C   UNL     1      31.779 -10.066 -22.914  0.00  0.00    -0.073 C 
BRANCH  18  19
ATOM     19  N   UNL     1      31.916  -9.599 -21.540  0.00  0.00    +0.388 N 
ATOM     20  C   UNL     1      31.543  -8.188 -21.365  0.00  0.00    -0.058 C 
ATOM     21  C   UNL     1      31.361  -8.073 -19.849  0.00  0.00    -0.023 C 
ATOM     22  C   UNL     1      31.033 -10.337 -20.633  0.00  0.00    -0.077 C 
ATOM     23  C   UNL     1      31.033  -9.484 -19.374  0.00  0.00    -0.025 C 
ATOM     24  C   UNL     1      32.596  -7.217 -21.883  0.00  0.00    -0.023 C 
ATOM     25  H   UNL     1      32.903  -9.741 -21.327  0.00  0.00    -0.080 HD
ENDBRANCH  18  19
ENDBRANCH  17  18
ENDBRANCH  16  17
ENDBRANCH  15  16
ENDBRANCH   1  15
TORSDOF 6
ENDMDL
MODEL 9
REMARK VINA RESULT:     -10.7      2.875      9.112
REMARK  Name = 25070031
REMARK  6 active torsions:
REMARK  status: ('A' for Active; 'I' for Inactive)
REMARK    1  A    between atoms: C_1  and  O_15
REMARK    2  A    between atoms: C_4  and  C_10
REMARK    3  A    between atoms: O_15  and  C_16
REMARK    4  A    between atoms: C_16  and  C_17
REMARK    5  A    between atoms: C_17  and  C_18
REMARK    6  A    between atoms: C_18  and  N_19
REMARK                            x       y       z     vdW  Elec       q    Type
REMARK                         _______ _______ _______ _____ _____    ______ ____
ROOT
ATOM      1  C   UNL     1      34.756 -19.556 -21.118  0.00  0.00    +0.139 C 
ATOM      2  C   UNL     1      33.364 -19.543 -21.025  0.00  0.00    +0.037 C 
ATOM      3  C   UNL     1      35.509 -20.287 -20.198  0.00  0.00    +0.037 C 
ATOM      4  C   UNL     1      33.478 -20.992 -19.096  0.00  0.00    +0.019 C 
ATOM      5  C   UNL     1      32.725 -20.261 -20.014  0.00  0.00    +0.005 C 
ATOM      6  C   UNL     1      34.870 -21.005 -19.187  0.00  0.00    +0.005 C 
ENDROOT
BRANCH   4  10
ATOM      7  O   UNL     1      31.023 -23.790 -15.105  0.00  0.00    -0.268 OA
ATOM      8  N   UNL     1      31.500 -21.762 -17.977  0.00  0.00    -0.179 NA
ATOM      9  N   UNL     1      30.914 -22.465 -16.978  0.00  0.00    -0.202 N 
ATOM     10  C   UNL     1      32.796 -21.756 -18.018  0.00  0.00    +0.099 C 
ATOM     11  C   UNL     1      33.664 -22.479 -17.063  0.00  0.00    +0.025 C 
ATOM     12  C   UNL     1      33.057 -23.159 -16.091  0.00  0.00    +0.061 C 
ATOM     13  C   UNL     1      31.583 -23.169 -16.007  0.00  0.00    +0.265 C 
ATOM     14  H   UNL     1      29.930 -22.470 -16.946  0.00  0.00    +0.178 HD
ENDBRANCH   4  10
BRANCH   1  15
ATOM     15  O   UNL     1      35.384 -18.849 -22.109  0.00  0.00    -0.476 OA
BRANCH  15  16
ATOM     16  C   UNL     1      34.582 -17.945 -22.858  0.00  0.00    +0.203 C 
BRANCH  16  17
ATOM     17  C   UNL     1      34.815 -16.533 -22.338  0.00  0.00    +0.025 C 
BRANCH  17  18
ATOM     18  C   UNL     1      34.345 -15.483 -23.340  0.00  0.00    -0.073 C 
BRANCH  18  19
ATOM     19  N   UNL     1      34.011 -14.241 -22.652  0.00  0.00    +0.388 N 
ATOM     20  C   UNL     1      32.750 -13.643 -23.112  0.00  0.00    -0.058 C 
ATOM     21  C   UNL     1      32.422 -12.648 -21.995  0.00  0.00    -0.023 C 
ATOM     22  C   UNL     1      33.824 -14.458 -21.216  0.00  0.00    -0.077 C 
ATOM     23  C   UNL     1      33.133 -13.184 -20.757  0.00  0.00    -0.025 C 
ATOM     24  C   UNL     1      32.866 -12.953 -24.465  0.00  0.00    -0.023 C 
ATOM     25  H   UNL     1      34.798 -13.626 -22.856  0.00  0.00    -0.080 HD
ENDBRANCH  18  19
ENDBRANCH  17  18
ENDBRANCH  16  17
ENDBRANCH  15  16
ENDBRANCH   1  15
TORSDOF 6
ENDMDL
