MODEL 1
REMARK VINA RESULT:     -12.7      0.000      0.000
REMARK  Name = 11574606
REMARK  6 active torsions:
REMARK  status: ('A' for Active; 'I' for Inactive)
REMARK    1  A    between atoms: C_5  and  O_24
REMARK    2  A    between atoms: C_7  and  N_10
REMARK    3  A    between atoms: N_10  and  C_12
REMARK    4  A    between atoms: C_15  and  S_18
REMARK    5  A    between atoms: S_18  and  N_21
REMARK    6  A    between atoms: O_24  and  C_25
REMARK                            x       y       z     vdW  Elec       q    Type
REMARK                         _______ _______ _______ _____ _____    ______ ____
ROOT
ATOM      1  N   UNL     1      32.765 -23.179 -14.238  0.00  0.00    -0.299 NA
ATOM      2  N   UNL     1      31.885 -22.717 -16.429  0.00  0.00    -0.106 N 
ATOM      3  N   UNL     1      30.684 -22.428 -16.995  0.00  0.00    -0.139 NA
ATOM      4  N   UNL     1      30.441 -22.699 -14.746  0.00  0.00    -0.145 NA
ATOM      5  C   UNL     1      33.909 -23.297 -14.832  0.00  0.00    +0.291 C 
ATOM      6  C   UNL     1      34.200 -23.147 -16.274  0.00  0.00    +0.105 C 
ATOM      7  C   UNL     1      33.139 -22.852 -17.044  0.00  0.00    +0.142 C 
ATOM      8  C   UNL     1      31.711 -22.880 -15.049  0.00  0.00    +0.178 C 
ATOM      9  C   UNL     1      29.867 -22.430 -15.946  0.00  0.00    +0.230 C 
ENDROOT
BRANCH   7  10
ATOM     10  N   UNL     1      33.201 -22.674 -18.397  0.00  0.00    -0.299 N 
ATOM     11  H   UNL     1      32.837 -23.407 -18.944  0.00  0.00    +0.153 HD
BRANCH  10  12
ATOM     12  C   UNL     1      33.718 -21.584 -19.106  0.00  0.00    +0.049 C 
ATOM     13  C   UNL     1      35.097 -21.339 -19.125  0.00  0.00    +0.016 C 
ATOM     14  C   UNL     1      32.862 -20.724 -19.807  0.00  0.00    +0.016 C 
ATOM     15  C   UNL     1      34.752 -19.401 -20.526  0.00  0.00    +0.122 C 
ATOM     16  C   UNL     1      35.612 -20.252 -19.832  0.00  0.00    +0.021 C 
ATOM     17  C   UNL     1      33.377 -19.638 -20.513  0.00  0.00    +0.021 C 
BRANCH  15  18
ATOM     18  S   UNL     1      35.396 -18.041 -21.410  0.00  0.00    +0.057 S 
ATOM     19  O   UNL     1      35.039 -18.196 -22.815  0.00  0.00    -0.153 OA
ATOM     20  O   UNL     1      35.038 -16.818 -20.705  0.00  0.00    -0.153 OA
BRANCH  18  21
ATOM     21  N   UNL     1      37.075 -18.304 -21.236  0.00  0.00    -0.203 NA
ATOM     22  H   UNL     1      37.250 -18.821 -20.374  0.00  0.00    +0.144 HD
ATOM     23  H   UNL     1      37.558 -17.406 -21.198  0.00  0.00    +0.144 HD
ENDBRANCH  18  21
ENDBRANCH  15  18
ENDBRANCH  10  12
ENDBRANCH   7  10
BRANCH   5  24
ATOM     24  O   UNL     1      35.018 -23.594 -14.112  0.00  0.00    -0.455 OA
BRANCH  24  25
ATOM     25  C   UNL     1      36.046 -24.146 -14.931  0.00  0.00    +0.169 C 
ATOM     26  C   UNL     1      37.387 -23.493 -14.590  0.00  0.00    +0.044 C 
ATOM     27  C   UNL     1      36.085 -25.659 -14.715  0.00  0.00    +0.044 C 
ATOM     28  C   UNL     1      37.867 -23.866 -13.186  0.00  0.00    +0.004 C 
ATOM     29  C   UNL     1      36.571 -26.029 -13.314  0.00  0.00    +0.004 C 
ATOM     30  C   UNL     1      37.913 -25.380 -12.992  0.00  0.00    +0.000 C 
ENDBRANCH  24  25
ENDBRANCH   5  24
TORSDOF 6
ENDMDL
MODEL 2
REMARK VINA RESULT:     -11.0      1.913      5.259
REMARK  Name = 11574606
REMARK  6 active torsions:
REMARK  status: ('A' for Active; 'I' for Inactive)
REMARK    1  A    between atoms: C_5  and  O_24
REMARK    2  A    between atoms: C_7  and  N_10
REMARK    3  A    between atoms: N_10  and  C_12
REMARK    4  A    between atoms: C_15  and  S_18
REMARK    5  A    between atoms: S_18  and  N_21
REMARK    6  A    between atoms: O_24  and  C_25
REMARK                            x       y       z     vdW  Elec       q    Type
REMARK                         _______ _______ _______ _____ _____    ______ ____
ROOT
ATOM      1  N   UNL     1      31.583 -23.077 -14.922  0.00  0.00    -0.299 NA
ATOM      2  N   UNL     1      33.707 -23.277 -16.031  0.00  0.00    -0.106 N 
ATOM      3  N   UNL     1      34.965 -23.697 -15.736  0.00  0.00    -0.139 NA
ATOM      4  N   UNL     1      33.619 -23.930 -13.914  0.00  0.00    -0.145 NA
ATOM      5  C   UNL     1      31.152 -22.606 -16.048  0.00  0.00    +0.291 C 
ATOM      6  C   UNL     1      31.917 -22.405 -17.297  0.00  0.00    +0.105 C 
ATOM      7  C   UNL     1      33.212 -22.761 -17.238  0.00  0.00    +0.142 C 
ATOM      8  C   UNL     1      32.900 -23.429 -14.898  0.00  0.00    +0.178 C 
ATOM      9  C   UNL     1      34.850 -24.074 -14.466  0.00  0.00    +0.230 C 
ENDROOT
BRANCH   7  10
ATOM     10  N   UNL     1      34.084 -22.654 -18.285  0.00  0.00    -0.299 N 
ATOM     11  H   UNL     1      34.559 -23.479 -18.533  0.00  0.00    +0.153 HD
BRANCH  10  12
ATOM     12  C   UNL     1      34.388 -21.522 -19.048  0.00  0.00    +0.049 C 
ATOM     13  C   UNL     1      33.384 -20.858 -19.763  0.00  0.00    +0.016 C 
ATOM     14  C   UNL     1      35.702 -21.038 -19.106  0.00  0.00    +0.016 C 
ATOM     15  C   UNL     1      34.999 -19.255 -20.577  0.00  0.00    +0.122 C 
ATOM     16  C   UNL     1      33.688 -19.728 -20.525  0.00  0.00    +0.021 C 
ATOM     17  C   UNL     1      36.005 -19.910 -19.867  0.00  0.00    +0.021 C 
BRANCH  15  18
ATOM     18  S   UNL     1      35.380 -17.843 -21.529  0.00  0.00    +0.057 S 
ATOM     19  O   UNL     1      34.786 -18.006 -22.850  0.00  0.00    -0.153 OA
ATOM     20  O   UNL     1      35.078 -16.656 -20.741  0.00  0.00    -0.153 OA
BRANCH  18  21
ATOM     21  N   UNL     1      37.077 -17.992 -21.667  0.00  0.00    -0.203 NA
ATOM     22  H   UNL     1      37.492 -17.065 -21.770  0.00  0.00    +0.144 HD
ATOM     23  H   UNL     1      37.303 -18.557 -22.485  0.00  0.00    +0.144 HD
ENDBRANCH  18  21
ENDBRANCH  15  18
ENDBRANCH  10  12
ENDBRANCH   7  10
BRANCH   5  24
ATOM     24  O   UNL     1      29.857 -22.228 -16.172  0.00  0.00    -0.455 OA
BRANCH  24  25
ATOM     25  C   UNL     1      28.964 -23.250 -15.732  0.00  0.00    +0.169 C 
ATOM     26  C   UNL     1      28.304 -22.830 -14.418  0.00  0.00    +0.044 C 
ATOM     27  C   UNL     1      27.929 -23.502 -16.828  0.00  0.00    +0.044 C 
ATOM     28  C   UNL     1      27.356 -21.644 -14.604  0.00  0.00    +0.004 C 
ATOM     29  C   UNL     1      26.981 -22.317 -17.009  0.00  0.00    +0.004 C 
ATOM     30  C   UNL     1      26.321 -21.917 -15.693  0.00  0.00    +0.000 C 
ENDBRANCH  24  25
ENDBRANCH   5  24
TORSDOF 6
ENDMDL
MODEL 3
REMARK VINA RESULT:     -10.9      1.962      4.742
REMARK  Name = 11574606
REMARK  6 active torsions:
REMARK  status: ('A' for Active; 'I' for Inactive)
REMARK    1  A    between atoms: C_5  and  O_24
REMARK    2  A    between atoms: C_7  and  N_10
REMARK    3  A    between atoms: N_10  and  C_12
REMARK    4  A    between atoms: C_15  and  S_18
REMARK    5  A    between atoms: S_18  and  N_21
REMARK    6  A    between atoms: O_24  and  C_25
REMARK                            x       y       z     vdW  Elec       q    Type
REMARK                         _______ _______ _______ _____ _____    ______ ____
ROOT
ATOM      1  N   UNL     1      33.241 -22.809 -14.217  0.00  0.00    -0.299 NA
ATOM      2  N   UNL     1      34.838 -22.627 -16.005  0.00  0.00    -0.106 N 
ATOM      3  N   UNL     1      36.186 -22.520 -16.150  0.00  0.00    -0.139 NA
ATOM      4  N   UNL     1      35.646 -22.638 -13.940  0.00  0.00    -0.145 NA
ATOM      5  C   UNL     1      32.347 -22.844 -15.152  0.00  0.00    +0.291 C 
ATOM      6  C   UNL     1      32.564 -22.776 -16.614  0.00  0.00    +0.105 C 
ATOM      7  C   UNL     1      33.847 -22.667 -16.998  0.00  0.00    +0.142 C 
ATOM      8  C   UNL     1      34.532 -22.698 -14.641  0.00  0.00    +0.178 C 
ATOM      9  C   UNL     1      36.609 -22.533 -14.890  0.00  0.00    +0.230 C 
ENDROOT
BRANCH   7  10
ATOM     10  N   UNL     1      34.253 -22.592 -18.300  0.00  0.00    -0.299 N 
ATOM     11  H   UNL     1      34.455 -23.450 -18.737  0.00  0.00    +0.153 HD
BRANCH  10  12
ATOM     12  C   UNL     1      34.420 -21.451 -19.092  0.00  0.00    +0.049 C 
ATOM     13  C   UNL     1      35.697 -20.923 -19.316  0.00  0.00    +0.016 C 
ATOM     14  C   UNL     1      33.310 -20.823 -19.674  0.00  0.00    +0.016 C 
ATOM     15  C   UNL     1      34.752 -19.166 -20.680  0.00  0.00    +0.122 C 
ATOM     16  C   UNL     1      35.863 -19.785 -20.107  0.00  0.00    +0.021 C 
ATOM     17  C   UNL     1      33.476 -19.686 -20.463  0.00  0.00    +0.021 C 
BRANCH  15  18
ATOM     18  S   UNL     1      34.958 -17.743 -21.668  0.00  0.00    +0.057 S 
ATOM     19  O   UNL     1      34.112 -17.875 -22.847  0.00  0.00    -0.153 OA
ATOM     20  O   UNL     1      34.835 -16.567 -20.819  0.00  0.00    -0.153 OA
BRANCH  18  21
ATOM     21  N   UNL     1      36.592 -17.909 -22.142  0.00  0.00    -0.203 NA
ATOM     22  H   UNL     1      36.691 -17.640 -23.121  0.00  0.00    +0.144 HD
ATOM     23  H   UNL     1      36.883 -18.880 -22.025  0.00  0.00    +0.144 HD
ENDBRANCH  18  21
ENDBRANCH  15  18
ENDBRANCH  10  12
ENDBRANCH   7  10
BRANCH   5  24
ATOM     24  O   UNL     1      31.035 -22.953 -14.832  0.00  0.00    -0.455 OA
BRANCH  24  25
ATOM     25  C   UNL     1      30.266 -23.455 -15.923  0.00  0.00    +0.169 C 
ATOM     26  C   UNL     1      29.525 -24.722 -15.494  0.00  0.00    +0.044 C 
ATOM     27  C   UNL     1      29.298 -22.365 -16.384  0.00  0.00    +0.044 C 
ATOM     28  C   UNL     1      28.442 -24.431 -14.453  0.00  0.00    +0.004 C 
ATOM     29  C   UNL     1      28.215 -22.079 -15.344  0.00  0.00    +0.004 C 
ATOM     30  C   UNL     1      27.478 -23.350 -14.934  0.00  0.00    +0.000 C 
ENDBRANCH  24  25
ENDBRANCH   5  24
TORSDOF 6
ENDMDL
MODEL 4
REMARK VINA RESULT:     -10.8      3.505      7.040
REMARK  Name = 11574606
REMARK  6 active torsions:
REMARK  status: ('A' for Active; 'I' for Inactive)
REMARK    1  A    between atoms: C_5  and  O_24
REMARK    2  A    between atoms: C_7  and  N_10
REMARK    3  A    between atoms: N_10  and  C_12
REMARK    4  A    between atoms: C_15  and  S_18
REMARK    5  A    between atoms: S_18  and  N_21
REMARK    6  A    between atoms: O_24  and  C_25
REMARK                            x       y       z     vdW  Elec       q    Type
REMARK                         _______ _______ _______ _____ _____    ______ ____
ROOT
ATOM      1  N   UNL     1      31.111 -22.669 -16.554  0.00  0.00    -0.299 NA
ATOM      2  N   UNL     1      31.687 -24.084 -14.697  0.00  0.00    -0.106 N 
ATOM      3  N   UNL     1      31.063 -24.945 -13.850  0.00  0.00    -0.139 NA
ATOM      4  N   UNL     1      29.562 -24.078 -15.328  0.00  0.00    -0.145 NA
ATOM      5  C   UNL     1      32.365 -22.349 -16.571  0.00  0.00    +0.291 C 
ATOM      6  C   UNL     1      33.435 -22.836 -15.673  0.00  0.00    +0.105 C 
ATOM      7  C   UNL     1      33.041 -23.717 -14.738  0.00  0.00    +0.142 C 
ATOM      8  C   UNL     1      30.746 -23.565 -15.593  0.00  0.00    +0.178 C 
ATOM      9  C   UNL     1      29.804 -24.900 -14.275  0.00  0.00    +0.230 C 
ENDROOT
BRANCH   7  10
ATOM     10  N   UNL     1      33.877 -24.282 -13.818  0.00  0.00    -0.299 N 
ATOM     11  H   UNL     1      33.455 -24.581 -12.980  0.00  0.00    +0.153 HD
BRANCH  10  12
ATOM     12  C   UNL     1      35.258 -24.488 -13.911  0.00  0.00    +0.049 C 
ATOM     13  C   UNL     1      36.150 -23.623 -13.266  0.00  0.00    +0.016 C 
ATOM     14  C   UNL     1      35.765 -25.565 -14.651  0.00  0.00    +0.016 C 
ATOM     15  C   UNL     1      38.022 -24.904 -14.099  0.00  0.00    +0.122 C 
ATOM     16  C   UNL     1      37.527 -23.830 -13.359  0.00  0.00    +0.021 C 
ATOM     17  C   UNL     1      37.141 -25.771 -14.745  0.00  0.00    +0.021 C 
BRANCH  15  18
ATOM     18  S   UNL     1      39.744 -25.162 -14.218  0.00  0.00    +0.057 S 
ATOM     19  O   UNL     1      40.419 -23.903 -13.931  0.00  0.00    -0.153 OA
ATOM     20  O   UNL     1      40.087 -26.355 -13.457  0.00  0.00    -0.153 OA
BRANCH  18  21
ATOM     21  N   UNL     1      39.908 -25.508 -15.883  0.00  0.00    -0.203 NA
ATOM     22  H   UNL     1      39.259 -24.929 -16.416  0.00  0.00    +0.144 HD
ATOM     23  H   UNL     1      39.699 -26.493 -16.048  0.00  0.00    +0.144 HD
ENDBRANCH  18  21
ENDBRANCH  15  18
ENDBRANCH  10  12
ENDBRANCH   7  10
BRANCH   5  24
ATOM     24  O   UNL     1      32.826 -21.466 -17.488  0.00  0.00    -0.455 OA
BRANCH  24  25
ATOM     25  C   UNL     1      32.834 -22.025 -18.801  0.00  0.00    +0.169 C 
ATOM     26  C   UNL     1      32.324 -20.992 -19.807  0.00  0.00    +0.044 C 
ATOM     27  C   UNL     1      34.256 -22.478 -19.131  0.00  0.00    +0.044 C 
ATOM     28  C   UNL     1      33.287 -19.813 -19.960  0.00  0.00    +0.004 C 
ATOM     29  C   UNL     1      35.216 -21.298 -19.289  0.00  0.00    +0.004 C 
ATOM     30  C   UNL     1      34.698 -20.283 -20.303  0.00  0.00    +0.000 C 
ENDBRANCH  24  25
ENDBRANCH   5  24
TORSDOF 6
ENDMDL
MODEL 5
REMARK VINA RESULT:     -10.6      3.679      7.301
REMARK  Name = 11574606
REMARK  6 active torsions:
REMARK  status: ('A' for Active; 'I' for Inactive)
REMARK    1  A    between atoms: C_5  and  O_24
REMARK    2  A    between atoms: C_7  and  N_10
REMARK    3  A    between atoms: N_10  and  C_12
REMARK    4  A    between atoms: C_15  and  S_18
REMARK    5  A    between atoms: S_18  and  N_21
REMARK    6  A    between atoms: O_24  and  C_25
REMARK                            x       y       z     vdW  Elec       q    Type
REMARK                         _______ _______ _______ _____ _____    ______ ____
ROOT
ATOM      1  N   UNL     1      37.037 -22.013 -16.431  0.00  0.00    -0.299 NA
ATOM      2  N   UNL     1      35.858 -23.315 -14.788  0.00  0.00    -0.106 N 
ATOM      3  N   UNL     1      36.154 -24.162 -13.767  0.00  0.00    -0.139 NA
ATOM      4  N   UNL     1      38.072 -23.424 -14.749  0.00  0.00    -0.145 NA
ATOM      5  C   UNL     1      35.864 -21.643 -16.834  0.00  0.00    +0.291 C 
ATOM      6  C   UNL     1      34.550 -22.046 -16.286  0.00  0.00    +0.105 C 
ATOM      7  C   UNL     1      34.600 -22.897 -15.247  0.00  0.00    +0.142 C 
ATOM      8  C   UNL     1      37.050 -22.876 -15.375  0.00  0.00    +0.178 C 
ATOM      9  C   UNL     1      37.483 -24.185 -13.792  0.00  0.00    +0.230 C 
ENDROOT
BRANCH   7  10
ATOM     10  N   UNL     1      33.498 -23.384 -14.604  0.00  0.00    -0.299 N 
ATOM     11  H   UNL     1      33.675 -23.934 -13.807  0.00  0.00    +0.153 HD
BRANCH  10  12
ATOM     12  C   UNL     1      32.150 -23.204 -14.933  0.00  0.00    +0.049 C 
ATOM     13  C   UNL     1      31.780 -22.838 -16.233  0.00  0.00    +0.016 C 
ATOM     14  C   UNL     1      31.153 -23.388 -13.965  0.00  0.00    +0.016 C 
ATOM     15  C   UNL     1      29.450 -22.843 -15.591  0.00  0.00    +0.122 C 
ATOM     16  C   UNL     1      30.436 -22.658 -16.561  0.00  0.00    +0.021 C 
ATOM     17  C   UNL     1      29.810 -23.208 -14.293  0.00  0.00    +0.021 C 
BRANCH  15  18
ATOM     18  S   UNL     1      27.769 -22.618 -16.000  0.00  0.00    +0.057 S 
ATOM     19  O   UNL     1      26.985 -22.683 -14.773  0.00  0.00    -0.153 OA
ATOM     20  O   UNL     1      27.655 -21.455 -16.868  0.00  0.00    -0.153 OA
BRANCH  18  21
ATOM     21  N   UNL     1      27.467 -24.023 -16.922  0.00  0.00    -0.203 NA
ATOM     22  H   UNL     1      27.339 -24.820 -16.297  0.00  0.00    +0.144 HD
ATOM     23  H   UNL     1      28.258 -24.201 -17.541  0.00  0.00    +0.144 HD
ENDBRANCH  18  21
ENDBRANCH  15  18
ENDBRANCH  10  12
ENDBRANCH   7  10
BRANCH   5  24
ATOM     24  O   UNL     1      35.745 -20.787 -17.877  0.00  0.00    -0.455 OA
BRANCH  24  25
ATOM     25  C   UNL     1      35.548 -21.480 -19.108  0.00  0.00    +0.169 C 
ATOM     26  C   UNL     1      34.079 -21.886 -19.244  0.00  0.00    +0.044 C 
ATOM     27  C   UNL     1      35.991 -20.574 -20.257  0.00  0.00    +0.044 C 
ATOM     28  C   UNL     1      33.161 -20.674 -19.413  0.00  0.00    +0.004 C 
ATOM     29  C   UNL     1      35.068 -19.367 -20.427  0.00  0.00    +0.004 C 
ATOM     30  C   UNL     1      33.609 -19.788 -20.572  0.00  0.00    +0.000 C 
ENDBRANCH  24  25
ENDBRANCH   5  24
TORSDOF 6
ENDMDL
MODEL 6
REMARK VINA RESULT:     -10.3      5.220      8.272
REMARK  Name = 11574606
REMARK  6 active torsions:
REMARK  status: ('A' for Active; 'I' for Inactive)
REMARK    1  A    between atoms: C_5  and  O_24
REMARK    2  A    between atoms: C_7  and  N_10
REMARK    3  A    between atoms: N_10  and  C_12
REMARK    4  A    between atoms: C_15  and  S_18
REMARK    5  A    between atoms: S_18  and  N_21
REMARK    6  A    between atoms: O_24  and  C_25
REMARK                            x       y       z     vdW  Elec       q    Type
REMARK                         _______ _______ _______ _____ _____    ______ ____
ROOT
ATOM      1  N   UNL     1      33.912 -19.332 -22.134  0.00  0.00    -0.299 NA
ATOM      2  N   UNL     1      33.952 -17.211 -23.267  0.00  0.00    -0.106 N 
ATOM      3  N   UNL     1      33.603 -16.707 -24.480  0.00  0.00    -0.139 NA
ATOM      4  N   UNL     1      33.138 -18.934 -24.399  0.00  0.00    -0.145 NA
ATOM      5  C   UNL     1      34.434 -18.695 -21.134  0.00  0.00    +0.291 C 
ATOM      6  C   UNL     1      34.782 -17.259 -21.059  0.00  0.00    +0.105 C 
ATOM      7  C   UNL     1      34.518 -16.547 -22.168  0.00  0.00    +0.142 C 
ATOM      8  C   UNL     1      33.657 -18.579 -23.241  0.00  0.00    +0.178 C 
ATOM      9  C   UNL     1      33.125 -17.777 -25.107  0.00  0.00    +0.230 C 
ENDROOT
BRANCH   7  10
ATOM     10  N   UNL     1      34.767 -15.210 -22.296  0.00  0.00    -0.299 N 
ATOM     11  H   UNL     1      35.665 -14.970 -22.619  0.00  0.00    +0.153 HD
BRANCH  10  12
ATOM     12  C   UNL     1      33.910 -14.138 -22.025  0.00  0.00    +0.049 C 
ATOM     13  C   UNL     1      33.702 -13.137 -22.981  0.00  0.00    +0.016 C 
ATOM     14  C   UNL     1      33.249 -14.053 -20.792  0.00  0.00    +0.016 C 
ATOM     15  C   UNL     1      32.193 -11.992 -21.481  0.00  0.00    +0.122 C 
ATOM     16  C   UNL     1      32.847 -12.068 -22.711  0.00  0.00    +0.021 C 
ATOM     17  C   UNL     1      32.395 -12.985 -20.522  0.00  0.00    +0.021 C 
BRANCH  15  18
ATOM     18  S   UNL     1      31.125 -10.654 -21.141  0.00  0.00    +0.057 S 
ATOM     19  O   UNL     1      29.805 -10.976 -21.667  0.00  0.00    -0.153 OA
ATOM     20  O   UNL     1      31.274 -10.285 -19.740  0.00  0.00    -0.153 OA
BRANCH  18  21
ATOM     21  N   UNL     1      31.819  -9.429 -22.108  0.00  0.00    -0.203 NA
ATOM     22  H   UNL     1      32.693  -9.768 -22.511  0.00  0.00    +0.144 HD
ATOM     23  H   UNL     1      32.007  -8.607 -21.533  0.00  0.00    +0.144 HD
ENDBRANCH  18  21
ENDBRANCH  15  18
ENDBRANCH  10  12
ENDBRANCH   7  10
BRANCH   5  24
ATOM     24  O   UNL     1      34.724 -19.355 -19.988  0.00  0.00    -0.455 OA
BRANCH  24  25
ATOM     25  C   UNL     1      34.894 -20.753 -20.213  0.00  0.00    +0.169 C 
ATOM     26  C   UNL     1      36.080 -21.269 -19.396  0.00  0.00    +0.044 C 
ATOM     27  C   UNL     1      33.597 -21.471 -19.839  0.00  0.00    +0.044 C 
ATOM     28  C   UNL     1      35.805 -21.223 -17.892  0.00  0.00    +0.004 C 
ATOM     29  C   UNL     1      33.328 -21.428 -18.335  0.00  0.00    +0.004 C 
ATOM     30  C   UNL     1      34.514 -21.955 -17.534  0.00  0.00    +0.000 C 
ENDBRANCH  24  25
ENDBRANCH   5  24
TORSDOF 6
ENDMDL
MODEL 7
REMARK VINA RESULT:     -10.2      3.816      7.635
REMARK  Name = 11574606
REMARK  6 active torsions:
REMARK  status: ('A' for Active; 'I' for Inactive)
REMARK    1  A    between atoms: C_5  and  O_24
REMARK    2  A    between atoms: C_7  and  N_10
REMARK    3  A    between atoms: N_10  and  C_12
REMARK    4  A    between atoms: C_15  and  S_18
REMARK    5  A    between atoms: S_18  and  N_21
REMARK    6  A    between atoms: O_24  and  C_25
REMARK                            x       y       z     vdW  Elec       q    Type
REMARK                         _______ _______ _______ _____ _____    ______ ____
ROOT
ATOM      1  N   UNL     1      31.945 -21.410 -18.718  0.00  0.00    -0.299 NA
ATOM      2  N   UNL     1      34.335 -21.357 -18.453  0.00  0.00    -0.106 N 
ATOM      3  N   UNL     1      35.412 -20.840 -19.101  0.00  0.00    -0.139 NA
ATOM      4  N   UNL     1      33.501 -20.301 -20.215  0.00  0.00    -0.145 NA
ATOM      5  C   UNL     1      31.940 -22.110 -17.630  0.00  0.00    +0.291 C 
ATOM      6  C   UNL     1      33.103 -22.526 -16.816  0.00  0.00    +0.105 C 
ATOM      7  C   UNL     1      34.298 -22.118 -17.275  0.00  0.00    +0.142 C 
ATOM      8  C   UNL     1      33.174 -21.013 -19.155  0.00  0.00    +0.178 C 
ATOM      9  C   UNL     1      34.853 -20.224 -20.138  0.00  0.00    +0.230 C 
ENDROOT
BRANCH   7  10
ATOM     10  N   UNL     1      35.489 -22.399 -16.666  0.00  0.00    -0.299 N 
ATOM     11  H   UNL     1      36.297 -22.177 -17.182  0.00  0.00    +0.153 HD
BRANCH  10  12
ATOM     12  C   UNL     1      35.706 -22.962 -15.405  0.00  0.00    +0.049 C 
ATOM     13  C   UNL     1      35.447 -24.320 -15.179  0.00  0.00    +0.016 C 
ATOM     14  C   UNL     1      36.188 -22.175 -14.350  0.00  0.00    +0.016 C 
ATOM     15  C   UNL     1      36.143 -24.090 -12.877  0.00  0.00    +0.122 C 
ATOM     16  C   UNL     1      35.665 -24.882 -13.921  0.00  0.00    +0.021 C 
ATOM     17  C   UNL     1      36.404 -22.736 -13.092  0.00  0.00    +0.021 C 
BRANCH  15  18
ATOM     18  S   UNL     1      36.415 -24.791 -11.302  0.00  0.00    +0.057 S 
ATOM     19  O   UNL     1      36.653 -26.219 -11.470  0.00  0.00    -0.153 OA
ATOM     20  O   UNL     1      37.389 -23.975 -10.593  0.00  0.00    -0.153 OA
BRANCH  18  21
ATOM     21  N   UNL     1      34.883 -24.570 -10.578  0.00  0.00    -0.203 NA
ATOM     22  H   UNL     1      34.290 -24.018 -11.199  0.00  0.00    +0.144 HD
ATOM     23  H   UNL     1      34.994 -24.080  -9.691  0.00  0.00    +0.144 HD
ENDBRANCH  18  21
ENDBRANCH  15  18
ENDBRANCH  10  12
ENDBRANCH   7  10
BRANCH   5  24
ATOM     24  O   UNL     1      30.768 -22.552 -17.115  0.00  0.00    -0.455 OA
BRANCH  24  25
ATOM     25  C   UNL     1      30.774 -22.523 -15.688  0.00  0.00    +0.169 C 
ATOM     26  C   UNL     1      29.534 -21.785 -15.181  0.00  0.00    +0.044 C 
ATOM     27  C   UNL     1      30.828 -23.959 -15.168  0.00  0.00    +0.044 C 
ATOM     28  C   UNL     1      28.246 -22.557 -15.474  0.00  0.00    +0.004 C 
ATOM     29  C   UNL     1      29.538 -24.726 -15.459  0.00  0.00    +0.004 C 
ATOM     30  C   UNL     1      28.311 -23.984 -14.937  0.00  0.00    +0.000 C 
ENDBRANCH  24  25
ENDBRANCH   5  24
TORSDOF 6
ENDMDL
MODEL 8
REMARK VINA RESULT:     -10.1      3.263      8.287
REMARK  Name = 11574606
REMARK  6 active torsions:
REMARK  status: ('A' for Active; 'I' for Inactive)
REMARK    1  A    between atoms: C_5  and  O_24
REMARK    2  A    between atoms: C_7  and  N_10
REMARK    3  A    between atoms: N_10  and  C_12
REMARK    4  A    between atoms: C_15  and  S_18
REMARK    5  A    between atoms: S_18  and  N_21
REMARK    6  A    between atoms: O_24  and  C_25
REMARK                            x       y       z     vdW  Elec       q    Type
REMARK                         _______ _______ _______ _____ _____    ______ ____
ROOT
ATOM      1  N   UNL     1      33.677 -21.324 -19.312  0.00  0.00    -0.299 NA
ATOM      2  N   UNL     1      34.586 -22.232 -17.278  0.00  0.00    -0.106 N 
ATOM      3  N   UNL     1      34.160 -22.981 -16.227  0.00  0.00    -0.139 NA
ATOM      4  N   UNL     1      32.450 -22.656 -17.696  0.00  0.00    -0.145 NA
ATOM      5  C   UNL     1      34.861 -20.839 -19.507  0.00  0.00    +0.291 C 
ATOM      6  C   UNL     1      36.050 -20.976 -18.637  0.00  0.00    +0.105 C 
ATOM      7  C   UNL     1      35.859 -21.693 -17.517  0.00  0.00    +0.142 C 
ATOM      8  C   UNL     1      33.520 -22.046 -18.166  0.00  0.00    +0.178 C 
ATOM      9  C   UNL     1      32.885 -23.203 -16.533  0.00  0.00    +0.230 C 
ENDROOT
BRANCH   7  10
ATOM     10  N   UNL     1      36.831 -21.933 -16.587  0.00  0.00    -0.299 N 
ATOM     11  H   UNL     1      37.729 -21.597 -16.809  0.00  0.00    +0.153 HD
BRANCH  10  12
ATOM     12  C   UNL     1      36.715 -22.597 -15.361  0.00  0.00    +0.049 C 
ATOM     13  C   UNL     1      37.266 -23.872 -15.189  0.00  0.00    +0.016 C 
ATOM     14  C   UNL     1      36.046 -21.992 -14.288  0.00  0.00    +0.016 C 
ATOM     15  C   UNL     1      36.482 -23.924 -12.905  0.00  0.00    +0.122 C 
ATOM     16  C   UNL     1      37.151 -24.534 -13.966  0.00  0.00    +0.021 C 
ATOM     17  C   UNL     1      35.930 -22.653 -13.067  0.00  0.00    +0.021 C 
BRANCH  15  18
ATOM     18  S   UNL     1      36.336 -24.751 -11.375  0.00  0.00    +0.057 S 
ATOM     19  O   UNL     1      36.667 -26.155 -11.578  0.00  0.00    -0.153 OA
ATOM     20  O   UNL     1      37.043 -23.981 -10.362  0.00  0.00    -0.153 OA
BRANCH  18  21
ATOM     21  N   UNL     1      34.656 -24.617 -11.091  0.00  0.00    -0.203 NA
ATOM     22  H   UNL     1      34.197 -24.259 -11.930  0.00  0.00    +0.144 HD
ATOM     23  H   UNL     1      34.492 -23.976 -10.315  0.00  0.00    +0.144 HD
ENDBRANCH  18  21
ENDBRANCH  15  18
ENDBRANCH  10  12
ENDBRANCH   7  10
BRANCH   5  24
ATOM     24  O   UNL     1      35.118 -20.107 -20.617  0.00  0.00    -0.455 OA
BRANCH  24  25
ATOM     25  C   UNL     1      34.210 -19.015 -20.751  0.00  0.00    +0.169 C 
ATOM     26  C   UNL     1      34.988 -17.699 -20.804  0.00  0.00    +0.044 C 
ATOM     27  C   UNL     1      33.372 -19.225 -22.011  0.00  0.00    +0.044 C 
ATOM     28  C   UNL     1      35.820 -17.574 -22.081  0.00  0.00    +0.004 C 
ATOM     29  C   UNL     1      34.205 -19.096 -23.286  0.00  0.00    +0.004 C 
ATOM     30  C   UNL     1      34.966 -17.774 -23.330  0.00  0.00    +0.000 C 
ENDBRANCH  24  25
ENDBRANCH   5  24
TORSDOF 6
ENDMDL
MODEL 9
REMARK VINA RESULT:      -9.7      3.403      8.737
REMARK  Name = 11574606
REMARK  6 active torsions:
REMARK  status: ('A' for Active; 'I' for Inactive)
REMARK    1  A    between atoms: C_5  and  O_24
REMARK    2  A    between atoms: C_7  and  N_10
REMARK    3  A    between atoms: N_10  and  C_12
REMARK    4  A    between atoms: C_15  and  S_18
REMARK    5  A    between atoms: S_18  and  N_21
REMARK    6  A    between atoms: O_24  and  C_25
REMARK                            x       y       z     vdW  Elec       q    Type
REMARK                         _______ _______ _______ _____ _____    ______ ____
ROOT
ATOM      1  N   UNL     1      35.191 -19.627 -20.159  0.00  0.00    -0.299 NA
ATOM      2  N   UNL     1      34.454 -21.312 -18.609  0.00  0.00    -0.106 N 
ATOM      3  N   UNL     1      34.969 -22.029 -17.576  0.00  0.00    -0.139 NA
ATOM      4  N   UNL     1      36.554 -20.628 -18.419  0.00  0.00    -0.145 NA
ATOM      5  C   UNL     1      33.990 -19.685 -20.639  0.00  0.00    +0.291 C 
ATOM      6  C   UNL     1      32.875 -20.545 -20.186  0.00  0.00    +0.105 C 
ATOM      7  C   UNL     1      33.160 -21.354 -19.151  0.00  0.00    +0.142 C 
ATOM      8  C   UNL     1      35.445 -20.461 -19.110  0.00  0.00    +0.178 C 
ATOM      9  C   UNL     1      36.218 -21.578 -17.510  0.00  0.00    +0.230 C 
ENDROOT
BRANCH   7  10
ATOM     10  N   UNL     1      32.267 -22.221 -18.588  0.00  0.00    -0.299 N 
ATOM     11  H   UNL     1      31.655 -22.672 -19.214  0.00  0.00    +0.153 HD
BRANCH  10  12
ATOM     12  C   UNL     1      32.109 -22.549 -17.238  0.00  0.00    +0.049 C 
ATOM     13  C   UNL     1      30.922 -22.235 -16.565  0.00  0.00    +0.016 C 
ATOM     14  C   UNL     1      33.137 -23.199 -16.541  0.00  0.00    +0.016 C 
ATOM     15  C   UNL     1      31.794 -23.208 -14.533  0.00  0.00    +0.122 C 
ATOM     16  C   UNL     1      30.765 -22.563 -15.218  0.00  0.00    +0.021 C 
ATOM     17  C   UNL     1      32.980 -23.526 -15.195  0.00  0.00    +0.021 C 
BRANCH  15  18
ATOM     18  S   UNL     1      31.598 -23.618 -12.848  0.00  0.00    +0.057 S 
ATOM     19  O   UNL     1      31.399 -22.386 -12.096  0.00  0.00    -0.153 OA
ATOM     20  O   UNL     1      30.624 -24.694 -12.742  0.00  0.00    -0.153 OA
BRANCH  18  21
ATOM     21  N   UNL     1      33.147 -24.241 -12.482  0.00  0.00    -0.203 NA
ATOM     22  H   UNL     1      33.859 -23.679 -12.950  0.00  0.00    +0.144 HD
ATOM     23  H   UNL     1      33.210 -25.207 -12.806  0.00  0.00    +0.144 HD
ENDBRANCH  18  21
ENDBRANCH  15  18
ENDBRANCH  10  12
ENDBRANCH   7  10
BRANCH   5  24
ATOM     24  O   UNL     1      33.639 -18.896 -21.682  0.00  0.00    -0.455 OA
BRANCH  24  25
ATOM     25  C   UNL     1      34.691 -18.788 -22.639  0.00  0.00    +0.169 C 
ATOM     26  C   UNL     1      34.143 -19.049 -24.043  0.00  0.00    +0.044 C 
ATOM     27  C   UNL     1      35.314 -17.396 -22.528  0.00  0.00    +0.044 C 
ATOM     28  C   UNL     1      33.186 -17.947 -24.501  0.00  0.00    +0.004 C 
ATOM     29  C   UNL     1      34.358 -16.297 -22.991  0.00  0.00    +0.004 C 
ATOM     30  C   UNL     1      33.828 -16.566 -24.396  0.00  0.00    +0.000 C 
ENDBRANCH  24  25
ENDBRANCH   5  24
TORSDOF 6
ENDMDL
