MODEL 1
REMARK VINA RESULT:     -11.3      0.000      0.000
REMARK  Name = 25195624
REMARK  13 active torsions:
REMARK  status: ('A' for Active; 'I' for Inactive)
REMARK    1  A    between atoms: C_2  and  C_12
REMARK    2  A    between atoms: C_5  and  C_23
REMARK    3  A    between atoms: C_9  and  O_14
REMARK    4  A    between atoms: C_10  and  O_16
REMARK    5  A    between atoms: C_11  and  O_18
REMARK    6  A    between atoms: C_13  and  C_20
REMARK    7  A    between atoms: C_20  and  O_21
REMARK    8  A    between atoms: C_23  and  C_24
REMARK    9  A    between atoms: C_25  and  O_30
REMARK   10  A    between atoms: O_30  and  C_31
REMARK   11  A    between atoms: C_31  and  C_32
REMARK   12  A    between atoms: C_32  and  O_33
REMARK   13  A    between atoms: O_33  and  C_34
REMARK                            x       y       z     vdW  Elec       q    Type
REMARK                         _______ _______ _______ _____ _____    ______ ____
ROOT
ATOM      1 CL   UNL     1      30.312 -22.074 -17.227  0.00  0.00    -0.083 Cl
ATOM      2  C   UNL     1      33.854 -23.014 -14.589  0.00  0.00    +0.007 C 
ATOM      3  C   UNL     1      33.969 -23.157 -15.972  0.00  0.00    -0.005 C 
ATOM      4  C   UNL     1      32.650 -22.582 -14.032  0.00  0.00    -0.001 C 
ATOM      5  C   UNL     1      32.881 -22.870 -16.797  0.00  0.00    -0.007 C 
ATOM      6  C   UNL     1      31.562 -22.295 -14.856  0.00  0.00    +0.011 C 
ATOM      7  C   UNL     1      31.677 -22.439 -16.239  0.00  0.00    +0.054 C 
ENDROOT
BRANCH   2  12
ATOM      8  O   UNL     1      35.853 -24.286 -14.372  0.00  0.00    -0.347 OA
ATOM      9  C   UNL     1      35.794 -24.319 -11.496  0.00  0.00    +0.169 C 
ATOM     10  C   UNL     1      34.591 -23.861 -12.322  0.00  0.00    +0.171 C 
ATOM     11  C   UNL     1      36.713 -25.230 -12.311  0.00  0.00    +0.169 C 
ATOM     12  C   UNL     1      35.036 -23.327 -13.693  0.00  0.00    +0.167 C 
ATOM     13  C   UNL     1      37.052 -24.593 -13.660  0.00  0.00    +0.174 C 
BRANCH   9  14
ATOM     14  O   UNL     1      35.338 -25.056 -10.361  0.00  0.00    -0.379 OA
ATOM     15  H   UNL     1      35.266 -25.995 -10.592  0.00  0.00    +0.211 HD
ENDBRANCH   9  14
BRANCH  10  16
ATOM     16  O   UNL     1      33.918 -22.815 -11.622  0.00  0.00    -0.379 OA
ATOM     17  H   UNL     1      34.050 -22.927 -10.668  0.00  0.00    +0.211 HD
ENDBRANCH  10  16
BRANCH  11  18
ATOM     18  O   UNL     1      37.917 -25.456 -11.582  0.00  0.00    -0.379 OA
ATOM     19  H   UNL     1      38.339 -26.270 -11.898  0.00  0.00    +0.211 HD
ENDBRANCH  11  18
BRANCH  13  20
ATOM     20  C   UNL     1      37.877 -25.530 -14.536  0.00  0.00    +0.169 C 
BRANCH  20  21
ATOM     21  O   UNL     1      37.651 -26.862 -14.111  0.00  0.00    -0.379 OA
ATOM     22  H   UNL     1      37.203 -26.855 -13.250  0.00  0.00    +0.211 HD
ENDBRANCH  20  21
ENDBRANCH  13  20
ENDBRANCH   2  12
BRANCH   5  23
ATOM     23  C   UNL     1      33.045 -23.035 -18.273  0.00  0.00    +0.053 C 
BRANCH  23  24
ATOM     24  C   UNL     1      33.710 -21.856 -18.951  0.00  0.00    -0.018 C 
ATOM     25  C   UNL     1      34.935 -19.683 -20.199  0.00  0.00    +0.139 C 
ATOM     26  C   UNL     1      32.940 -20.936 -19.662  0.00  0.00    -0.001 C 
ATOM     27  C   UNL     1      35.092 -21.690 -18.862  0.00  0.00    -0.001 C 
ATOM     28  C   UNL     1      33.554 -19.849 -20.286  0.00  0.00    +0.037 C 
ATOM     29  C   UNL     1      35.705 -20.603 -19.487  0.00  0.00    +0.037 C 
BRANCH  25  30
ATOM     30  O   UNL     1      35.533 -18.622 -20.807  0.00  0.00    -0.473 OA
BRANCH  30  31
ATOM     31  C   UNL     1      34.744 -17.873 -21.731  0.00  0.00    +0.237 C 
BRANCH  31  32
ATOM     32  C   UNL     1      34.607 -16.451 -21.226  0.00  0.00    +0.189 C 
BRANCH  32  33
ATOM     33  O   UNL     1      34.613 -15.561 -22.335  0.00  0.00    -0.352 OA
BRANCH  33  34
ATOM     34  C   UNL     1      33.510 -14.614 -22.293  0.00  0.00    +0.116 C 
ATOM     35  C   UNL     1      33.445 -13.735 -21.079  0.00  0.00    +0.032 C 
ATOM     36  C   UNL     1      33.880 -13.163 -22.395  0.00  0.00    +0.032 C 
ENDBRANCH  33  34
ENDBRANCH  32  33
ENDBRANCH  31  32
ENDBRANCH  30  31
ENDBRANCH  25  30
ENDBRANCH  23  24
ENDBRANCH   5  23
TORSDOF 13
ENDMDL
MODEL 2
REMARK VINA RESULT:     -10.8      7.842     16.595
REMARK  Name = 25195624
REMARK  13 active torsions:
REMARK  status: ('A' for Active; 'I' for Inactive)
REMARK    1  A    between atoms: C_2  and  C_12
REMARK    2  A    between atoms: C_5  and  C_23
REMARK    3  A    between atoms: C_9  and  O_14
REMARK    4  A    between atoms: C_10  and  O_16
REMARK    5  A    between atoms: C_11  and  O_18
REMARK    6  A    between atoms: C_13  and  C_20
REMARK    7  A    between atoms: C_20  and  O_21
REMARK    8  A    between atoms: C_23  and  C_24
REMARK    9  A    between atoms: C_25  and  O_30
REMARK   10  A    between atoms: O_30  and  C_31
REMARK   11  A    between atoms: C_31  and  C_32
REMARK   12  A    between atoms: C_32  and  O_33
REMARK   13  A    between atoms: O_33  and  C_34
REMARK                            x       y       z     vdW  Elec       q    Type
REMARK                         _______ _______ _______ _____ _____    ______ ____
ROOT
ATOM      1 CL   UNL     1      31.695  -9.668 -18.669  0.00  0.00    -0.083 Cl
ATOM      2  C   UNL     1      31.182  -6.958 -22.244  0.00  0.00    +0.007 C 
ATOM      3  C   UNL     1      30.748  -8.282 -22.317  0.00  0.00    -0.005 C 
ATOM      4  C   UNL     1      31.770  -6.481 -21.072  0.00  0.00    -0.001 C 
ATOM      5  C   UNL     1      30.901  -9.128 -21.218  0.00  0.00    -0.007 C 
ATOM      6  C   UNL     1      31.924  -7.328 -19.974  0.00  0.00    +0.011 C 
ATOM      7  C   UNL     1      31.490  -8.651 -20.047  0.00  0.00    +0.054 C 
ENDROOT
BRANCH   2  12
ATOM      8  O   UNL     1      32.179  -6.182 -24.261  0.00  0.00    -0.347 OA
ATOM      9  C   UNL     1      30.822  -3.646 -24.228  0.00  0.00    +0.169 C 
ATOM     10  C   UNL     1      30.827  -4.574 -23.011  0.00  0.00    +0.171 C 
ATOM     11  C   UNL     1      32.007  -3.934 -25.151  0.00  0.00    +0.169 C 
ATOM     12  C   UNL     1      31.016  -6.038 -23.437  0.00  0.00    +0.167 C 
ATOM     13  C   UNL     1      32.097  -5.427 -25.470  0.00  0.00    +0.174 C 
BRANCH   9  14
ATOM     14  O   UNL     1      30.923  -2.290 -23.790  0.00  0.00    -0.379 OA
ATOM     15  H   UNL     1      31.198  -1.730 -24.534  0.00  0.00    +0.211 HD
ENDBRANCH   9  14
BRANCH  10  16
ATOM     16  O   UNL     1      29.577  -4.455 -22.332  0.00  0.00    -0.379 OA
ATOM     17  H   UNL     1      28.858  -4.417 -22.981  0.00  0.00    +0.211 HD
ENDBRANCH  10  16
BRANCH  11  18
ATOM     18  O   UNL     1      31.845  -3.202 -26.364  0.00  0.00    -0.379 OA
ATOM     19  H   UNL     1      32.328  -3.649 -27.077  0.00  0.00    +0.211 HD
ENDBRANCH  11  18
BRANCH  13  20
ATOM     20  C   UNL     1      33.334  -5.754 -26.298  0.00  0.00    +0.169 C 
BRANCH  20  21
ATOM     21  O   UNL     1      33.016  -5.593 -27.669  0.00  0.00    -0.379 OA
ATOM     22  H   UNL     1      33.781  -5.845 -28.210  0.00  0.00    +0.211 HD
ENDBRANCH  20  21
ENDBRANCH  13  20
ENDBRANCH   2  12
BRANCH   5  23
ATOM     23  C   UNL     1      30.421 -10.539 -21.336  0.00  0.00    +0.053 C 
BRANCH  23  24
ATOM     24  C   UNL     1      31.499 -11.519 -21.749  0.00  0.00    -0.018 C 
ATOM     25  C   UNL     1      33.484 -13.325 -22.510  0.00  0.00    +0.139 C 
ATOM     26  C   UNL     1      31.808 -12.602 -20.927  0.00  0.00    -0.001 C 
ATOM     27  C   UNL     1      32.182 -11.338 -22.951  0.00  0.00    -0.001 C 
ATOM     28  C   UNL     1      32.801 -13.506 -21.308  0.00  0.00    +0.037 C 
ATOM     29  C   UNL     1      33.175 -12.241 -23.332  0.00  0.00    +0.037 C 
BRANCH  25  30
ATOM     30  O   UNL     1      34.453 -14.206 -22.881  0.00  0.00    -0.473 OA
BRANCH  30  31
ATOM     31  C   UNL     1      34.405 -15.508 -22.298  0.00  0.00    +0.237 C 
BRANCH  31  32
ATOM     32  C   UNL     1      34.251 -16.538 -23.399  0.00  0.00    +0.189 C 
BRANCH  32  33
ATOM     33  O   UNL     1      34.866 -17.753 -22.988  0.00  0.00    -0.352 OA
BRANCH  33  34
ATOM     34  C   UNL     1      35.078 -17.809 -21.550  0.00  0.00    +0.116 C 
ATOM     35  C   UNL     1      35.101 -19.181 -20.943  0.00  0.00    +0.032 C 
ATOM     36  C   UNL     1      36.377 -18.408 -21.097  0.00  0.00    +0.032 C 
ENDBRANCH  33  34
ENDBRANCH  32  33
ENDBRANCH  31  32
ENDBRANCH  30  31
ENDBRANCH  25  30
ENDBRANCH  23  24
ENDBRANCH   5  23
TORSDOF 13
ENDMDL
MODEL 3
REMARK VINA RESULT:     -10.6      1.048      2.288
REMARK  Name = 25195624
REMARK  13 active torsions:
REMARK  status: ('A' for Active; 'I' for Inactive)
REMARK    1  A    between atoms: C_2  and  C_12
REMARK    2  A    between atoms: C_5  and  C_23
REMARK    3  A    between atoms: C_9  and  O_14
REMARK    4  A    between atoms: C_10  and  O_16
REMARK    5  A    between atoms: C_11  and  O_18
REMARK    6  A    between atoms: C_13  and  C_20
REMARK    7  A    between atoms: C_20  and  O_21
REMARK    8  A    between atoms: C_23  and  C_24
REMARK    9  A    between atoms: C_25  and  O_30
REMARK   10  A    between atoms: O_30  and  C_31
REMARK   11  A    between atoms: C_31  and  C_32
REMARK   12  A    between atoms: C_32  and  O_33
REMARK   13  A    between atoms: O_33  and  C_34
REMARK                            x       y       z     vdW  Elec       q    Type
REMARK                         _______ _______ _______ _____ _____    ______ ____
ROOT
ATOM      1 CL   UNL     1      30.598 -21.696 -17.420  0.00  0.00    -0.083 Cl
ATOM      2  C   UNL     1      33.882 -23.579 -14.960  0.00  0.00    +0.007 C 
ATOM      3  C   UNL     1      33.984 -23.571 -16.351  0.00  0.00    -0.005 C 
ATOM      4  C   UNL     1      32.770 -23.008 -14.339  0.00  0.00    -0.001 C 
ATOM      5  C   UNL     1      32.975 -22.992 -17.121  0.00  0.00    -0.007 C 
ATOM      6  C   UNL     1      31.762 -22.430 -15.109  0.00  0.00    +0.011 C 
ATOM      7  C   UNL     1      31.864 -22.421 -16.500  0.00  0.00    +0.054 C 
ENDROOT
BRANCH   2  12
ATOM      8  O   UNL     1      35.670 -23.153 -13.448  0.00  0.00    -0.347 OA
ATOM      9  C   UNL     1      37.131 -25.531 -14.141  0.00  0.00    +0.169 C 
ATOM     10  C   UNL     1      35.948 -25.039 -14.977  0.00  0.00    +0.171 C 
ATOM     11  C   UNL     1      37.749 -24.393 -13.329  0.00  0.00    +0.169 C 
ATOM     12  C   UNL     1      34.977 -24.209 -14.122  0.00  0.00    +0.167 C 
ATOM     13  C   UNL     1      36.673 -23.632 -12.552  0.00  0.00    +0.174 C 
BRANCH   9  14
ATOM     14  O   UNL     1      38.140 -26.054 -15.007  0.00  0.00    -0.379 OA
ATOM     15  H   UNL     1      37.769 -26.185 -15.893  0.00  0.00    +0.211 HD
ENDBRANCH   9  14
BRANCH  10  16
ATOM     16  O   UNL     1      35.246 -26.168 -15.497  0.00  0.00    -0.379 OA
ATOM     17  H   UNL     1      35.644 -26.983 -15.155  0.00  0.00    +0.211 HD
ENDBRANCH  10  16
BRANCH  11  18
ATOM     18  O   UNL     1      38.699 -24.932 -12.412  0.00  0.00    -0.379 OA
ATOM     19  H   UNL     1      39.202 -24.209 -12.006  0.00  0.00    +0.211 HD
ENDBRANCH  11  18
BRANCH  13  20
ATOM     20  C   UNL     1      37.250 -22.424 -11.822  0.00  0.00    +0.169 C 
BRANCH  20  21
ATOM     21  O   UNL     1      36.416 -22.123 -10.719  0.00  0.00    -0.379 OA
ATOM     22  H   UNL     1      36.095 -21.210 -10.795  0.00  0.00    +0.211 HD
ENDBRANCH  20  21
ENDBRANCH  13  20
ENDBRANCH   2  12
BRANCH   5  23
ATOM     23  C   UNL     1      33.123 -23.003 -18.609  0.00  0.00    +0.053 C 
BRANCH  23  24
ATOM     24  C   UNL     1      33.807 -21.772 -19.164  0.00  0.00    -0.018 C 
ATOM     25  C   UNL     1      35.069 -19.505 -20.189  0.00  0.00    +0.139 C 
ATOM     26  C   UNL     1      35.183 -21.607 -19.003  0.00  0.00    -0.001 C 
ATOM     27  C   UNL     1      33.063 -20.805 -19.838  0.00  0.00    -0.001 C 
ATOM     28  C   UNL     1      35.814 -20.473 -19.516  0.00  0.00    +0.037 C 
ATOM     29  C   UNL     1      33.693 -19.671 -20.350  0.00  0.00    +0.037 C 
BRANCH  25  30
ATOM     30  O   UNL     1      35.685 -18.399 -20.689  0.00  0.00    -0.473 OA
BRANCH  30  31
ATOM     31  C   UNL     1      35.017 -17.704 -21.742  0.00  0.00    +0.237 C 
BRANCH  31  32
ATOM     32  C   UNL     1      34.600 -16.335 -21.244  0.00  0.00    +0.189 C 
BRANCH  32  33
ATOM     33  O   UNL     1      34.541 -15.437 -22.345  0.00  0.00    -0.352 OA
BRANCH  33  34
ATOM     34  C   UNL     1      33.481 -14.452 -22.203  0.00  0.00    +0.116 C 
ATOM     35  C   UNL     1      33.642 -13.472 -21.078  0.00  0.00    +0.032 C 
ATOM     36  C   UNL     1      33.858 -13.029 -22.494  0.00  0.00    +0.032 C 
ENDBRANCH  33  34
ENDBRANCH  32  33
ENDBRANCH  31  32
ENDBRANCH  30  31
ENDBRANCH  25  30
ENDBRANCH  23  24
ENDBRANCH   5  23
TORSDOF 13
ENDMDL
MODEL 4
REMARK VINA RESULT:     -10.5      7.979     16.730
REMARK  Name = 25195624
REMARK  13 active torsions:
REMARK  status: ('A' for Active; 'I' for Inactive)
REMARK    1  A    between atoms: C_2  and  C_12
REMARK    2  A    between atoms: C_5  and  C_23
REMARK    3  A    between atoms: C_9  and  O_14
REMARK    4  A    between atoms: C_10  and  O_16
REMARK    5  A    between atoms: C_11  and  O_18
REMARK    6  A    between atoms: C_13  and  C_20
REMARK    7  A    between atoms: C_20  and  O_21
REMARK    8  A    between atoms: C_23  and  C_24
REMARK    9  A    between atoms: C_25  and  O_30
REMARK   10  A    between atoms: O_30  and  C_31
REMARK   11  A    between atoms: C_31  and  C_32
REMARK   12  A    between atoms: C_32  and  O_33
REMARK   13  A    between atoms: O_33  and  C_34
REMARK                            x       y       z     vdW  Elec       q    Type
REMARK                         _______ _______ _______ _____ _____    ______ ____
ROOT
ATOM      1 CL   UNL     1      31.164  -9.661 -18.753  0.00  0.00    -0.083 Cl
ATOM      2  C   UNL     1      32.244  -6.590 -21.882  0.00  0.00    +0.007 C 
ATOM      3  C   UNL     1      31.644  -7.787 -22.272  0.00  0.00    -0.005 C 
ATOM      4  C   UNL     1      32.506  -6.349 -20.533  0.00  0.00    -0.001 C 
ATOM      5  C   UNL     1      31.305  -8.743 -21.314  0.00  0.00    -0.007 C 
ATOM      6  C   UNL     1      32.168  -7.305 -19.575  0.00  0.00    +0.011 C 
ATOM      7  C   UNL     1      31.568  -8.502 -19.965  0.00  0.00    +0.054 C 
ENDROOT
BRANCH   2  12
ATOM      8  O   UNL     1      31.576  -4.564 -22.937  0.00  0.00    -0.347 OA
ATOM      9  C   UNL     1      33.005  -5.091 -25.377  0.00  0.00    +0.169 C 
ATOM     10  C   UNL     1      32.792  -6.174 -24.316  0.00  0.00    +0.171 C 
ATOM     11  C   UNL     1      31.955  -3.985 -25.260  0.00  0.00    +0.169 C 
ATOM     12  C   UNL     1      32.613  -5.551 -22.923  0.00  0.00    +0.167 C 
ATOM     13  C   UNL     1      31.857  -3.479 -23.820  0.00  0.00    +0.174 C 
BRANCH   9  14
ATOM     14  O   UNL     1      32.891  -5.672 -26.677  0.00  0.00    -0.379 OA
ATOM     15  H   UNL     1      33.114  -5.008 -27.348  0.00  0.00    +0.211 HD
ENDBRANCH   9  14
BRANCH  10  16
ATOM     16  O   UNL     1      33.935  -7.028 -24.290  0.00  0.00    -0.379 OA
ATOM     17  H   UNL     1      33.732  -7.825 -23.775  0.00  0.00    +0.211 HD
ENDBRANCH  10  16
BRANCH  11  18
ATOM     18  O   UNL     1      32.315  -2.904 -26.117  0.00  0.00    -0.379 OA
ATOM     19  H   UNL     1      31.942  -2.079 -25.769  0.00  0.00    +0.211 HD
ENDBRANCH  11  18
BRANCH  13  20
ATOM     20  C   UNL     1      30.740  -2.454 -23.657  0.00  0.00    +0.169 C 
BRANCH  20  21
ATOM     21  O   UNL     1      29.777  -2.669 -24.673  0.00  0.00    -0.379 OA
ATOM     22  H   UNL     1      30.211  -3.044 -25.455  0.00  0.00    +0.211 HD
ENDBRANCH  20  21
ENDBRANCH  13  20
ENDBRANCH   2  12
BRANCH   5  23
ATOM     23  C   UNL     1      30.663 -10.012 -21.773  0.00  0.00    +0.053 C 
BRANCH  23  24
ATOM     24  C   UNL     1      31.635 -11.157 -21.961  0.00  0.00    -0.018 C 
ATOM     25  C   UNL     1      33.426 -13.267 -22.308  0.00  0.00    +0.139 C 
ATOM     26  C   UNL     1      31.688 -12.188 -21.023  0.00  0.00    -0.001 C 
ATOM     27  C   UNL     1      32.477 -11.180 -23.072  0.00  0.00    -0.001 C 
ATOM     28  C   UNL     1      32.584 -13.244 -21.198  0.00  0.00    +0.037 C 
ATOM     29  C   UNL     1      33.374 -12.235 -23.246  0.00  0.00    +0.037 C 
BRANCH  25  30
ATOM     30  O   UNL     1      34.300 -14.297 -22.478  0.00  0.00    -0.473 OA
BRANCH  30  31
ATOM     31  C   UNL     1      34.265 -14.980 -23.730  0.00  0.00    +0.237 C 
BRANCH  31  32
ATOM     32  C   UNL     1      34.267 -16.474 -23.479  0.00  0.00    +0.189 C 
BRANCH  32  33
ATOM     33  O   UNL     1      35.017 -16.747 -22.302  0.00  0.00    -0.352 OA
BRANCH  33  34
ATOM     34  C   UNL     1      35.511 -18.115 -22.263  0.00  0.00    +0.116 C 
ATOM     35  C   UNL     1      36.437 -18.447 -21.130  0.00  0.00    +0.032 C 
ATOM     36  C   UNL     1      35.027 -18.959 -21.121  0.00  0.00    +0.032 C 
ENDBRANCH  33  34
ENDBRANCH  32  33
ENDBRANCH  31  32
ENDBRANCH  30  31
ENDBRANCH  25  30
ENDBRANCH  23  24
ENDBRANCH   5  23
TORSDOF 13
ENDMDL
MODEL 5
REMARK VINA RESULT:     -10.4      1.745      2.300
REMARK  Name = 25195624
REMARK  13 active torsions:
REMARK  status: ('A' for Active; 'I' for Inactive)
REMARK    1  A    between atoms: C_2  and  C_12
REMARK    2  A    between atoms: C_5  and  C_23
REMARK    3  A    between atoms: C_9  and  O_14
REMARK    4  A    between atoms: C_10  and  O_16
REMARK    5  A    between atoms: C_11  and  O_18
REMARK    6  A    between atoms: C_13  and  C_20
REMARK    7  A    between atoms: C_20  and  O_21
REMARK    8  A    between atoms: C_23  and  C_24
REMARK    9  A    between atoms: C_25  and  O_30
REMARK   10  A    between atoms: O_30  and  C_31
REMARK   11  A    between atoms: C_31  and  C_32
REMARK   12  A    between atoms: C_32  and  O_33
REMARK   13  A    between atoms: O_33  and  C_34
REMARK                            x       y       z     vdW  Elec       q    Type
REMARK                         _______ _______ _______ _____ _____    ______ ____
ROOT
ATOM      1 CL   UNL     1      29.585 -22.272 -16.177  0.00  0.00    -0.083 Cl
ATOM      2  C   UNL     1      33.615 -23.001 -14.277  0.00  0.00    +0.007 C 
ATOM      3  C   UNL     1      33.491 -23.047 -15.665  0.00  0.00    -0.005 C 
ATOM      4  C   UNL     1      32.497 -22.731 -13.486  0.00  0.00    -0.001 C 
ATOM      5  C   UNL     1      32.251 -22.823 -16.264  0.00  0.00    -0.007 C 
ATOM      6  C   UNL     1      31.257 -22.508 -14.084  0.00  0.00    +0.011 C 
ATOM      7  C   UNL     1      31.134 -22.554 -15.473  0.00  0.00    +0.054 C 
ENDROOT
BRANCH   2  12
ATOM      8  O   UNL     1      35.955 -23.208 -14.657  0.00  0.00    -0.347 OA
ATOM      9  C   UNL     1      36.415 -24.884 -12.366  0.00  0.00    +0.169 C 
ATOM     10  C   UNL     1      35.003 -24.585 -12.876  0.00  0.00    +0.171 C 
ATOM     11  C   UNL     1      37.457 -24.694 -13.468  0.00  0.00    +0.169 C 
ATOM     12  C   UNL     1      34.962 -23.245 -13.626  0.00  0.00    +0.167 C 
ATOM     13  C   UNL     1      37.283 -23.336 -14.151  0.00  0.00    +0.174 C 
BRANCH   9  14
ATOM     14  O   UNL     1      36.482 -26.241 -11.925  0.00  0.00    -0.379 OA
ATOM     15  H   UNL     1      37.093 -26.736 -12.493  0.00  0.00    +0.211 HD
ENDBRANCH   9  14
BRANCH  10  16
ATOM     16  O   UNL     1      34.113 -24.513 -11.764  0.00  0.00    -0.379 OA
ATOM     17  H   UNL     1      33.715 -23.630 -11.724  0.00  0.00    +0.211 HD
ENDBRANCH  10  16
BRANCH  11  18
ATOM     18  O   UNL     1      38.762 -24.772 -12.900  0.00  0.00    -0.379 OA
ATOM     19  H   UNL     1      39.397 -25.034 -13.584  0.00  0.00    +0.211 HD
ENDBRANCH  11  18
BRANCH  13  20
ATOM     20  C   UNL     1      38.240 -23.168 -15.327  0.00  0.00    +0.169 C 
BRANCH  20  21
ATOM     21  O   UNL     1      37.665 -22.261 -16.250  0.00  0.00    -0.379 OA
ATOM     22  H   UNL     1      36.703 -22.242 -16.129  0.00  0.00    +0.211 HD
ENDBRANCH  20  21
ENDBRANCH  13  20
ENDBRANCH   2  12
BRANCH   5  23
ATOM     23  C   UNL     1      32.161 -22.880 -17.755  0.00  0.00    +0.053 C 
BRANCH  23  24
ATOM     24  C   UNL     1      33.152 -21.981 -18.462  0.00  0.00    -0.018 C 
ATOM     25  C   UNL     1      34.979 -20.325 -19.766  0.00  0.00    +0.139 C 
ATOM     26  C   UNL     1      34.511 -22.067 -18.159  0.00  0.00    -0.001 C 
ATOM     27  C   UNL     1      32.707 -21.068 -19.417  0.00  0.00    -0.001 C 
ATOM     28  C   UNL     1      35.425 -21.239 -18.812  0.00  0.00    +0.037 C 
ATOM     29  C   UNL     1      33.621 -20.239 -20.069  0.00  0.00    +0.037 C 
BRANCH  25  30
ATOM     30  O   UNL     1      35.871 -19.517 -20.403  0.00  0.00    -0.473 OA
BRANCH  30  31
ATOM     31  C   UNL     1      35.527 -18.137 -20.522  0.00  0.00    +0.237 C 
BRANCH  31  32
ATOM     32  C   UNL     1      35.741 -17.697 -21.957  0.00  0.00    +0.189 C 
BRANCH  32  33
ATOM     33  O   UNL     1      35.085 -18.611 -22.827  0.00  0.00    -0.352 OA
BRANCH  33  34
ATOM     34  C   UNL     1      33.751 -18.165 -23.196  0.00  0.00    +0.116 C 
ATOM     35  C   UNL     1      33.678 -17.164 -24.311  0.00  0.00    +0.032 C 
ATOM     36  C   UNL     1      33.266 -18.585 -24.552  0.00  0.00    +0.032 C 
ENDBRANCH  33  34
ENDBRANCH  32  33
ENDBRANCH  31  32
ENDBRANCH  30  31
ENDBRANCH  25  30
ENDBRANCH  23  24
ENDBRANCH   5  23
TORSDOF 13
ENDMDL
MODEL 6
REMARK VINA RESULT:     -10.1      4.438     11.631
REMARK  Name = 25195624
REMARK  13 active torsions:
REMARK  status: ('A' for Active; 'I' for Inactive)
REMARK    1  A    between atoms: C_2  and  C_12
REMARK    2  A    between atoms: C_5  and  C_23
REMARK    3  A    between atoms: C_9  and  O_14
REMARK    4  A    between atoms: C_10  and  O_16
REMARK    5  A    between atoms: C_11  and  O_18
REMARK    6  A    between atoms: C_13  and  C_20
REMARK    7  A    between atoms: C_20  and  O_21
REMARK    8  A    between atoms: C_23  and  C_24
REMARK    9  A    between atoms: C_25  and  O_30
REMARK   10  A    between atoms: O_30  and  C_31
REMARK   11  A    between atoms: C_31  and  C_32
REMARK   12  A    between atoms: C_32  and  O_33
REMARK   13  A    between atoms: O_33  and  C_34
REMARK                            x       y       z     vdW  Elec       q    Type
REMARK                         _______ _______ _______ _____ _____    ______ ____
ROOT
ATOM      1 CL   UNL     1      34.593 -20.315 -23.835  0.00  0.00    -0.083 Cl
ATOM      2  C   UNL     1      34.049 -15.872 -23.243  0.00  0.00    +0.007 C 
ATOM      3  C   UNL     1      34.714 -16.619 -22.270  0.00  0.00    -0.005 C 
ATOM      4  C   UNL     1      33.558 -16.499 -24.388  0.00  0.00    -0.001 C 
ATOM      5  C   UNL     1      34.888 -17.993 -22.443  0.00  0.00    -0.007 C 
ATOM      6  C   UNL     1      33.731 -17.872 -24.560  0.00  0.00    +0.011 C 
ATOM      7  C   UNL     1      34.396 -18.619 -23.588  0.00  0.00    +0.054 C 
ENDROOT
BRANCH   2  12
ATOM      8  O   UNL     1      33.067 -14.187 -21.879  0.00  0.00    -0.347 OA
ATOM      9  C   UNL     1      32.864 -12.259 -24.003  0.00  0.00    +0.169 C 
ATOM     10  C   UNL     1      33.190 -13.729 -24.276  0.00  0.00    +0.171 C 
ATOM     11  C   UNL     1      32.142 -12.089 -22.665  0.00  0.00    +0.169 C 
ATOM     12  C   UNL     1      33.859 -14.380 -23.055  0.00  0.00    +0.167 C 
ATOM     13  C   UNL     1      32.896 -12.809 -21.546  0.00  0.00    +0.174 C 
BRANCH   9  14
ATOM     14  O   UNL     1      32.006 -11.764 -25.032  0.00  0.00    -0.379 OA
ATOM     15  H   UNL     1      31.426 -11.077 -24.667  0.00  0.00    +0.211 HD
ENDBRANCH   9  14
BRANCH  10  16
ATOM     16  O   UNL     1      34.087 -13.806 -25.383  0.00  0.00    -0.379 OA
ATOM     17  H   UNL     1      34.134 -14.722 -25.698  0.00  0.00    +0.211 HD
ENDBRANCH  10  16
BRANCH  11  18
ATOM     18  O   UNL     1      32.051 -10.701 -22.353  0.00  0.00    -0.379 OA
ATOM     19  H   UNL     1      31.569 -10.242 -23.059  0.00  0.00    +0.211 HD
ENDBRANCH  11  18
BRANCH  13  20
ATOM     20  C   UNL     1      32.138 -12.748 -20.224  0.00  0.00    +0.169 C 
BRANCH  20  21
ATOM     21  O   UNL     1      31.723 -14.058 -19.880  0.00  0.00    -0.379 OA
ATOM     22  H   UNL     1      32.170 -14.700 -20.455  0.00  0.00    +0.211 HD
ENDBRANCH  20  21
ENDBRANCH  13  20
ENDBRANCH   2  12
BRANCH   5  23
ATOM     23  C   UNL     1      35.606 -18.756 -21.378  0.00  0.00    +0.053 C 
BRANCH  23  24
ATOM     24  C   UNL     1      34.712 -19.679 -20.577  0.00  0.00    -0.018 C 
ATOM     25  C   UNL     1      33.064 -21.379 -19.103  0.00  0.00    +0.139 C 
ATOM     26  C   UNL     1      35.274 -20.660 -19.761  0.00  0.00    -0.001 C 
ATOM     27  C   UNL     1      33.326 -19.547 -20.656  0.00  0.00    -0.001 C 
ATOM     28  C   UNL     1      34.449 -21.510 -19.023  0.00  0.00    +0.037 C 
ATOM     29  C   UNL     1      32.502 -20.398 -19.919  0.00  0.00    +0.037 C 
BRANCH  25  30
ATOM     30  O   UNL     1      32.259 -22.208 -18.383  0.00  0.00    -0.473 OA
BRANCH  30  31
ATOM     31  C   UNL     1      32.761 -22.674 -17.130  0.00  0.00    +0.237 C 
BRANCH  31  32
ATOM     32  C   UNL     1      31.636 -22.671 -16.115  0.00  0.00    +0.189 C 
BRANCH  32  33
ATOM     33  O   UNL     1      30.423 -22.314 -16.765  0.00  0.00    -0.352 OA
BRANCH  33  34
ATOM     34  C   UNL     1      29.258 -22.920 -16.139  0.00  0.00    +0.116 C 
ATOM     35  C   UNL     1      28.853 -22.349 -14.813  0.00  0.00    +0.032 C 
ATOM     36  C   UNL     1      28.038 -22.054 -16.036  0.00  0.00    +0.032 C 
ENDBRANCH  33  34
ENDBRANCH  32  33
ENDBRANCH  31  32
ENDBRANCH  30  31
ENDBRANCH  25  30
ENDBRANCH  23  24
ENDBRANCH   5  23
TORSDOF 13
ENDMDL
MODEL 7
REMARK VINA RESULT:     -10.1      3.044      4.781
REMARK  Name = 25195624
REMARK  13 active torsions:
REMARK  status: ('A' for Active; 'I' for Inactive)
REMARK    1  A    between atoms: C_2  and  C_12
REMARK    2  A    between atoms: C_5  and  C_23
REMARK    3  A    between atoms: C_9  and  O_14
REMARK    4  A    between atoms: C_10  and  O_16
REMARK    5  A    between atoms: C_11  and  O_18
REMARK    6  A    between atoms: C_13  and  C_20
REMARK    7  A    between atoms: C_20  and  O_21
REMARK    8  A    between atoms: C_23  and  C_24
REMARK    9  A    between atoms: C_25  and  O_30
REMARK   10  A    between atoms: O_30  and  C_31
REMARK   11  A    between atoms: C_31  and  C_32
REMARK   12  A    between atoms: C_32  and  O_33
REMARK   13  A    between atoms: O_33  and  C_34
REMARK                            x       y       z     vdW  Elec       q    Type
REMARK                         _______ _______ _______ _____ _____    ______ ____
ROOT
ATOM      1 CL   UNL     1      36.835 -20.873 -16.873  0.00  0.00    -0.083 Cl
ATOM      2  C   UNL     1      32.966 -23.004 -15.935  0.00  0.00    +0.007 C 
ATOM      3  C   UNL     1      33.429 -22.966 -17.251  0.00  0.00    -0.005 C 
ATOM      4  C   UNL     1      33.698 -22.385 -14.921  0.00  0.00    -0.001 C 
ATOM      5  C   UNL     1      34.624 -22.311 -17.552  0.00  0.00    -0.007 C 
ATOM      6  C   UNL     1      34.892 -21.729 -15.223  0.00  0.00    +0.011 C 
ATOM      7  C   UNL     1      35.355 -21.692 -16.538  0.00  0.00    +0.054 C 
ENDROOT
BRANCH   2  12
ATOM      8  O   UNL     1      30.593 -22.885 -16.058  0.00  0.00    -0.347 OA
ATOM      9  C   UNL     1      30.158 -24.580 -13.775  0.00  0.00    +0.169 C 
ATOM     10  C   UNL     1      31.539 -24.009 -14.105  0.00  0.00    +0.171 C 
ATOM     11  C   UNL     1      29.045 -23.737 -14.398  0.00  0.00    +0.169 C 
ATOM     12  C   UNL     1      31.668 -23.715 -15.608  0.00  0.00    +0.167 C 
ATOM     13  C   UNL     1      29.313 -23.494 -15.885  0.00  0.00    +0.174 C 
BRANCH   9  14
ATOM     14  O   UNL     1      29.970 -24.581 -12.359  0.00  0.00    -0.379 OA
ATOM     15  H   UNL     1      30.019 -23.672 -12.026  0.00  0.00    +0.211 HD
ENDBRANCH   9  14
BRANCH  10  16
ATOM     16  O   UNL     1      32.535 -24.963 -13.739  0.00  0.00    -0.379 OA
ATOM     17  H   UNL     1      32.929 -25.343 -14.540  0.00  0.00    +0.211 HD
ENDBRANCH  10  16
BRANCH  11  18
ATOM     18  O   UNL     1      27.801 -24.417 -14.250  0.00  0.00    -0.379 OA
ATOM     19  H   UNL     1      27.074 -23.776 -14.291  0.00  0.00    +0.211 HD
ENDBRANCH  11  18
BRANCH  13  20
ATOM     20  C   UNL     1      28.275 -22.564 -16.502  0.00  0.00    +0.169 C 
BRANCH  20  21
ATOM     21  O   UNL     1      27.215 -23.348 -17.018  0.00  0.00    -0.379 OA
ATOM     22  H   UNL     1      26.690 -23.705 -16.285  0.00  0.00    +0.211 HD
ENDBRANCH  20  21
ENDBRANCH  13  20
ENDBRANCH   2  12
BRANCH   5  23
ATOM     23  C   UNL     1      35.086 -22.295 -18.974  0.00  0.00    +0.053 C 
BRANCH  23  24
ATOM     24  C   UNL     1      34.860 -20.972 -19.675  0.00  0.00    -0.018 C 
ATOM     25  C   UNL     1      34.446 -18.535 -20.967  0.00  0.00    +0.139 C 
ATOM     26  C   UNL     1      33.563 -20.549 -19.965  0.00  0.00    -0.001 C 
ATOM     27  C   UNL     1      35.950 -20.178 -20.030  0.00  0.00    -0.001 C 
ATOM     28  C   UNL     1      33.356 -19.329 -20.611  0.00  0.00    +0.037 C 
ATOM     29  C   UNL     1      35.742 -18.959 -20.677  0.00  0.00    +0.037 C 
BRANCH  25  30
ATOM     30  O   UNL     1      34.243 -17.346 -21.597  0.00  0.00    -0.473 OA
BRANCH  30  31
ATOM     31  C   UNL     1      35.020 -17.088 -22.766  0.00  0.00    +0.237 C 
BRANCH  31  32
ATOM     32  C   UNL     1      34.280 -16.101 -23.645  0.00  0.00    +0.189 C 
BRANCH  32  33
ATOM     33  O   UNL     1      34.592 -14.779 -23.226  0.00  0.00    -0.352 OA
BRANCH  33  34
ATOM     34  C   UNL     1      33.479 -14.136 -22.544  0.00  0.00    +0.116 C 
ATOM     35  C   UNL     1      33.674 -13.862 -21.082  0.00  0.00    +0.032 C 
ATOM     36  C   UNL     1      33.718 -12.733 -22.068  0.00  0.00    +0.032 C 
ENDBRANCH  33  34
ENDBRANCH  32  33
ENDBRANCH  31  32
ENDBRANCH  30  31
ENDBRANCH  25  30
ENDBRANCH  23  24
ENDBRANCH   5  23
TORSDOF 13
ENDMDL
MODEL 8
REMARK VINA RESULT:     -10.0      3.122     11.544
REMARK  Name = 25195624
REMARK  13 active torsions:
REMARK  status: ('A' for Active; 'I' for Inactive)
REMARK    1  A    between atoms: C_2  and  C_12
REMARK    2  A    between atoms: C_5  and  C_23
REMARK    3  A    between atoms: C_9  and  O_14
REMARK    4  A    between atoms: C_10  and  O_16
REMARK    5  A    between atoms: C_11  and  O_18
REMARK    6  A    between atoms: C_13  and  C_20
REMARK    7  A    between atoms: C_20  and  O_21
REMARK    8  A    between atoms: C_23  and  C_24
REMARK    9  A    between atoms: C_25  and  O_30
REMARK   10  A    between atoms: O_30  and  C_31
REMARK   11  A    between atoms: C_31  and  C_32
REMARK   12  A    between atoms: C_32  and  O_33
REMARK   13  A    between atoms: O_33  and  C_34
REMARK                            x       y       z     vdW  Elec       q    Type
REMARK                         _______ _______ _______ _____ _____    ______ ____
ROOT
ATOM      1 CL   UNL     1      34.538 -20.262 -23.959  0.00  0.00    -0.083 Cl
ATOM      2  C   UNL     1      34.007 -15.829 -23.292  0.00  0.00    +0.007 C 
ATOM      3  C   UNL     1      34.711 -16.585 -22.354  0.00  0.00    -0.005 C 
ATOM      4  C   UNL     1      33.474 -16.443 -24.425  0.00  0.00    -0.001 C 
ATOM      5  C   UNL     1      34.881 -17.956 -22.550  0.00  0.00    -0.007 C 
ATOM      6  C   UNL     1      33.644 -17.814 -24.621  0.00  0.00    +0.011 C 
ATOM      7  C   UNL     1      34.348 -18.570 -23.683  0.00  0.00    +0.054 C 
ENDROOT
BRANCH   2  12
ATOM      8  O   UNL     1      33.032 -14.165 -21.898  0.00  0.00    -0.347 OA
ATOM      9  C   UNL     1      32.830 -12.200 -23.989  0.00  0.00    +0.169 C 
ATOM     10  C   UNL     1      33.152 -13.666 -24.287  0.00  0.00    +0.171 C 
ATOM     11  C   UNL     1      32.111 -12.051 -22.647  0.00  0.00    +0.169 C 
ATOM     12  C   UNL     1      33.822 -14.339 -23.079  0.00  0.00    +0.167 C 
ATOM     13  C   UNL     1      32.865 -12.792 -21.542  0.00  0.00    +0.174 C 
BRANCH   9  14
ATOM     14  O   UNL     1      31.971 -11.686 -25.008  0.00  0.00    -0.379 OA
ATOM     15  H   UNL     1      31.096 -12.096 -24.931  0.00  0.00    +0.211 HD
ENDBRANCH   9  14
BRANCH  10  16
ATOM     16  O   UNL     1      34.047 -13.727 -25.397  0.00  0.00    -0.379 OA
ATOM     17  H   UNL     1      33.663 -13.252 -26.150  0.00  0.00    +0.211 HD
ENDBRANCH  10  16
BRANCH  11  18
ATOM     18  O   UNL     1      32.023 -10.668 -22.312  0.00  0.00    -0.379 OA
ATOM     19  H   UNL     1      31.182 -10.497 -21.861  0.00  0.00    +0.211 HD
ENDBRANCH  11  18
BRANCH  13  20
ATOM     20  C   UNL     1      32.109 -12.751 -20.218  0.00  0.00    +0.169 C 
BRANCH  20  21
ATOM     21  O   UNL     1      31.771 -14.076 -19.850  0.00  0.00    -0.379 OA
ATOM     22  H   UNL     1      30.805 -14.174 -19.845  0.00  0.00    +0.211 HD
ENDBRANCH  20  21
ENDBRANCH  13  20
ENDBRANCH   2  12
BRANCH   5  23
ATOM     23  C   UNL     1      35.642 -18.731 -21.523  0.00  0.00    +0.053 C 
BRANCH  23  24
ATOM     24  C   UNL     1      34.773 -19.618 -20.658  0.00  0.00    -0.018 C 
ATOM     25  C   UNL     1      33.171 -21.254 -19.065  0.00  0.00    +0.139 C 
ATOM     26  C   UNL     1      33.386 -19.469 -20.678  0.00  0.00    -0.001 C 
ATOM     27  C   UNL     1      35.359 -20.586 -19.842  0.00  0.00    -0.001 C 
ATOM     28  C   UNL     1      32.585 -20.288 -19.881  0.00  0.00    +0.037 C 
ATOM     29  C   UNL     1      34.557 -21.404 -19.045  0.00  0.00    +0.037 C 
BRANCH  25  30
ATOM     30  O   UNL     1      32.389 -22.053 -18.287  0.00  0.00    -0.473 OA
BRANCH  30  31
ATOM     31  C   UNL     1      33.015 -23.182 -17.679  0.00  0.00    +0.237 C 
BRANCH  31  32
ATOM     32  C   UNL     1      33.385 -22.833 -16.251  0.00  0.00    +0.189 C 
BRANCH  32  33
ATOM     33  O   UNL     1      34.733 -23.216 -16.013  0.00  0.00    -0.352 OA
BRANCH  33  34
ATOM     34  C   UNL     1      35.551 -22.107 -15.547  0.00  0.00    +0.116 C 
ATOM     35  C   UNL     1      36.842 -22.478 -14.879  0.00  0.00    +0.032 C 
ATOM     36  C   UNL     1      36.854 -21.901 -16.263  0.00  0.00    +0.032 C 
ENDBRANCH  33  34
ENDBRANCH  32  33
ENDBRANCH  31  32
ENDBRANCH  30  31
ENDBRANCH  25  30
ENDBRANCH  23  24
ENDBRANCH   5  23
TORSDOF 13
ENDMDL
MODEL 9
REMARK VINA RESULT:     -10.0      2.207      4.267
REMARK  Name = 25195624
REMARK  13 active torsions:
REMARK  status: ('A' for Active; 'I' for Inactive)
REMARK    1  A    between atoms: C_2  and  C_12
REMARK    2  A    between atoms: C_5  and  C_23
REMARK    3  A    between atoms: C_9  and  O_14
REMARK    4  A    between atoms: C_10  and  O_16
REMARK    5  A    between atoms: C_11  and  O_18
REMARK    6  A    between atoms: C_13  and  C_20
REMARK    7  A    between atoms: C_20  and  O_21
REMARK    8  A    between atoms: C_23  and  C_24
REMARK    9  A    between atoms: C_25  and  O_30
REMARK   10  A    between atoms: O_30  and  C_31
REMARK   11  A    between atoms: C_31  and  C_32
REMARK   12  A    between atoms: C_32  and  O_33
REMARK   13  A    between atoms: O_33  and  C_34
REMARK                            x       y       z     vdW  Elec       q    Type
REMARK                         _______ _______ _______ _____ _____    ______ ____
ROOT
ATOM      1 CL   UNL     1      32.726 -19.504 -21.431  0.00  0.00    -0.083 Cl
ATOM      2  C   UNL     1      34.061 -21.919 -17.857  0.00  0.00    +0.007 C 
ATOM      3  C   UNL     1      35.018 -21.351 -18.699  0.00  0.00    -0.005 C 
ATOM      4  C   UNL     1      32.704 -21.739 -18.123  0.00  0.00    -0.001 C 
ATOM      5  C   UNL     1      34.616 -20.603 -19.806  0.00  0.00    -0.007 C 
ATOM      6  C   UNL     1      32.303 -20.991 -19.230  0.00  0.00    +0.011 C 
ATOM      7  C   UNL     1      33.259 -20.423 -20.071  0.00  0.00    +0.054 C 
ENDROOT
BRANCH   2  12
ATOM      8  O   UNL     1      33.403 -22.763 -15.731  0.00  0.00    -0.347 OA
ATOM      9  C   UNL     1      36.082 -22.888 -14.692  0.00  0.00    +0.169 C 
ATOM     10  C   UNL     1      35.754 -22.150 -15.991  0.00  0.00    +0.171 C 
ATOM     11  C   UNL     1      34.846 -23.020 -13.801  0.00  0.00    +0.169 C 
ATOM     12  C   UNL     1      34.497 -22.733 -16.654  0.00  0.00    +0.167 C 
ATOM     13  C   UNL     1      33.663 -23.582 -14.591  0.00  0.00    +0.174 C 
BRANCH   9  14
ATOM     14  O   UNL     1      37.073 -22.158 -13.967  0.00  0.00    -0.379 OA
ATOM     15  H   UNL     1      37.177 -21.277 -14.360  0.00  0.00    +0.211 HD
ENDBRANCH   9  14
BRANCH  10  16
ATOM     16  O   UNL     1      36.852 -22.289 -16.893  0.00  0.00    -0.379 OA
ATOM     17  H   UNL     1      36.703 -21.731 -17.673  0.00  0.00    +0.211 HD
ENDBRANCH  10  16
BRANCH  11  18
ATOM     18  O   UNL     1      35.142 -23.892 -12.712  0.00  0.00    -0.379 OA
ATOM     19  H   UNL     1      34.825 -23.496 -11.886  0.00  0.00    +0.211 HD
ENDBRANCH  11  18
BRANCH  13  20
ATOM     20  C   UNL     1      32.390 -23.618 -13.753  0.00  0.00    +0.169 C 
BRANCH  20  21
ATOM     21  O   UNL     1      32.517 -24.640 -12.782  0.00  0.00    -0.379 OA
ATOM     22  H   UNL     1      33.360 -24.537 -12.312  0.00  0.00    +0.211 HD
ENDBRANCH  20  21
ENDBRANCH  13  20
ENDBRANCH   2  12
BRANCH   5  23
ATOM     23  C   UNL     1      35.672 -20.010 -20.682  0.00  0.00    +0.053 C 
BRANCH  23  24
ATOM     24  C   UNL     1      35.240 -18.743 -21.389  0.00  0.00    -0.018 C 
ATOM     25  C   UNL     1      34.444 -16.409 -22.693  0.00  0.00    +0.139 C 
ATOM     26  C   UNL     1      35.106 -17.555 -20.672  0.00  0.00    -0.001 C 
ATOM     27  C   UNL     1      34.977 -18.765 -22.759  0.00  0.00    -0.001 C 
ATOM     28  C   UNL     1      34.708 -16.387 -21.324  0.00  0.00    +0.037 C 
ATOM     29  C   UNL     1      34.578 -17.597 -23.411  0.00  0.00    +0.037 C 
BRANCH  25  30
ATOM     30  O   UNL     1      34.056 -15.270 -23.329  0.00  0.00    -0.473 OA
BRANCH  30  31
ATOM     31  C   UNL     1      33.766 -14.136 -22.513  0.00  0.00    +0.237 C 
BRANCH  31  32
ATOM     32  C   UNL     1      33.433 -12.956 -23.404  0.00  0.00    +0.189 C 
BRANCH  32  33
ATOM     33  O   UNL     1      32.973 -11.879 -22.597  0.00  0.00    -0.352 OA
BRANCH  33  34
ATOM     34  C   UNL     1      31.732 -12.194 -21.906  0.00  0.00    +0.116 C 
ATOM     35  C   UNL     1      31.715 -11.921 -20.431  0.00  0.00    +0.032 C 
ATOM     36  C   UNL     1      30.962 -11.024 -21.367  0.00  0.00    +0.032 C 
ENDBRANCH  33  34
ENDBRANCH  32  33
ENDBRANCH  31  32
ENDBRANCH  30  31
ENDBRANCH  25  30
ENDBRANCH  23  24
ENDBRANCH   5  23
TORSDOF 13
ENDMDL
