MODEL 1
REMARK VINA RESULT:     -12.9      0.000      0.000
REMARK  Name = 11524144
REMARK  6 active torsions:
REMARK  status: ('A' for Active; 'I' for Inactive)
REMARK    1  A    between atoms: C_1  and  O_22
REMARK    2  A    between atoms: C_2  and  C_10
REMARK    3  A    between atoms: C_12  and  C_17
REMARK    4  A    between atoms: O_22  and  C_23
REMARK    5  A    between atoms: C_23  and  C_24
REMARK    6  A    between atoms: C_24  and  N_25
REMARK                            x       y       z     vdW  Elec       q    Type
REMARK                         _______ _______ _______ _____ _____    ______ ____
ROOT
ATOM      1  C   UNL     1      35.103 -18.498 -22.227  0.00  0.00    +0.138 C 
ATOM      2  C   UNL     1      35.236 -20.039 -19.917  0.00  0.00    -0.001 C 
ATOM      3  C   UNL     1      36.276 -18.520 -21.482  0.00  0.00    +0.037 C 
ATOM      4  C   UNL     1      33.996 -19.239 -21.830  0.00  0.00    +0.037 C 
ATOM      5  C   UNL     1      36.343 -19.293 -20.322  0.00  0.00    +0.003 C 
ATOM      6  C   UNL     1      34.063 -20.012 -20.670  0.00  0.00    +0.003 C 
ENDROOT
BRANCH   2  10
ATOM      7  N   UNL     1      34.449 -22.402 -17.104  0.00  0.00    -0.193 N 
ATOM      8  N   UNL     1      36.632 -21.498 -16.667  0.00  0.00    -0.231 NA
ATOM      9  N   UNL     1      33.546 -23.262 -16.563  0.00  0.00    -0.179 NA
ATOM     10  C   UNL     1      35.306 -20.853 -18.695  0.00  0.00    +0.019 C 
ATOM     11  C   UNL     1      35.594 -22.305 -16.316  0.00  0.00    +0.137 C 
ATOM     12  C   UNL     1      35.397 -23.141 -15.240  0.00  0.00    +0.121 C 
ATOM     13  C   UNL     1      34.324 -21.671 -18.283  0.00  0.00    +0.145 C 
ATOM     14  C   UNL     1      36.486 -20.830 -17.772  0.00  0.00    +0.097 C 
ATOM     15  C   UNL     1      34.128 -23.698 -15.446  0.00  0.00    +0.103 C 
BRANCH  12  17
ATOM     16  N   UNL     1      38.189 -23.715 -12.113  0.00  0.00    -0.242 NA
ATOM     17  C   UNL     1      36.342 -23.337 -14.182  0.00  0.00    -0.007 C 
ATOM     18  C   UNL     1      36.166 -22.696 -12.958  0.00  0.00    +0.017 C 
ATOM     19  C   UNL     1      37.444 -24.166 -14.369  0.00  0.00    +0.017 C 
ATOM     20  C   UNL     1      37.108 -22.917 -11.966  0.00  0.00    +0.099 C 
ATOM     21  C   UNL     1      38.329 -24.321 -13.313  0.00  0.00    +0.099 C 
ENDBRANCH  12  17
ENDBRANCH   2  10
BRANCH   1  22
ATOM     22  O   UNL     1      35.037 -17.739 -23.366  0.00  0.00    -0.478 OA
BRANCH  22  23
ATOM     23  C   UNL     1      33.921 -16.868 -23.493  0.00  0.00    +0.183 C 
BRANCH  23  24
ATOM     24  C   UNL     1      34.397 -15.545 -24.072  0.00  0.00    -0.029 C 
BRANCH  24  25
ATOM     25  N   UNL     1      34.142 -14.451 -23.136  0.00  0.00    +0.389 N 
ATOM     26  C   UNL     1      32.946 -13.698 -23.538  0.00  0.00    -0.077 C 
ATOM     27  C   UNL     1      34.009 -14.967 -21.767  0.00  0.00    -0.077 C 
ATOM     28  C   UNL     1      32.693 -12.519 -22.597  0.00  0.00    -0.023 C 
ATOM     29  C   UNL     1      33.791 -13.831 -20.767  0.00  0.00    -0.023 C 
ATOM     30  C   UNL     1      32.584 -12.981 -21.147  0.00  0.00    -0.004 C 
ATOM     31  H   UNL     1      34.937 -13.812 -23.156  0.00  0.00    -0.080 HD
ENDBRANCH  24  25
ENDBRANCH  23  24
ENDBRANCH  22  23
ENDBRANCH   1  22
TORSDOF 6
ENDMDL
MODEL 2
REMARK VINA RESULT:     -12.6      1.584      2.388
REMARK  Name = 11524144
REMARK  6 active torsions:
REMARK  status: ('A' for Active; 'I' for Inactive)
REMARK    1  A    between atoms: C_1  and  O_22
REMARK    2  A    between atoms: C_2  and  C_10
REMARK    3  A    between atoms: C_12  and  C_17
REMARK    4  A    between atoms: O_22  and  C_23
REMARK    5  A    between atoms: C_23  and  C_24
REMARK    6  A    between atoms: C_24  and  N_25
REMARK                            x       y       z     vdW  Elec       q    Type
REMARK                         _______ _______ _______ _____ _____    ______ ____
ROOT
ATOM      1  C   UNL     1      34.343 -17.146 -23.556  0.00  0.00    +0.138 C 
ATOM      2  C   UNL     1      34.286 -18.917 -21.414  0.00  0.00    -0.001 C 
ATOM      3  C   UNL     1      34.944 -16.791 -22.354  0.00  0.00    +0.037 C 
ATOM      4  C   UNL     1      33.715 -18.378 -23.698  0.00  0.00    +0.037 C 
ATOM      5  C   UNL     1      34.915 -17.679 -21.279  0.00  0.00    +0.003 C 
ATOM      6  C   UNL     1      33.686 -19.266 -22.623  0.00  0.00    +0.003 C 
ENDROOT
BRANCH   2  10
ATOM      7  N   UNL     1      33.175 -21.309 -18.738  0.00  0.00    -0.193 N 
ATOM      8  N   UNL     1      35.546 -21.024 -18.479  0.00  0.00    -0.231 NA
ATOM      9  N   UNL     1      32.134 -21.975 -18.172  0.00  0.00    -0.179 NA
ATOM     10  C   UNL     1      34.254 -19.853 -20.280  0.00  0.00    +0.019 C 
ATOM     11  C   UNL     1      34.372 -21.585 -18.081  0.00  0.00    +0.137 C 
ATOM     12  C   UNL     1      34.065 -22.460 -17.064  0.00  0.00    +0.121 C 
ATOM     13  C   UNL     1      33.136 -20.444 -19.830  0.00  0.00    +0.145 C 
ATOM     14  C   UNL     1      35.478 -20.222 -19.500  0.00  0.00    +0.097 C 
ATOM     15  C   UNL     1      32.682 -22.661 -17.170  0.00  0.00    +0.103 C 
BRANCH  12  17
ATOM     16  N   UNL     1      36.882 -24.047 -14.334  0.00  0.00    -0.242 NA
ATOM     17  C   UNL     1      35.018 -22.996 -16.141  0.00  0.00    -0.007 C 
ATOM     18  C   UNL     1      34.725 -24.153 -15.422  0.00  0.00    +0.017 C 
ATOM     19  C   UNL     1      36.246 -22.367 -15.953  0.00  0.00    +0.017 C 
ATOM     20  C   UNL     1      35.681 -24.632 -14.541  0.00  0.00    +0.099 C 
ATOM     21  C   UNL     1      37.134 -22.927 -15.048  0.00  0.00    +0.099 C 
ENDBRANCH  12  17
ENDBRANCH   2  10
BRANCH   1  22
ATOM     22  O   UNL     1      34.372 -16.273 -24.613  0.00  0.00    -0.478 OA
BRANCH  22  23
ATOM     23  C   UNL     1      33.370 -15.265 -24.640  0.00  0.00    +0.183 C 
BRANCH  23  24
ATOM     24  C   UNL     1      33.866 -14.062 -23.853  0.00  0.00    -0.029 C 
BRANCH  24  25
ATOM     25  N   UNL     1      32.866 -13.639 -22.873  0.00  0.00    +0.389 N 
ATOM     26  C   UNL     1      33.306 -13.974 -21.511  0.00  0.00    -0.077 C 
ATOM     27  C   UNL     1      32.595 -12.201 -23.005  0.00  0.00    -0.077 C 
ATOM     28  C   UNL     1      32.249 -13.581 -20.478  0.00  0.00    -0.023 C 
ATOM     29  C   UNL     1      31.515 -11.750 -22.020  0.00  0.00    -0.023 C 
ATOM     30  C   UNL     1      31.890 -12.103 -20.586  0.00  0.00    -0.004 C 
ATOM     31  H   UNL     1      31.997 -14.141 -23.055  0.00  0.00    -0.080 HD
ENDBRANCH  24  25
ENDBRANCH  23  24
ENDBRANCH  22  23
ENDBRANCH   1  22
TORSDOF 6
ENDMDL
MODEL 3
REMARK VINA RESULT:     -12.6      3.729     12.560
REMARK  Name = 11524144
REMARK  6 active torsions:
REMARK  status: ('A' for Active; 'I' for Inactive)
REMARK    1  A    between atoms: C_1  and  O_22
REMARK    2  A    between atoms: C_2  and  C_10
REMARK    3  A    between atoms: C_12  and  C_17
REMARK    4  A    between atoms: O_22  and  C_23
REMARK    5  A    between atoms: C_23  and  C_24
REMARK    6  A    between atoms: C_24  and  N_25
REMARK                            x       y       z     vdW  Elec       q    Type
REMARK                         _______ _______ _______ _____ _____    ______ ____
ROOT
ATOM      1  C   UNL     1      34.486 -16.723 -23.040  0.00  0.00    +0.138 C 
ATOM      2  C   UNL     1      33.482 -14.138 -22.838  0.00  0.00    -0.001 C 
ATOM      3  C   UNL     1      33.962 -16.099 -24.166  0.00  0.00    +0.037 C 
ATOM      4  C   UNL     1      34.514 -16.068 -21.814  0.00  0.00    +0.037 C 
ATOM      5  C   UNL     1      33.458 -14.802 -24.065  0.00  0.00    +0.003 C 
ATOM      6  C   UNL     1      34.009 -14.771 -21.713  0.00  0.00    +0.003 C 
ENDROOT
BRANCH   2  10
ATOM      7  N   UNL     1      31.481 -11.110 -21.868  0.00  0.00    -0.193 N 
ATOM      8  N   UNL     1      33.050 -10.403 -23.546  0.00  0.00    -0.231 NA
ATOM      9  N   UNL     1      30.483 -10.610 -21.093  0.00  0.00    -0.179 NA
ATOM     10  C   UNL     1      32.949 -12.772 -22.732  0.00  0.00    +0.019 C 
ATOM     11  C   UNL     1      32.033 -10.125 -22.684  0.00  0.00    +0.137 C 
ATOM     12  C   UNL     1      31.352  -8.961 -22.404  0.00  0.00    +0.121 C 
ATOM     13  C   UNL     1      31.950 -12.421 -21.907  0.00  0.00    +0.145 C 
ATOM     14  C   UNL     1      33.465 -11.635 -23.558  0.00  0.00    +0.097 C 
ATOM     15  C   UNL     1      30.417  -9.320 -21.425  0.00  0.00    +0.103 C 
BRANCH  12  17
ATOM     16  N   UNL     1      32.116  -5.236 -24.260  0.00  0.00    -0.242 NA
ATOM     17  C   UNL     1      31.611  -7.701 -23.031  0.00  0.00    -0.007 C 
ATOM     18  C   UNL     1      30.746  -7.213 -24.008  0.00  0.00    +0.017 C 
ATOM     19  C   UNL     1      32.728  -6.953 -22.671  0.00  0.00    +0.017 C 
ATOM     20  C   UNL     1      31.040  -5.988 -24.585  0.00  0.00    +0.099 C 
ATOM     21  C   UNL     1      32.933  -5.739 -23.308  0.00  0.00    +0.099 C 
ENDBRANCH  12  17
ENDBRANCH   2  10
BRANCH   1  22
ATOM     22  O   UNL     1      34.982 -17.997 -23.139  0.00  0.00    -0.478 OA
BRANCH  22  23
ATOM     23  C   UNL     1      34.417 -18.974 -22.276  0.00  0.00    +0.183 C 
BRANCH  23  24
ATOM     24  C   UNL     1      35.330 -19.150 -21.073  0.00  0.00    -0.029 C 
BRANCH  24  25
ATOM     25  N   UNL     1      34.622 -19.816 -19.980  0.00  0.00    +0.389 N 
ATOM     26  C   UNL     1      33.230 -20.092 -20.363  0.00  0.00    -0.077 C 
ATOM     27  C   UNL     1      35.321 -21.049 -19.592  0.00  0.00    -0.077 C 
ATOM     28  C   UNL     1      32.461 -20.746 -19.213  0.00  0.00    -0.023 C 
ATOM     29  C   UNL     1      34.621 -21.733 -18.417  0.00  0.00    -0.023 C 
ATOM     30  C   UNL     1      33.156 -22.015 -18.732  0.00  0.00    -0.004 C 
ATOM     31  H   UNL     1      34.608 -19.194 -19.172  0.00  0.00    -0.080 HD
ENDBRANCH  24  25
ENDBRANCH  23  24
ENDBRANCH  22  23
ENDBRANCH   1  22
TORSDOF 6
ENDMDL
MODEL 4
REMARK VINA RESULT:     -12.5      5.220      9.763
REMARK  Name = 11524144
REMARK  6 active torsions:
REMARK  status: ('A' for Active; 'I' for Inactive)
REMARK    1  A    between atoms: C_1  and  O_22
REMARK    2  A    between atoms: C_2  and  C_10
REMARK    3  A    between atoms: C_12  and  C_17
REMARK    4  A    between atoms: O_22  and  C_23
REMARK    5  A    between atoms: C_23  and  C_24
REMARK    6  A    between atoms: C_24  and  N_25
REMARK                            x       y       z     vdW  Elec       q    Type
REMARK                         _______ _______ _______ _____ _____    ______ ____
ROOT
ATOM      1  C   UNL     1      31.387  -8.942 -22.239  0.00  0.00    +0.138 C 
ATOM      2  C   UNL     1      32.387 -11.526 -22.461  0.00  0.00    -0.001 C 
ATOM      3  C   UNL     1      32.380  -9.217 -23.172  0.00  0.00    +0.037 C 
ATOM      4  C   UNL     1      30.889  -9.945 -21.416  0.00  0.00    +0.037 C 
ATOM      5  C   UNL     1      32.882 -10.514 -23.284  0.00  0.00    +0.003 C 
ATOM      6  C   UNL     1      31.392 -11.242 -21.527  0.00  0.00    +0.003 C 
ENDROOT
BRANCH   2  10
ATOM      7  N   UNL     1      33.506 -14.863 -23.775  0.00  0.00    -0.193 N 
ATOM      8  N   UNL     1      33.858 -14.895 -21.399  0.00  0.00    -0.231 NA
ATOM      9  N   UNL     1      33.656 -15.661 -24.865  0.00  0.00    -0.179 NA
ATOM     10  C   UNL     1      32.918 -12.892 -22.578  0.00  0.00    +0.019 C 
ATOM     11  C   UNL     1      33.920 -15.509 -22.612  0.00  0.00    +0.137 C 
ATOM     12  C   UNL     1      34.347 -16.761 -22.992  0.00  0.00    +0.121 C 
ATOM     13  C   UNL     1      33.010 -13.562 -23.738  0.00  0.00    +0.145 C 
ATOM     14  C   UNL     1      33.391 -13.682 -21.397  0.00  0.00    +0.097 C 
ATOM     15  C   UNL     1      34.162 -16.796 -24.381  0.00  0.00    +0.103 C 
BRANCH  12  17
ATOM     16  N   UNL     1      35.847 -19.689 -20.332  0.00  0.00    -0.242 NA
ATOM     17  C   UNL     1      34.856 -17.751 -22.093  0.00  0.00    -0.007 C 
ATOM     18  C   UNL     1      34.013 -18.740 -21.590  0.00  0.00    +0.017 C 
ATOM     19  C   UNL     1      36.195 -17.734 -21.713  0.00  0.00    +0.017 C 
ATOM     20  C   UNL     1      34.553 -19.676 -20.722  0.00  0.00    +0.099 C 
ATOM     21  C   UNL     1      36.637 -18.716 -20.839  0.00  0.00    +0.099 C 
ENDBRANCH  12  17
ENDBRANCH   2  10
BRANCH   1  22
ATOM     22  O   UNL     1      30.893  -7.668 -22.130  0.00  0.00    -0.478 OA
BRANCH  22  23
ATOM     23  C   UNL     1      30.376  -7.077 -23.314  0.00  0.00    +0.183 C 
BRANCH  23  24
ATOM     24  C   UNL     1      30.641  -5.580 -23.270  0.00  0.00    -0.029 C 
BRANCH  24  25
ATOM     25  N   UNL     1      31.681  -5.211 -24.229  0.00  0.00    +0.389 N 
ATOM     26  C   UNL     1      33.001  -5.217 -23.583  0.00  0.00    -0.077 C 
ATOM     27  C   UNL     1      31.653  -6.113 -25.388  0.00  0.00    -0.077 C 
ATOM     28  C   UNL     1      34.096  -4.787 -24.560  0.00  0.00    -0.023 C 
ATOM     29  C   UNL     1      32.704  -5.712 -26.425  0.00  0.00    -0.023 C 
ATOM     30  C   UNL     1      34.098  -5.659 -25.811  0.00  0.00    -0.004 C 
ATOM     31  H   UNL     1      31.499  -4.265 -24.562  0.00  0.00    -0.080 HD
ENDBRANCH  24  25
ENDBRANCH  23  24
ENDBRANCH  22  23
ENDBRANCH   1  22
TORSDOF 6
ENDMDL
MODEL 5
REMARK VINA RESULT:     -12.1      3.644     10.175
REMARK  Name = 11524144
REMARK  6 active torsions:
REMARK  status: ('A' for Active; 'I' for Inactive)
REMARK    1  A    between atoms: C_1  and  O_22
REMARK    2  A    between atoms: C_2  and  C_10
REMARK    3  A    between atoms: C_12  and  C_17
REMARK    4  A    between atoms: O_22  and  C_23
REMARK    5  A    between atoms: C_23  and  C_24
REMARK    6  A    between atoms: C_24  and  N_25
REMARK                            x       y       z     vdW  Elec       q    Type
REMARK                         _______ _______ _______ _____ _____    ______ ____
ROOT
ATOM      1  C   UNL     1      33.528 -23.471 -15.647  0.00  0.00    +0.138 C 
ATOM      2  C   UNL     1      34.036 -21.779 -17.793  0.00  0.00    -0.001 C 
ATOM      3  C   UNL     1      32.536 -23.244 -16.594  0.00  0.00    +0.037 C 
ATOM      4  C   UNL     1      34.771 -22.860 -15.762  0.00  0.00    +0.037 C 
ATOM      5  C   UNL     1      32.790 -22.395 -17.671  0.00  0.00    +0.003 C 
ATOM      6  C   UNL     1      35.026 -22.011 -16.840  0.00  0.00    +0.003 C 
ENDROOT
BRANCH   2  10
ATOM      7  N   UNL     1      35.693 -19.511 -20.288  0.00  0.00    -0.193 N 
ATOM      8  N   UNL     1      33.373 -19.642 -20.897  0.00  0.00    -0.231 NA
ATOM      9  N   UNL     1      36.847 -18.915 -20.688  0.00  0.00    -0.179 NA
ATOM     10  C   UNL     1      34.304 -20.883 -18.928  0.00  0.00    +0.019 C 
ATOM     11  C   UNL     1      34.627 -19.160 -21.114  0.00  0.00    +0.137 C 
ATOM     12  C   UNL     1      35.138 -18.312 -22.070  0.00  0.00    +0.121 C 
ATOM     13  C   UNL     1      35.512 -20.368 -19.205  0.00  0.00    +0.145 C 
ATOM     14  C   UNL     1      33.236 -20.440 -19.880  0.00  0.00    +0.097 C 
ATOM     15  C   UNL     1      36.499 -18.200 -21.758  0.00  0.00    +0.103 C 
BRANCH  12  17
ATOM     16  N   UNL     1      32.864 -16.556 -25.176  0.00  0.00    -0.242 NA
ATOM     17  C   UNL     1      34.369 -17.717 -23.120  0.00  0.00    -0.007 C 
ATOM     18  C   UNL     1      33.545 -18.506 -23.920  0.00  0.00    +0.017 C 
ATOM     19  C   UNL     1      34.438 -16.346 -23.352  0.00  0.00    +0.017 C 
ATOM     20  C   UNL     1      32.821 -17.883 -24.924  0.00  0.00    +0.099 C 
ATOM     21  C   UNL     1      33.673 -15.820 -24.381  0.00  0.00    +0.099 C 
ENDBRANCH  12  17
ENDBRANCH   2  10
BRANCH   1  22
ATOM     22  O   UNL     1      33.278 -24.305 -14.589  0.00  0.00    -0.478 OA
BRANCH  22  23
ATOM     23  C   UNL     1      32.508 -23.773 -13.519  0.00  0.00    +0.183 C 
BRANCH  23  24
ATOM     24  C   UNL     1      31.305 -24.674 -13.288  0.00  0.00    -0.029 C 
BRANCH  24  25
ATOM     25  N   UNL     1      30.096 -24.076 -13.854  0.00  0.00    +0.389 N 
ATOM     26  C   UNL     1      30.295 -22.640 -14.091  0.00  0.00    -0.077 C 
ATOM     27  C   UNL     1      29.711 -24.771 -15.090  0.00  0.00    -0.077 C 
ATOM     28  C   UNL     1      29.024 -21.989 -14.639  0.00  0.00    -0.023 C 
ATOM     29  C   UNL     1      28.420 -24.190 -15.670  0.00  0.00    -0.023 C 
ATOM     30  C   UNL     1      28.543 -22.689 -15.905  0.00  0.00    -0.004 C 
ATOM     31  H   UNL     1      29.334 -24.181 -13.184  0.00  0.00    -0.080 HD
ENDBRANCH  24  25
ENDBRANCH  23  24
ENDBRANCH  22  23
ENDBRANCH   1  22
TORSDOF 6
ENDMDL
MODEL 6
REMARK VINA RESULT:     -11.8      1.973     11.250
REMARK  Name = 11524144
REMARK  6 active torsions:
REMARK  status: ('A' for Active; 'I' for Inactive)
REMARK    1  A    between atoms: C_1  and  O_22
REMARK    2  A    between atoms: C_2  and  C_10
REMARK    3  A    between atoms: C_12  and  C_17
REMARK    4  A    between atoms: O_22  and  C_23
REMARK    5  A    between atoms: C_23  and  C_24
REMARK    6  A    between atoms: C_24  and  N_25
REMARK                            x       y       z     vdW  Elec       q    Type
REMARK                         _______ _______ _______ _____ _____    ______ ____
ROOT
ATOM      1  C   UNL     1      35.573 -20.072 -20.230  0.00  0.00    +0.138 C 
ATOM      2  C   UNL     1      34.736 -17.709 -21.433  0.00  0.00    -0.001 C 
ATOM      3  C   UNL     1      36.514 -19.119 -20.603  0.00  0.00    +0.037 C 
ATOM      4  C   UNL     1      34.218 -19.855 -20.453  0.00  0.00    +0.037 C 
ATOM      5  C   UNL     1      36.094 -17.933 -21.207  0.00  0.00    +0.003 C 
ATOM      6  C   UNL     1      33.798 -18.670 -21.056  0.00  0.00    +0.003 C 
ENDROOT
BRANCH   2  10
ATOM      7  N   UNL     1      33.613 -15.127 -23.921  0.00  0.00    -0.193 N 
ATOM      8  N   UNL     1      33.766 -14.025 -21.791  0.00  0.00    -0.231 NA
ATOM      9  N   UNL     1      33.299 -14.861 -25.216  0.00  0.00    -0.179 NA
ATOM     10  C   UNL     1      34.294 -16.460 -22.070  0.00  0.00    +0.019 C 
ATOM     11  C   UNL     1      33.498 -13.989 -23.125  0.00  0.00    +0.137 C 
ATOM     12  C   UNL     1      33.093 -12.971 -23.958  0.00  0.00    +0.121 C 
ATOM     13  C   UNL     1      34.012 -16.347 -23.378  0.00  0.00    +0.145 C 
ATOM     14  C   UNL     1      34.134 -15.177 -21.314  0.00  0.00    +0.097 C 
ATOM     15  C   UNL     1      32.988 -13.564 -25.223  0.00  0.00    +0.103 C 
BRANCH  12  17
ATOM     16  N   UNL     1      32.393  -8.990 -22.708  0.00  0.00    -0.242 NA
ATOM     17  C   UNL     1      32.855 -11.625 -23.536  0.00  0.00    -0.007 C 
ATOM     18  C   UNL     1      33.739 -10.610 -23.897  0.00  0.00    +0.017 C 
ATOM     19  C   UNL     1      31.741 -11.318 -22.760  0.00  0.00    +0.017 C 
ATOM     20  C   UNL     1      33.465  -9.323 -23.462  0.00  0.00    +0.099 C 
ATOM     21  C   UNL     1      31.557  -9.998 -22.377  0.00  0.00    +0.099 C 
ENDBRANCH  12  17
ENDBRANCH   2  10
BRANCH   1  22
ATOM     22  O   UNL     1      35.986 -21.236 -19.637  0.00  0.00    -0.478 OA
BRANCH  22  23
ATOM     23  C   UNL     1      35.416 -21.549 -18.373  0.00  0.00    +0.183 C 
BRANCH  23  24
ATOM     24  C   UNL     1      36.448 -21.273 -17.290  0.00  0.00    -0.029 C 
BRANCH  24  25
ATOM     25  N   UNL     1      35.973 -21.749 -15.992  0.00  0.00    +0.389 N 
ATOM     26  C   UNL     1      34.695 -22.459 -16.140  0.00  0.00    -0.077 C 
ATOM     27  C   UNL     1      36.985 -22.604 -15.357  0.00  0.00    -0.077 C 
ATOM     28  C   UNL     1      34.160 -22.922 -14.785  0.00  0.00    -0.023 C 
ATOM     29  C   UNL     1      36.525 -23.072 -13.976  0.00  0.00    -0.023 C 
ATOM     30  C   UNL     1      35.180 -23.785 -14.050  0.00  0.00    -0.004 C 
ATOM     31  H   UNL     1      35.816 -20.944 -15.385  0.00  0.00    -0.080 HD
ENDBRANCH  24  25
ENDBRANCH  23  24
ENDBRANCH  22  23
ENDBRANCH   1  22
TORSDOF 6
ENDMDL
MODEL 7
REMARK VINA RESULT:     -11.8      3.100     10.762
REMARK  Name = 11524144
REMARK  6 active torsions:
REMARK  status: ('A' for Active; 'I' for Inactive)
REMARK    1  A    between atoms: C_1  and  O_22
REMARK    2  A    between atoms: C_2  and  C_10
REMARK    3  A    between atoms: C_12  and  C_17
REMARK    4  A    between atoms: O_22  and  C_23
REMARK    5  A    between atoms: C_23  and  C_24
REMARK    6  A    between atoms: C_24  and  N_25
REMARK                            x       y       z     vdW  Elec       q    Type
REMARK                         _______ _______ _______ _____ _____    ______ ____
ROOT
ATOM      1  C   UNL     1      34.154 -23.454 -15.532  0.00  0.00    +0.138 C 
ATOM      2  C   UNL     1      34.475 -21.769 -17.719  0.00  0.00    -0.001 C 
ATOM      3  C   UNL     1      35.381 -22.840 -15.753  0.00  0.00    +0.037 C 
ATOM      4  C   UNL     1      33.085 -23.233 -16.393  0.00  0.00    +0.037 C 
ATOM      5  C   UNL     1      35.543 -21.995 -16.851  0.00  0.00    +0.003 C 
ATOM      6  C   UNL     1      33.247 -22.388 -17.490  0.00  0.00    +0.003 C 
ENDROOT
BRANCH   2  10
ATOM      7  N   UNL     1      35.896 -19.445 -20.307  0.00  0.00    -0.193 N 
ATOM      8  N   UNL     1      33.569 -19.735 -20.831  0.00  0.00    -0.231 NA
ATOM      9  N   UNL     1      36.995 -18.784 -20.758  0.00  0.00    -0.179 NA
ATOM     10  C   UNL     1      34.645 -20.878 -18.877  0.00  0.00    +0.019 C 
ATOM     11  C   UNL     1      34.781 -19.178 -21.100  0.00  0.00    +0.137 C 
ATOM     12  C   UNL     1      35.204 -18.317 -22.087  0.00  0.00    +0.121 C 
ATOM     13  C   UNL     1      35.808 -20.292 -19.205  0.00  0.00    +0.145 C 
ATOM     14  C   UNL     1      33.519 -20.522 -19.798  0.00  0.00    +0.097 C 
ATOM     15  C   UNL     1      36.565 -18.112 -21.826  0.00  0.00    +0.103 C 
BRANCH  12  17
ATOM     16  N   UNL     1      32.715 -16.766 -25.138  0.00  0.00    -0.242 NA
ATOM     17  C   UNL     1      34.362 -17.791 -23.118  0.00  0.00    -0.007 C 
ATOM     18  C   UNL     1      33.521 -18.638 -23.837  0.00  0.00    +0.017 C 
ATOM     19  C   UNL     1      34.377 -16.431 -23.413  0.00  0.00    +0.017 C 
ATOM     20  C   UNL     1      32.726 -18.081 -24.826  0.00  0.00    +0.099 C 
ATOM     21  C   UNL     1      33.543 -15.973 -24.421  0.00  0.00    +0.099 C 
ENDBRANCH  12  17
ENDBRANCH   2  10
BRANCH   1  22
ATOM     22  O   UNL     1      33.995 -24.284 -14.452  0.00  0.00    -0.478 OA
BRANCH  22  23
ATOM     23  C   UNL     1      34.171 -23.705 -13.166  0.00  0.00    +0.183 C 
BRANCH  23  24
ATOM     24  C   UNL     1      35.188 -24.531 -12.394  0.00  0.00    -0.029 C 
BRANCH  24  25
ATOM     25  N   UNL     1      36.467 -24.569 -13.102  0.00  0.00    +0.389 N 
ATOM     26  C   UNL     1      37.543 -24.044 -12.249  0.00  0.00    -0.077 C 
ATOM     27  C   UNL     1      36.765 -25.936 -13.551  0.00  0.00    -0.077 C 
ATOM     28  C   UNL     1      38.880 -24.031 -12.992  0.00  0.00    -0.023 C 
ATOM     29  C   UNL     1      38.076 -25.985 -14.337  0.00  0.00    -0.023 C 
ATOM     30  C   UNL     1      39.232 -25.416 -13.523  0.00  0.00    -0.004 C 
ATOM     31  H   UNL     1      36.402 -23.974 -13.927  0.00  0.00    -0.080 HD
ENDBRANCH  24  25
ENDBRANCH  23  24
ENDBRANCH  22  23
ENDBRANCH   1  22
TORSDOF 6
ENDMDL
MODEL 8
REMARK VINA RESULT:     -11.5      2.132      3.787
REMARK  Name = 11524144
REMARK  6 active torsions:
REMARK  status: ('A' for Active; 'I' for Inactive)
REMARK    1  A    between atoms: C_1  and  O_22
REMARK    2  A    between atoms: C_2  and  C_10
REMARK    3  A    between atoms: C_12  and  C_17
REMARK    4  A    between atoms: O_22  and  C_23
REMARK    5  A    between atoms: C_23  and  C_24
REMARK    6  A    between atoms: C_24  and  N_25
REMARK                            x       y       z     vdW  Elec       q    Type
REMARK                         _______ _______ _______ _____ _____    ______ ____
ROOT
ATOM      1  C   UNL     1      34.799 -18.606 -22.265  0.00  0.00    +0.138 C 
ATOM      2  C   UNL     1      34.071 -20.171 -20.086  0.00  0.00    -0.001 C 
ATOM      3  C   UNL     1      35.759 -18.969 -21.328  0.00  0.00    +0.037 C 
ATOM      4  C   UNL     1      33.479 -19.018 -22.124  0.00  0.00    +0.037 C 
ATOM      5  C   UNL     1      35.394 -19.754 -20.234  0.00  0.00    +0.003 C 
ATOM      6  C   UNL     1      33.114 -19.802 -21.030  0.00  0.00    +0.003 C 
ENDROOT
BRANCH   2  10
ATOM      7  N   UNL     1      34.133 -22.382 -17.048  0.00  0.00    -0.193 N 
ATOM      8  N   UNL     1      31.823 -21.994 -17.583  0.00  0.00    -0.231 NA
ATOM      9  N   UNL     1      34.900 -23.047 -16.145  0.00  0.00    -0.179 NA
ATOM     10  C   UNL     1      33.686 -20.997 -18.932  0.00  0.00    +0.019 C 
ATOM     11  C   UNL     1      32.775 -22.569 -16.799  0.00  0.00    +0.137 C 
ATOM     12  C   UNL     1      32.691 -23.384 -15.693  0.00  0.00    +0.121 C 
ATOM     13  C   UNL     1      34.566 -21.597 -18.115  0.00  0.00    +0.145 C 
ATOM     14  C   UNL     1      32.259 -21.267 -18.569  0.00  0.00    +0.097 C 
ATOM     15  C   UNL     1      34.022 -23.643 -15.338  0.00  0.00    +0.103 C 
BRANCH  12  17
ATOM     16  N   UNL     1      29.066 -24.688 -13.944  0.00  0.00    -0.242 NA
ATOM     17  C   UNL     1      31.465 -23.824 -15.102  0.00  0.00    -0.007 C 
ATOM     18  C   UNL     1      31.444 -24.283 -13.786  0.00  0.00    +0.017 C 
ATOM     19  C   UNL     1      30.282 -23.799 -15.836  0.00  0.00    +0.017 C 
ATOM     20  C   UNL     1      30.232 -24.699 -13.260  0.00  0.00    +0.099 C 
ATOM     21  C   UNL     1      29.121 -24.236 -15.217  0.00  0.00    +0.099 C 
ENDBRANCH  12  17
ENDBRANCH   2  10
BRANCH   1  22
ATOM     22  O   UNL     1      35.158 -17.835 -23.340  0.00  0.00    -0.478 OA
BRANCH  22  23
ATOM     23  C   UNL     1      34.369 -16.680 -23.593  0.00  0.00    +0.183 C 
BRANCH  23  24
ATOM     24  C   UNL     1      34.737 -15.606 -22.582  0.00  0.00    -0.029 C 
BRANCH  24  25
ATOM     25  N   UNL     1      33.575 -14.777 -22.264  0.00  0.00    +0.389 N 
ATOM     26  C   UNL     1      33.597 -14.383 -20.848  0.00  0.00    -0.077 C 
ATOM     27  C   UNL     1      33.527 -13.601 -23.142  0.00  0.00    -0.077 C 
ATOM     28  C   UNL     1      32.362 -13.555 -20.486  0.00  0.00    -0.023 C 
ATOM     29  C   UNL     1      32.290 -12.748 -22.856  0.00  0.00    -0.023 C 
ATOM     30  C   UNL     1      32.228 -12.334 -21.390  0.00  0.00    -0.004 C 
ATOM     31  H   UNL     1      32.729 -15.324 -22.424  0.00  0.00    -0.080 HD
ENDBRANCH  24  25
ENDBRANCH  23  24
ENDBRANCH  22  23
ENDBRANCH   1  22
TORSDOF 6
ENDMDL
MODEL 9
REMARK VINA RESULT:     -11.4      4.356     13.364
REMARK  Name = 11524144
REMARK  6 active torsions:
REMARK  status: ('A' for Active; 'I' for Inactive)
REMARK    1  A    between atoms: C_1  and  O_22
REMARK    2  A    between atoms: C_2  and  C_10
REMARK    3  A    between atoms: C_12  and  C_17
REMARK    4  A    between atoms: O_22  and  C_23
REMARK    5  A    between atoms: C_23  and  C_24
REMARK    6  A    between atoms: C_24  and  N_25
REMARK                            x       y       z     vdW  Elec       q    Type
REMARK                         _______ _______ _______ _____ _____    ______ ____
ROOT
ATOM      1  C   UNL     1      34.216 -15.472 -21.239  0.00  0.00    +0.138 C 
ATOM      2  C   UNL     1      33.365 -12.931 -21.979  0.00  0.00    -0.001 C 
ATOM      3  C   UNL     1      33.670 -14.624 -20.283  0.00  0.00    +0.037 C 
ATOM      4  C   UNL     1      34.340 -15.063 -22.562  0.00  0.00    +0.037 C 
ATOM      5  C   UNL     1      33.243 -13.348 -20.654  0.00  0.00    +0.003 C 
ATOM      6  C   UNL     1      33.913 -13.788 -22.933  0.00  0.00    +0.003 C 
ENDROOT
BRANCH   2  10
ATOM      7  N   UNL     1      31.353  -9.795 -22.457  0.00  0.00    -0.193 N 
ATOM      8  N   UNL     1      33.435  -9.472 -23.612  0.00  0.00    -0.231 NA
ATOM      9  N   UNL     1      30.187  -9.145 -22.202  0.00  0.00    -0.179 NA
ATOM     10  C   UNL     1      32.916 -11.587 -22.371  0.00  0.00    +0.019 C 
ATOM     11  C   UNL     1      32.209  -9.017 -23.235  0.00  0.00    +0.137 C 
ATOM     12  C   UNL     1      31.549  -7.833 -23.473  0.00  0.00    +0.121 C 
ATOM     13  C   UNL     1      31.722 -11.071 -22.038  0.00  0.00    +0.145 C 
ATOM     14  C   UNL     1      33.751 -10.665 -23.205  0.00  0.00    +0.097 C 
ATOM     15  C   UNL     1      30.319  -7.970 -22.817  0.00  0.00    +0.103 C 
BRANCH  12  17
ATOM     16  N   UNL     1      33.126  -4.626 -25.739  0.00  0.00    -0.242 NA
ATOM     17  C   UNL     1      32.082  -6.749 -24.240  0.00  0.00    -0.007 C 
ATOM     18  C   UNL     1      33.147  -5.997 -23.748  0.00  0.00    +0.017 C 
ATOM     19  C   UNL     1      31.542  -6.435 -25.484  0.00  0.00    +0.017 C 
ATOM     20  C   UNL     1      33.627  -4.958 -24.528  0.00  0.00    +0.099 C 
ATOM     21  C   UNL     1      32.094  -5.375 -26.186  0.00  0.00    +0.099 C 
ENDBRANCH  12  17
ENDBRANCH   2  10
BRANCH   1  22
ATOM     22  O   UNL     1      34.635 -16.725 -20.874  0.00  0.00    -0.478 OA
BRANCH  22  23
ATOM     23  C   UNL     1      34.832 -17.666 -21.921  0.00  0.00    +0.183 C 
BRANCH  23  24
ATOM     24  C   UNL     1      35.586 -18.864 -21.366  0.00  0.00    -0.029 C 
BRANCH  24  25
ATOM     25  N   UNL     1      34.813 -19.516 -20.310  0.00  0.00    +0.389 N 
ATOM     26  C   UNL     1      33.461 -19.839 -20.787  0.00  0.00    -0.077 C 
ATOM     27  C   UNL     1      35.509 -20.719 -19.833  0.00  0.00    -0.077 C 
ATOM     28  C   UNL     1      32.622 -20.478 -19.680  0.00  0.00    -0.023 C 
ATOM     29  C   UNL     1      34.737 -21.388 -18.694  0.00  0.00    -0.023 C 
ATOM     30  C   UNL     1      33.308 -21.715 -19.109  0.00  0.00    -0.004 C 
ATOM     31  H   UNL     1      34.724 -18.872 -19.525  0.00  0.00    -0.080 HD
ENDBRANCH  24  25
ENDBRANCH  23  24
ENDBRANCH  22  23
ENDBRANCH   1  22
TORSDOF 6
ENDMDL
