MODEL 1
REMARK VINA RESULT:     -12.4      0.000      0.000
REMARK  Name = 24764443
REMARK  5 active torsions:
REMARK  status: ('A' for Active; 'I' for Inactive)
REMARK    1  A    between atoms: C_2  and  C_17
REMARK    2  A    between atoms: C_3  and  N_19
REMARK    3  A    between atoms: C_20  and  C_22
REMARK    4  A    between atoms: C_22  and  C_23
REMARK    5  A    between atoms: C_23  and  C_31
REMARK                            x       y       z     vdW  Elec       q    Type
REMARK                         _______ _______ _______ _____ _____    ______ ____
ROOT
ATOM      1 BR   UNL     1      36.464 -23.363 -13.609  0.00  0.00    -0.049 Br
ATOM      2  C   UNL     1      34.168 -22.324 -16.921  0.00  0.00    +0.068 C 
ATOM      3  C   UNL     1      35.079 -21.657 -17.741  0.00  0.00    +0.055 C 
ATOM      4  C   UNL     1      34.581 -22.833 -15.690  0.00  0.00    +0.012 C 
ATOM      5  C   UNL     1      36.402 -21.498 -17.329  0.00  0.00    +0.015 C 
ATOM      6  C   UNL     1      35.903 -22.674 -15.277  0.00  0.00    +0.035 C 
ATOM      7  C   UNL     1      36.814 -22.007 -16.097  0.00  0.00    +0.008 C 
ENDROOT
BRANCH   2  17
ATOM      8  O   UNL     1      32.512 -22.288 -18.508  0.00  0.00    -0.270 OA
ATOM      9  N   UNL     1      31.847 -22.904 -16.353  0.00  0.00    -0.276 N 
ATOM     10  C   UNL     1      29.542 -22.210 -15.834  0.00  0.00    +0.020 C 
ATOM     11  C   UNL     1      31.316 -22.316 -14.019  0.00  0.00    +0.020 C 
ATOM     12  C   UNL     1      29.821 -22.476 -14.344  0.00  0.00    +0.003 C 
ATOM     13  C   UNL     1      30.442 -23.086 -16.716  0.00  0.00    +0.094 C 
ATOM     14  C   UNL     1      32.159 -23.197 -14.948  0.00  0.00    +0.094 C 
ATOM     15  C   UNL     1      28.069 -22.445 -16.160  0.00  0.00    +0.002 C 
ATOM     16  C   UNL     1      31.592 -22.650 -12.556  0.00  0.00    +0.002 C 
ATOM     17  C   UNL     1      32.769 -22.509 -17.326  0.00  0.00    +0.250 C 
ENDBRANCH   2  17
BRANCH   3  19
ATOM     18  O   UNL     1      36.404 -19.617 -19.502  0.00  0.00    -0.275 OA
ATOM     19  N   UNL     1      34.688 -21.139 -18.980  0.00  0.00    -0.284 N 
ATOM     20  C   UNL     1      35.346 -20.182 -19.764  0.00  0.00    +0.227 C 
ATOM     21  H   UNL     1      33.844 -21.490 -19.346  0.00  0.00    +0.155 HD
BRANCH  20  22
ATOM     22  C   UNL     1      34.577 -19.899 -21.046  0.00  0.00    +0.095 C 
BRANCH  22  23
ATOM     23  C   UNL     1      34.248 -18.423 -21.217  0.00  0.00    +0.095 C 
BRANCH  23  31
ATOM     24  O   UNL     1      33.673 -14.066 -23.702  0.00  0.00    -0.350 OA
ATOM     25  O   UNL     1      34.030 -18.994 -23.508  0.00  0.00    -0.275 OA
ATOM     26  N   UNL     1      34.256 -16.737 -23.018  0.00  0.00    -0.274 N 
ATOM     27  C   UNL     1      34.547 -15.646 -22.081  0.00  0.00    +0.125 C 
ATOM     28  C   UNL     1      34.183 -16.322 -24.420  0.00  0.00    +0.125 C 
ATOM     29  C   UNL     1      33.610 -14.471 -22.332  0.00  0.00    +0.164 C 
ATOM     30  C   UNL     1      33.257 -15.123 -24.570  0.00  0.00    +0.164 C 
ATOM     31  C   UNL     1      34.168 -18.087 -22.685  0.00  0.00    +0.226 C 
ENDBRANCH  23  31
ENDBRANCH  22  23
ENDBRANCH  20  22
ENDBRANCH   3  19
TORSDOF 5
ENDMDL
MODEL 2
REMARK VINA RESULT:     -11.9      2.583      4.984
REMARK  Name = 24764443
REMARK  5 active torsions:
REMARK  status: ('A' for Active; 'I' for Inactive)
REMARK    1  A    between atoms: C_2  and  C_17
REMARK    2  A    between atoms: C_3  and  N_19
REMARK    3  A    between atoms: C_20  and  C_22
REMARK    4  A    between atoms: C_22  and  C_23
REMARK    5  A    between atoms: C_23  and  C_31
REMARK                            x       y       z     vdW  Elec       q    Type
REMARK                         _______ _______ _______ _____ _____    ______ ____
ROOT
ATOM      1 BR   UNL     1      31.032 -24.145 -13.607  0.00  0.00    -0.049 Br
ATOM      2  C   UNL     1      34.425 -22.694 -15.532  0.00  0.00    +0.068 C 
ATOM      3  C   UNL     1      33.959 -22.398 -16.813  0.00  0.00    +0.055 C 
ATOM      4  C   UNL     1      33.552 -23.214 -14.576  0.00  0.00    +0.012 C 
ATOM      5  C   UNL     1      32.621 -22.623 -17.139  0.00  0.00    +0.015 C 
ATOM      6  C   UNL     1      32.215 -23.440 -14.902  0.00  0.00    +0.035 C 
ATOM      7  C   UNL     1      31.749 -23.144 -16.183  0.00  0.00    +0.008 C 
ENDROOT
BRANCH   2  17
ATOM      8  O   UNL     1      36.299 -21.374 -15.460  0.00  0.00    -0.270 OA
ATOM      9  N   UNL     1      36.509 -23.499 -14.507  0.00  0.00    -0.276 N 
ATOM     10  C   UNL     1      38.780 -24.425 -14.738  0.00  0.00    +0.020 C 
ATOM     11  C   UNL     1      36.743 -25.942 -14.737  0.00  0.00    +0.020 C 
ATOM     12  C   UNL     1      38.229 -25.811 -14.361  0.00  0.00    +0.003 C 
ATOM     13  C   UNL     1      37.911 -23.316 -14.130  0.00  0.00    +0.094 C 
ATOM     14  C   UNL     1      35.936 -24.794 -14.119  0.00  0.00    +0.094 C 
ATOM     15  C   UNL     1      40.233 -24.279 -14.293  0.00  0.00    +0.002 C 
ATOM     16  C   UNL     1      36.189 -27.293 -14.295  0.00  0.00    +0.002 C 
ATOM     17  C   UNL     1      35.826 -22.468 -15.158  0.00  0.00    +0.250 C 
ENDBRANCH   2  17
BRANCH   3  19
ATOM     18  O   UNL     1      33.348 -20.819 -19.295  0.00  0.00    -0.275 OA
ATOM     19  N   UNL     1      34.815 -21.875 -17.788  0.00  0.00    -0.284 N 
ATOM     20  C   UNL     1      34.475 -21.142 -18.934  0.00  0.00    +0.227 C 
ATOM     21  H   UNL     1      35.775 -22.043 -17.652  0.00  0.00    +0.155 HD
BRANCH  20  22
ATOM     22  C   UNL     1      35.716 -20.762 -19.729  0.00  0.00    +0.095 C 
BRANCH  22  23
ATOM     23  C   UNL     1      35.380 -20.187 -21.097  0.00  0.00    +0.095 C 
BRANCH  23  31
ATOM     24  O   UNL     1      33.631 -16.558 -24.141  0.00  0.00    -0.350 OA
ATOM     25  O   UNL     1      36.259 -18.148 -20.266  0.00  0.00    -0.275 OA
ATOM     26  N   UNL     1      34.657 -17.983 -21.936  0.00  0.00    -0.274 N 
ATOM     27  C   UNL     1      33.627 -18.577 -22.795  0.00  0.00    +0.125 C 
ATOM     28  C   UNL     1      34.690 -16.520 -21.964  0.00  0.00    +0.125 C 
ATOM     29  C   UNL     1      33.702 -17.985 -24.197  0.00  0.00    +0.164 C 
ATOM     30  C   UNL     1      34.727 -16.017 -23.400  0.00  0.00    +0.164 C 
ATOM     31  C   UNL     1      35.477 -18.683 -21.055  0.00  0.00    +0.226 C 
ENDBRANCH  23  31
ENDBRANCH  22  23
ENDBRANCH  20  22
ENDBRANCH   3  19
TORSDOF 5
ENDMDL
MODEL 3
REMARK VINA RESULT:     -11.9      2.145      4.285
REMARK  Name = 24764443
REMARK  5 active torsions:
REMARK  status: ('A' for Active; 'I' for Inactive)
REMARK    1  A    between atoms: C_2  and  C_17
REMARK    2  A    between atoms: C_3  and  N_19
REMARK    3  A    between atoms: C_20  and  C_22
REMARK    4  A    between atoms: C_22  and  C_23
REMARK    5  A    between atoms: C_23  and  C_31
REMARK                            x       y       z     vdW  Elec       q    Type
REMARK                         _______ _______ _______ _____ _____    ______ ____
ROOT
ATOM      1 BR   UNL     1      30.689 -23.669 -13.489  0.00  0.00    -0.049 Br
ATOM      2  C   UNL     1      33.508 -22.534 -16.333  0.00  0.00    +0.068 C 
ATOM      3  C   UNL     1      32.723 -22.089 -17.396  0.00  0.00    +0.055 C 
ATOM      4  C   UNL     1      32.902 -23.004 -15.168  0.00  0.00    +0.012 C 
ATOM      5  C   UNL     1      31.331 -22.115 -17.296  0.00  0.00    +0.015 C 
ATOM      6  C   UNL     1      31.512 -23.032 -15.067  0.00  0.00    +0.035 C 
ATOM      7  C   UNL     1      30.726 -22.587 -16.131  0.00  0.00    +0.008 C 
ENDROOT
BRANCH   2  17
ATOM      8  O   UNL     1      35.460 -22.352 -17.525  0.00  0.00    -0.270 OA
ATOM      9  N   UNL     1      35.696 -22.701 -15.225  0.00  0.00    -0.276 N 
ATOM     10  C   UNL     1      37.708 -24.007 -14.663  0.00  0.00    +0.020 C 
ATOM     11  C   UNL     1      35.600 -24.182 -13.257  0.00  0.00    +0.020 C 
ATOM     12  C   UNL     1      37.138 -24.238 -13.253  0.00  0.00    +0.003 C 
ATOM     13  C   UNL     1      37.159 -22.705 -15.261  0.00  0.00    +0.094 C 
ATOM     14  C   UNL     1      35.117 -22.870 -13.886  0.00  0.00    +0.094 C 
ATOM     15  C   UNL     1      39.234 -23.989 -14.635  0.00  0.00    +0.002 C 
ATOM     16  C   UNL     1      35.049 -24.341 -11.843  0.00  0.00    +0.002 C 
ATOM     17  C   UNL     1      34.974 -22.518 -16.407  0.00  0.00    +0.250 C 
ENDBRANCH   2  17
BRANCH   3  19
ATOM     18  O   UNL     1      31.671 -20.168 -19.453  0.00  0.00    -0.275 OA
ATOM     19  N   UNL     1      33.308 -21.612 -18.574  0.00  0.00    -0.284 N 
ATOM     20  C   UNL     1      32.770 -20.712 -19.504  0.00  0.00    +0.227 C 
ATOM     21  H   UNL     1      34.210 -21.952 -18.775  0.00  0.00    +0.155 HD
BRANCH  20  22
ATOM     22  C   UNL     1      33.741 -20.460 -20.648  0.00  0.00    +0.095 C 
BRANCH  22  23
ATOM     23  C   UNL     1      34.190 -19.007 -20.725  0.00  0.00    +0.095 C 
BRANCH  23  31
ATOM     24  O   UNL     1      34.124 -14.455 -22.907  0.00  0.00    -0.350 OA
ATOM     25  O   UNL     1      34.084 -19.398 -23.061  0.00  0.00    -0.275 OA
ATOM     26  N   UNL     1      34.450 -17.206 -22.390  0.00  0.00    -0.274 N 
ATOM     27  C   UNL     1      34.761 -16.211 -21.359  0.00  0.00    +0.125 C 
ATOM     28  C   UNL     1      34.505 -16.690 -23.759  0.00  0.00    +0.125 C 
ATOM     29  C   UNL     1      33.938 -14.948 -21.578  0.00  0.00    +0.164 C 
ATOM     30  C   UNL     1      33.687 -15.412 -23.876  0.00  0.00    +0.164 C 
ATOM     31  C   UNL     1      34.236 -18.564 -22.165  0.00  0.00    +0.226 C 
ENDBRANCH  23  31
ENDBRANCH  22  23
ENDBRANCH  20  22
ENDBRANCH   3  19
TORSDOF 5
ENDMDL
MODEL 4
REMARK VINA RESULT:     -11.6      2.777      5.191
REMARK  Name = 24764443
REMARK  5 active torsions:
REMARK  status: ('A' for Active; 'I' for Inactive)
REMARK    1  A    between atoms: C_2  and  C_17
REMARK    2  A    between atoms: C_3  and  N_19
REMARK    3  A    between atoms: C_20  and  C_22
REMARK    4  A    between atoms: C_22  and  C_23
REMARK    5  A    between atoms: C_23  and  C_31
REMARK                            x       y       z     vdW  Elec       q    Type
REMARK                         _______ _______ _______ _____ _____    ______ ____
ROOT
ATOM      1 BR   UNL     1      30.421 -24.713 -12.756  0.00  0.00    -0.049 Br
ATOM      2  C   UNL     1      33.847 -23.892 -14.971  0.00  0.00    +0.068 C 
ATOM      3  C   UNL     1      33.498 -22.741 -15.678  0.00  0.00    +0.055 C 
ATOM      4  C   UNL     1      32.930 -24.479 -14.100  0.00  0.00    +0.012 C 
ATOM      5  C   UNL     1      32.232 -22.178 -15.514  0.00  0.00    +0.015 C 
ATOM      6  C   UNL     1      31.664 -23.918 -13.936  0.00  0.00    +0.035 C 
ATOM      7  C   UNL     1      31.315 -22.767 -14.643  0.00  0.00    +0.008 C 
ENDROOT
BRANCH   2  17
ATOM      8  O   UNL     1      35.261 -25.407 -15.955  0.00  0.00    -0.270 OA
ATOM      9  N   UNL     1      36.210 -24.043 -14.310  0.00  0.00    -0.276 N 
ATOM     10  C   UNL     1      38.006 -25.171 -13.059  0.00  0.00    +0.020 C 
ATOM     11  C   UNL     1      36.524 -23.437 -11.942  0.00  0.00    +0.020 C 
ATOM     12  C   UNL     1      37.928 -24.066 -11.992  0.00  0.00    +0.003 C 
ATOM     13  C   UNL     1      37.540 -24.641 -14.421  0.00  0.00    +0.094 C 
ATOM     14  C   UNL     1      36.110 -22.949 -13.334  0.00  0.00    +0.094 C 
ATOM     15  C   UNL     1      39.422 -25.735 -13.152  0.00  0.00    +0.002 C 
ATOM     16  C   UNL     1      36.478 -22.295 -10.931  0.00  0.00    +0.002 C 
ATOM     17  C   UNL     1      35.171 -24.508 -15.121  0.00  0.00    +0.250 C 
ENDBRANCH   2  17
BRANCH   3  19
ATOM     18  O   UNL     1      33.581 -22.728 -18.681  0.00  0.00    -0.275 OA
ATOM     19  N   UNL     1      34.401 -22.134 -16.556  0.00  0.00    -0.284 N 
ATOM     20  C   UNL     1      34.395 -22.160 -17.958  0.00  0.00    +0.227 C 
ATOM     21  H   UNL     1      35.133 -21.625 -16.139  0.00  0.00    +0.155 HD
BRANCH  20  22
ATOM     22  C   UNL     1      35.562 -21.366 -18.527  0.00  0.00    +0.095 C 
BRANCH  22  23
ATOM     23  C   UNL     1      35.344 -20.965 -19.979  0.00  0.00    +0.095 C 
BRANCH  23  31
ATOM     24  O   UNL     1      33.883 -17.481 -23.329  0.00  0.00    -0.350 OA
ATOM     25  O   UNL     1      36.656 -19.039 -19.542  0.00  0.00    -0.275 OA
ATOM     26  N   UNL     1      34.912 -18.786 -21.053  0.00  0.00    -0.274 N 
ATOM     27  C   UNL     1      33.698 -19.280 -21.711  0.00  0.00    +0.125 C 
ATOM     28  C   UNL     1      35.193 -17.371 -21.295  0.00  0.00    +0.125 C 
ATOM     29  C   UNL     1      33.701 -18.892 -23.184  0.00  0.00    +0.164 C 
ATOM     30  C   UNL     1      35.139 -17.067 -22.786  0.00  0.00    +0.164 C 
ATOM     31  C   UNL     1      35.702 -19.512 -20.164  0.00  0.00    +0.226 C 
ENDBRANCH  23  31
ENDBRANCH  22  23
ENDBRANCH  20  22
ENDBRANCH   3  19
TORSDOF 5
ENDMDL
MODEL 5
REMARK VINA RESULT:     -10.9      7.930     14.983
REMARK  Name = 24764443
REMARK  5 active torsions:
REMARK  status: ('A' for Active; 'I' for Inactive)
REMARK    1  A    between atoms: C_2  and  C_17
REMARK    2  A    between atoms: C_3  and  N_19
REMARK    3  A    between atoms: C_20  and  C_22
REMARK    4  A    between atoms: C_22  and  C_23
REMARK    5  A    between atoms: C_23  and  C_31
REMARK                            x       y       z     vdW  Elec       q    Type
REMARK                         _______ _______ _______ _____ _____    ______ ____
ROOT
ATOM      1 BR   UNL     1      30.817  -4.734 -20.267  0.00  0.00    -0.049 Br
ATOM      2  C   UNL     1      32.919  -7.296 -22.784  0.00  0.00    +0.068 C 
ATOM      3  C   UNL     1      32.444  -8.557 -22.420  0.00  0.00    +0.055 C 
ATOM      4  C   UNL     1      32.433  -6.157 -22.143  0.00  0.00    +0.012 C 
ATOM      5  C   UNL     1      31.485  -8.678 -21.414  0.00  0.00    +0.015 C 
ATOM      6  C   UNL     1      31.475  -6.277 -21.137  0.00  0.00    +0.035 C 
ATOM      7  C   UNL     1      31.001  -7.537 -20.772  0.00  0.00    +0.008 C 
ENDROOT
BRANCH   2  17
ATOM      8  O   UNL     1      34.907  -7.875 -23.772  0.00  0.00    -0.270 OA
ATOM      9  N   UNL     1      33.706  -6.164 -24.819  0.00  0.00    -0.276 N 
ATOM     10  C   UNL     1      35.166  -4.506 -25.907  0.00  0.00    +0.020 C 
ATOM     11  C   UNL     1      32.933  -3.825 -24.906  0.00  0.00    +0.020 C 
ATOM     12  C   UNL     1      33.965  -3.550 -26.014  0.00  0.00    +0.003 C 
ATOM     13  C   UNL     1      34.694  -5.965 -25.879  0.00  0.00    +0.094 C 
ATOM     14  C   UNL     1      32.521  -5.301 -24.918  0.00  0.00    +0.094 C 
ATOM     15  C   UNL     1      36.146  -4.275 -27.055  0.00  0.00    +0.002 C 
ATOM     16  C   UNL     1      31.715  -2.920 -25.064  0.00  0.00    +0.002 C 
ATOM     17  C   UNL     1      33.926  -7.136 -23.840  0.00  0.00    +0.250 C 
ENDBRANCH   2  17
BRANCH   3  19
ATOM     18  O   UNL     1      31.549 -11.413 -22.165  0.00  0.00    -0.275 OA
ATOM     19  N   UNL     1      32.915  -9.714 -23.050  0.00  0.00    -0.284 N 
ATOM     20  C   UNL     1      32.460 -11.030 -22.893  0.00  0.00    +0.227 C 
ATOM     21  H   UNL     1      33.660  -9.587 -23.681  0.00  0.00    +0.155 HD
BRANCH  20  22
ATOM     22  C   UNL     1      33.251 -11.992 -23.768  0.00  0.00    +0.095 C 
BRANCH  22  23
ATOM     23  C   UNL     1      32.746 -13.424 -23.667  0.00  0.00    +0.095 C 
BRANCH  23  31
ATOM     24  O   UNL     1      34.340 -18.215 -23.612  0.00  0.00    -0.350 OA
ATOM     25  O   UNL     1      33.885 -13.716 -21.608  0.00  0.00    -0.275 OA
ATOM     26  N   UNL     1      34.051 -15.451 -23.141  0.00  0.00    -0.274 N 
ATOM     27  C   UNL     1      33.852 -16.004 -24.485  0.00  0.00    +0.125 C 
ATOM     28  C   UNL     1      34.891 -16.274 -22.271  0.00  0.00    +0.125 C 
ATOM     29  C   UNL     1      33.413 -17.460 -24.397  0.00  0.00    +0.164 C 
ATOM     30  C   UNL     1      34.404 -17.716 -22.273  0.00  0.00    +0.164 C 
ATOM     31  C   UNL     1      33.611 -14.202 -22.708  0.00  0.00    +0.226 C 
ENDBRANCH  23  31
ENDBRANCH  22  23
ENDBRANCH  20  22
ENDBRANCH   3  19
TORSDOF 5
ENDMDL
MODEL 6
REMARK VINA RESULT:     -10.4      4.646      7.974
REMARK  Name = 24764443
REMARK  5 active torsions:
REMARK  status: ('A' for Active; 'I' for Inactive)
REMARK    1  A    between atoms: C_2  and  C_17
REMARK    2  A    between atoms: C_3  and  N_19
REMARK    3  A    between atoms: C_20  and  C_22
REMARK    4  A    between atoms: C_22  and  C_23
REMARK    5  A    between atoms: C_23  and  C_31
REMARK                            x       y       z     vdW  Elec       q    Type
REMARK                         _______ _______ _______ _____ _____    ______ ____
ROOT
ATOM      1 BR   UNL     1      38.907 -25.298 -13.499  0.00  0.00    -0.049 Br
ATOM      2  C   UNL     1      35.134 -23.857 -14.505  0.00  0.00    +0.068 C 
ATOM      3  C   UNL     1      34.514 -23.702 -13.265  0.00  0.00    +0.055 C 
ATOM      4  C   UNL     1      36.444 -24.332 -14.575  0.00  0.00    +0.012 C 
ATOM      5  C   UNL     1      35.203 -24.024 -12.095  0.00  0.00    +0.015 C 
ATOM      6  C   UNL     1      37.132 -24.654 -13.406  0.00  0.00    +0.035 C 
ATOM      7  C   UNL     1      36.512 -24.500 -12.166  0.00  0.00    +0.008 C 
ENDROOT
BRANCH   2  17
ATOM      8  O   UNL     1      33.621 -24.354 -16.156  0.00  0.00    -0.270 OA
ATOM      9  N   UNL     1      34.755 -22.322 -16.387  0.00  0.00    -0.276 N 
ATOM     10  C   UNL     1      35.127 -21.704 -18.742  0.00  0.00    +0.020 C 
ATOM     11  C   UNL     1      36.793 -21.052 -16.940  0.00  0.00    +0.020 C 
ATOM     12  C   UNL     1      36.154 -20.655 -18.282  0.00  0.00    +0.003 C 
ATOM     13  C   UNL     1      34.091 -21.965 -17.641  0.00  0.00    +0.094 C 
ATOM     14  C   UNL     1      35.708 -21.320 -15.892  0.00  0.00    +0.094 C 
ATOM     15  C   UNL     1      34.444 -21.263 -20.035  0.00  0.00    +0.002 C 
ATOM     16  C   UNL     1      37.758 -19.971 -16.459  0.00  0.00    +0.002 C 
ATOM     17  C   UNL     1      34.437 -23.526 -15.754  0.00  0.00    +0.250 C 
ENDBRANCH   2  17
BRANCH   3  19
ATOM     18  O   UNL     1      31.898 -25.175 -13.371  0.00  0.00    -0.275 OA
ATOM     19  N   UNL     1      33.202 -23.227 -13.170  0.00  0.00    -0.284 N 
ATOM     20  C   UNL     1      32.010 -23.962 -13.227  0.00  0.00    +0.227 C 
ATOM     21  H   UNL     1      33.104 -22.255 -13.048  0.00  0.00    +0.155 HD
BRANCH  20  22
ATOM     22  C   UNL     1      30.798 -23.053 -13.081  0.00  0.00    +0.095 C 
BRANCH  22  23
ATOM     23  C   UNL     1      29.509 -23.717 -13.545  0.00  0.00    +0.095 C 
BRANCH  23  31
ATOM     24  O   UNL     1      26.097 -21.459 -16.503  0.00  0.00    -0.350 OA
ATOM     25  O   UNL     1      30.094 -24.279 -15.773  0.00  0.00    -0.275 OA
ATOM     26  N   UNL     1      28.436 -22.676 -15.507  0.00  0.00    -0.274 N 
ATOM     27  C   UNL     1      27.663 -21.750 -14.672  0.00  0.00    +0.125 C 
ATOM     28  C   UNL     1      28.243 -22.492 -16.946  0.00  0.00    +0.125 C 
ATOM     29  C   UNL     1      26.203 -21.743 -15.106  0.00  0.00    +0.164 C 
ATOM     30  C   UNL     1      26.758 -22.460 -17.281  0.00  0.00    +0.164 C 
ATOM     31  C   UNL     1      29.380 -23.588 -15.041  0.00  0.00    +0.226 C 
ENDBRANCH  23  31
ENDBRANCH  22  23
ENDBRANCH  20  22
ENDBRANCH   3  19
TORSDOF 5
ENDMDL
MODEL 7
REMARK VINA RESULT:     -10.4      4.114      9.218
REMARK  Name = 24764443
REMARK  5 active torsions:
REMARK  status: ('A' for Active; 'I' for Inactive)
REMARK    1  A    between atoms: C_2  and  C_17
REMARK    2  A    between atoms: C_3  and  N_19
REMARK    3  A    between atoms: C_20  and  C_22
REMARK    4  A    between atoms: C_22  and  C_23
REMARK    5  A    between atoms: C_23  and  C_31
REMARK                            x       y       z     vdW  Elec       q    Type
REMARK                         _______ _______ _______ _____ _____    ______ ____
ROOT
ATOM      1 BR   UNL     1      30.235 -22.197 -15.608  0.00  0.00    -0.049 Br
ATOM      2  C   UNL     1      34.318 -22.728 -16.215  0.00  0.00    +0.068 C 
ATOM      3  C   UNL     1      34.634 -23.771 -15.345  0.00  0.00    +0.055 C 
ATOM      4  C   UNL     1      33.007 -22.259 -16.294  0.00  0.00    +0.012 C 
ATOM      5  C   UNL     1      33.639 -24.346 -14.553  0.00  0.00    +0.015 C 
ATOM      6  C   UNL     1      32.012 -22.832 -15.502  0.00  0.00    +0.035 C 
ATOM      7  C   UNL     1      32.328 -23.875 -14.632  0.00  0.00    +0.008 C 
ENDROOT
BRANCH   2  17
ATOM      8  O   UNL     1      36.450 -21.950 -16.551  0.00  0.00    -0.270 OA
ATOM      9  N   UNL     1      34.984 -21.727 -18.359  0.00  0.00    -0.276 N 
ATOM     10  C   UNL     1      35.457 -19.733 -19.726  0.00  0.00    +0.020 C 
ATOM     11  C   UNL     1      33.086 -20.603 -19.458  0.00  0.00    +0.020 C 
ATOM     12  C   UNL     1      34.079 -19.890 -20.392  0.00  0.00    +0.003 C 
ATOM     13  C   UNL     1      35.973 -21.089 -19.228  0.00  0.00    +0.094 C 
ATOM     14  C   UNL     1      33.669 -21.937 -18.980  0.00  0.00    +0.094 C 
ATOM     15  C   UNL     1      36.454 -19.093 -20.688  0.00  0.00    +0.002 C 
ATOM     16  C   UNL     1      31.744 -20.816 -20.154  0.00  0.00    +0.002 C 
ATOM     17  C   UNL     1      35.342 -22.103 -17.062  0.00  0.00    +0.250 C 
ENDBRANCH   2  17
BRANCH   3  19
ATOM     18  O   UNL     1      35.661 -26.594 -15.315  0.00  0.00    -0.275 OA
ATOM     19  N   UNL     1      35.941 -24.259 -15.249  0.00  0.00    -0.284 N 
ATOM     20  C   UNL     1      36.368 -25.594 -15.238  0.00  0.00    +0.227 C 
ATOM     21  H   UNL     1      36.650 -23.579 -15.180  0.00  0.00    +0.155 HD
BRANCH  20  22
ATOM     22  C   UNL     1      37.883 -25.685 -15.119  0.00  0.00    +0.095 C 
BRANCH  22  23
ATOM     23  C   UNL     1      38.341 -25.974 -13.697  0.00  0.00    +0.095 C 
BRANCH  23  31
ATOM     24  O   UNL     1      35.336 -23.214 -10.723  0.00  0.00    -0.350 OA
ATOM     25  O   UNL     1      39.545 -23.993 -13.200  0.00  0.00    -0.275 OA
ATOM     26  N   UNL     1      37.572 -24.331 -12.025  0.00  0.00    -0.274 N 
ATOM     27  C   UNL     1      36.445 -25.178 -11.619  0.00  0.00    +0.125 C 
ATOM     28  C   UNL     1      37.693 -23.087 -11.264  0.00  0.00    +0.125 C 
ATOM     29  C   UNL     1      35.162 -24.358 -11.563  0.00  0.00    +0.164 C 
ATOM     30  C   UNL     1      36.359 -22.355 -11.231  0.00  0.00    +0.164 C 
ATOM     31  C   UNL     1      38.549 -24.677 -12.956  0.00  0.00    +0.226 C 
ENDBRANCH  23  31
ENDBRANCH  22  23
ENDBRANCH  20  22
ENDBRANCH   3  19
TORSDOF 5
ENDMDL
MODEL 8
REMARK VINA RESULT:      -9.9      5.471      8.283
REMARK  Name = 24764443
REMARK  5 active torsions:
REMARK  status: ('A' for Active; 'I' for Inactive)
REMARK    1  A    between atoms: C_2  and  C_17
REMARK    2  A    between atoms: C_3  and  N_19
REMARK    3  A    between atoms: C_20  and  C_22
REMARK    4  A    between atoms: C_22  and  C_23
REMARK    5  A    between atoms: C_23  and  C_31
REMARK                            x       y       z     vdW  Elec       q    Type
REMARK                         _______ _______ _______ _____ _____    ______ ____
ROOT
ATOM      1 BR   UNL     1      35.685 -20.913 -19.346  0.00  0.00    -0.049 Br
ATOM      2  C   UNL     1      34.425 -22.611 -15.761  0.00  0.00    +0.068 C 
ATOM      3  C   UNL     1      33.113 -22.997 -16.039  0.00  0.00    +0.055 C 
ATOM      4  C   UNL     1      35.191 -21.991 -16.748  0.00  0.00    +0.012 C 
ATOM      5  C   UNL     1      32.568 -22.762 -17.301  0.00  0.00    +0.015 C 
ATOM      6  C   UNL     1      34.646 -21.754 -18.009  0.00  0.00    +0.035 C 
ATOM      7  C   UNL     1      33.335 -22.140 -18.286  0.00  0.00    +0.008 C 
ENDROOT
BRANCH   2  17
ATOM      8  O   UNL     1      35.175 -21.855 -13.729  0.00  0.00    -0.270 OA
ATOM      9  N   UNL     1      35.393 -24.152 -14.109  0.00  0.00    -0.276 N 
ATOM     10  C   UNL     1      37.365 -25.117 -12.993  0.00  0.00    +0.020 C 
ATOM     11  C   UNL     1      36.526 -26.049 -15.201  0.00  0.00    +0.020 C 
ATOM     12  C   UNL     1      37.217 -26.375 -13.866  0.00  0.00    +0.003 C 
ATOM     13  C   UNL     1      36.009 -24.423 -12.810  0.00  0.00    +0.094 C 
ATOM     14  C   UNL     1      35.191 -25.339 -14.950  0.00  0.00    +0.094 C 
ATOM     15  C   UNL     1      37.983 -25.464 -11.641  0.00  0.00    +0.002 C 
ATOM     16  C   UNL     1      36.320 -27.315 -16.028  0.00  0.00    +0.002 C 
ATOM     17  C   UNL     1      35.027 -22.845 -14.444  0.00  0.00    +0.250 C 
ENDBRANCH   2  17
BRANCH   3  19
ATOM     18  O   UNL     1      31.368 -21.818 -13.896  0.00  0.00    -0.275 OA
ATOM     19  N   UNL     1      32.325 -23.621 -15.066  0.00  0.00    -0.284 N 
ATOM     20  C   UNL     1      31.526 -23.020 -14.083  0.00  0.00    +0.227 C 
ATOM     21  H   UNL     1      32.334 -24.606 -15.072  0.00  0.00    +0.155 HD
BRANCH  20  22
ATOM     22  C   UNL     1      30.832 -24.068 -13.224  0.00  0.00    +0.095 C 
BRANCH  22  23
ATOM     23  C   UNL     1      29.346 -24.185 -13.532  0.00  0.00    +0.095 C 
BRANCH  23  31
ATOM     24  O   UNL     1      26.358 -21.549 -16.632  0.00  0.00    -0.350 OA
ATOM     25  O   UNL     1      29.606 -25.154 -15.680  0.00  0.00    -0.275 OA
ATOM     26  N   UNL     1      28.406 -23.170 -15.575  0.00  0.00    -0.274 N 
ATOM     27  C   UNL     1      27.944 -21.983 -14.848  0.00  0.00    +0.125 C 
ATOM     28  C   UNL     1      28.152 -23.129 -17.016  0.00  0.00    +0.125 C 
ATOM     29  C   UNL     1      26.499 -21.668 -15.214  0.00  0.00    +0.164 C 
ATOM     30  C   UNL     1      26.698 -22.773 -17.288  0.00  0.00    +0.164 C 
ATOM     31  C   UNL     1      29.137 -24.221 -15.025  0.00  0.00    +0.226 C 
ENDBRANCH  23  31
ENDBRANCH  22  23
ENDBRANCH  20  22
ENDBRANCH   3  19
TORSDOF 5
ENDMDL
MODEL 9
REMARK VINA RESULT:      -9.5      4.389     10.769
REMARK  Name = 24764443
REMARK  5 active torsions:
REMARK  status: ('A' for Active; 'I' for Inactive)
REMARK    1  A    between atoms: C_2  and  C_17
REMARK    2  A    between atoms: C_3  and  N_19
REMARK    3  A    between atoms: C_20  and  C_22
REMARK    4  A    between atoms: C_22  and  C_23
REMARK    5  A    between atoms: C_23  and  C_31
REMARK                            x       y       z     vdW  Elec       q    Type
REMARK                         _______ _______ _______ _____ _____    ______ ____
ROOT
ATOM      1 BR   UNL     1      31.999 -12.285 -26.893  0.00  0.00    -0.049 Br
ATOM      2  C   UNL     1      33.018 -13.749 -23.132  0.00  0.00    +0.068 C 
ATOM      3  C   UNL     1      33.647 -14.959 -23.424  0.00  0.00    +0.055 C 
ATOM      4  C   UNL     1      32.528 -12.951 -24.166  0.00  0.00    +0.012 C 
ATOM      5  C   UNL     1      33.785 -15.373 -24.749  0.00  0.00    +0.015 C 
ATOM      6  C   UNL     1      32.664 -13.365 -25.491  0.00  0.00    +0.035 C 
ATOM      7  C   UNL     1      33.293 -14.575 -25.783  0.00  0.00    +0.008 C 
ENDROOT
BRANCH   2  17
ATOM      8  O   UNL     1      32.820 -14.158 -20.884  0.00  0.00    -0.270 OA
ATOM      9  N   UNL     1      32.755 -11.910 -21.522  0.00  0.00    -0.276 N 
ATOM     10  C   UNL     1      31.317 -10.547 -20.058  0.00  0.00    +0.020 C 
ATOM     11  C   UNL     1      31.569  -9.996 -22.525  0.00  0.00    +0.020 C 
ATOM     12  C   UNL     1      31.342  -9.428 -21.113  0.00  0.00    +0.003 C 
ATOM     13  C   UNL     1      32.582 -11.411 -20.158  0.00  0.00    +0.094 C 
ATOM     14  C   UNL     1      32.831 -10.865 -22.551  0.00  0.00    +0.094 C 
ATOM     15  C   UNL     1      31.167  -9.967 -18.654  0.00  0.00    +0.002 C 
ATOM     16  C   UNL     1      31.662  -8.872 -23.553  0.00  0.00    +0.002 C 
ATOM     17  C   UNL     1      32.859 -13.285 -21.748  0.00  0.00    +0.250 C 
ENDBRANCH   2  17
BRANCH   3  19
ATOM     18  O   UNL     1      34.152 -17.920 -23.372  0.00  0.00    -0.275 OA
ATOM     19  N   UNL     1      34.148 -15.775 -22.404  0.00  0.00    -0.284 N 
ATOM     20  C   UNL     1      34.364 -17.160 -22.432  0.00  0.00    +0.227 C 
ATOM     21  H   UNL     1      34.376 -15.320 -21.562  0.00  0.00    +0.155 HD
BRANCH  20  22
ATOM     22  C   UNL     1      34.923 -17.654 -21.105  0.00  0.00    +0.095 C 
BRANCH  22  23
ATOM     23  C   UNL     1      34.818 -19.165 -20.953  0.00  0.00    +0.095 C 
BRANCH  23  31
ATOM     24  O   UNL     1      34.313 -22.649 -17.334  0.00  0.00    -0.350 OA
ATOM     25  O   UNL     1      36.745 -18.977 -19.584  0.00  0.00    -0.275 OA
ATOM     26  N   UNL     1      35.358 -20.794 -19.181  0.00  0.00    -0.274 N 
ATOM     27  C   UNL     1      34.234 -21.662 -19.549  0.00  0.00    +0.125 C 
ATOM     28  C   UNL     1      36.186 -21.313 -18.092  0.00  0.00    +0.125 C 
ATOM     29  C   UNL     1      33.446 -22.062 -18.308  0.00  0.00    +0.164 C 
ATOM     30  C   UNL     1      35.315 -21.721 -16.912  0.00  0.00    +0.164 C 
ATOM     31  C   UNL     1      35.732 -19.630 -19.848  0.00  0.00    +0.226 C 
ENDBRANCH  23  31
ENDBRANCH  22  23
ENDBRANCH  20  22
ENDBRANCH   3  19
TORSDOF 5
ENDMDL
