MODEL 1
REMARK VINA RESULT:     -12.1      0.000      0.000
REMARK  Name = 24864079
REMARK  4 active torsions:
REMARK  status: ('A' for Active; 'I' for Inactive)
REMARK    1  A    between atoms: C_3  and  N_19
REMARK    2  A    between atoms: C_4  and  C_9
REMARK    3  A    between atoms: N_8  and  C_12
REMARK    4  A    between atoms: C_20  and  C_24
REMARK                            x       y       z     vdW  Elec       q    Type
REMARK                         _______ _______ _______ _____ _____    ______ ____
ROOT
ATOM      1  N   UNL     1      38.001 -22.727 -15.760  0.00  0.00    -0.230 N 
ATOM      2  N   UNL     1      38.116 -23.660 -14.801  0.00  0.00    -0.178 NA
ATOM      3  C   UNL     1      35.951 -22.976 -15.047  0.00  0.00    +0.091 C 
ATOM      4  C   UNL     1      36.725 -22.283 -15.948  0.00  0.00    +0.134 C 
ATOM      5  C   UNL     1      36.860 -23.809 -14.370  0.00  0.00    +0.134 C 
ATOM      6  H   UNL     1      38.768 -22.393 -16.280  0.00  0.00    +0.175 HD
ENDROOT
BRANCH   4   9
ATOM      7  O   UNL     1      36.799 -20.126 -16.814  0.00  0.00    -0.268 OA
ATOM      8  N   UNL     1      35.490 -21.709 -17.949  0.00  0.00    -0.279 N 
ATOM      9  C   UNL     1      36.351 -21.294 -16.906  0.00  0.00    +0.266 C 
ATOM     10  H   UNL     1      35.208 -22.652 -17.911  0.00  0.00    +0.155 HD
BRANCH   8  12
ATOM     11  F   UNL     1      33.474 -18.805 -22.222  0.00  0.00    -0.204 F 
ATOM     12  C   UNL     1      34.975 -20.967 -19.040  0.00  0.00    +0.051 C 
ATOM     13  C   UNL     1      35.840 -20.251 -19.867  0.00  0.00    +0.017 C 
ATOM     14  C   UNL     1      33.602 -20.954 -19.288  0.00  0.00    +0.017 C 
ATOM     15  C   UNL     1      35.333 -19.521 -20.941  0.00  0.00    +0.031 C 
ATOM     16  C   UNL     1      33.096 -20.224 -20.363  0.00  0.00    +0.031 C 
ATOM     17  C   UNL     1      33.960 -19.506 -21.190  0.00  0.00    +0.140 C 
ENDBRANCH   8  12
ENDBRANCH   4   9
BRANCH   3  19
ATOM     18  O   UNL     1      33.683 -23.860 -16.796  0.00  0.00    -0.270 OA
ATOM     19  N   UNL     1      34.552 -22.862 -14.859  0.00  0.00    -0.278 N 
ATOM     20  C   UNL     1      33.521 -23.291 -15.704  0.00  0.00    +0.254 C 
ATOM     21  H   UNL     1      34.266 -22.424 -14.024  0.00  0.00    +0.155 HD
BRANCH  20  24
ATOM     22  F   UNL     1      32.702 -23.766 -13.064  0.00  0.00    -0.204 F 
ATOM     23  F   UNL     1      31.564 -22.234 -17.413  0.00  0.00    -0.204 F 
ATOM     24  C   UNL     1      32.168 -23.008 -15.250  0.00  0.00    +0.108 C 
ATOM     25  C   UNL     1      31.809 -23.262 -13.926  0.00  0.00    +0.147 C 
ATOM     26  C   UNL     1      31.230 -22.482 -16.139  0.00  0.00    +0.147 C 
ATOM     27  C   UNL     1      30.511 -22.990 -13.492  0.00  0.00    +0.030 C 
ATOM     28  C   UNL     1      29.933 -22.211 -15.704  0.00  0.00    +0.030 C 
ATOM     29  C   UNL     1      29.573 -22.465 -14.381  0.00  0.00    +0.005 C 
ENDBRANCH  20  24
ENDBRANCH   3  19
TORSDOF 4
ENDMDL
MODEL 2
REMARK VINA RESULT:     -11.8      2.561      7.088
REMARK  Name = 24864079
REMARK  4 active torsions:
REMARK  status: ('A' for Active; 'I' for Inactive)
REMARK    1  A    between atoms: C_3  and  N_19
REMARK    2  A    between atoms: C_4  and  C_9
REMARK    3  A    between atoms: N_8  and  C_12
REMARK    4  A    between atoms: C_20  and  C_24
REMARK                            x       y       z     vdW  Elec       q    Type
REMARK                         _______ _______ _______ _____ _____    ______ ____
ROOT
ATOM      1  N   UNL     1      31.554 -23.717 -14.835  0.00  0.00    -0.230 N 
ATOM      2  N   UNL     1      30.346 -23.530 -15.392  0.00  0.00    -0.178 NA
ATOM      3  C   UNL     1      31.985 -22.454 -16.565  0.00  0.00    +0.091 C 
ATOM      4  C   UNL     1      32.571 -23.094 -15.499  0.00  0.00    +0.134 C 
ATOM      5  C   UNL     1      30.616 -22.758 -16.449  0.00  0.00    +0.134 C 
ATOM      6  H   UNL     1      31.694 -24.255 -14.022  0.00  0.00    +0.175 HD
ENDROOT
BRANCH   4   9
ATOM      7  O   UNL     1      34.634 -22.098 -15.099  0.00  0.00    -0.268 OA
ATOM      8  N   UNL     1      34.442 -24.402 -14.696  0.00  0.00    -0.279 N 
ATOM      9  C   UNL     1      33.940 -23.143 -15.100  0.00  0.00    +0.266 C 
ATOM     10  H   UNL     1      33.798 -25.146 -14.741  0.00  0.00    +0.155 HD
BRANCH   8  12
ATOM     11  F   UNL     1      39.505 -25.762 -12.887  0.00  0.00    -0.204 F 
ATOM     12  C   UNL     1      35.735 -24.750 -14.234  0.00  0.00    +0.051 C 
ATOM     13  C   UNL     1      36.414 -25.826 -14.804  0.00  0.00    +0.017 C 
ATOM     14  C   UNL     1      36.330 -24.014 -13.208  0.00  0.00    +0.017 C 
ATOM     15  C   UNL     1      37.687 -26.168 -14.349  0.00  0.00    +0.031 C 
ATOM     16  C   UNL     1      37.603 -24.357 -12.754  0.00  0.00    +0.031 C 
ATOM     17  C   UNL     1      38.282 -25.434 -13.323  0.00  0.00    +0.140 C 
ENDBRANCH   8  12
ENDBRANCH   4   9
BRANCH   3  19
ATOM     18  O   UNL     1      33.425 -23.278 -19.061  0.00  0.00    -0.270 OA
ATOM     19  N   UNL     1      32.632 -21.668 -17.550  0.00  0.00    -0.278 N 
ATOM     20  C   UNL     1      33.296 -22.095 -18.708  0.00  0.00    +0.254 C 
ATOM     21  H   UNL     1      32.613 -20.695 -17.402  0.00  0.00    +0.155 HD
BRANCH  20  24
ATOM     22  F   UNL     1      31.767 -20.480 -20.417  0.00  0.00    -0.204 F 
ATOM     23  F   UNL     1      36.048 -21.558 -18.666  0.00  0.00    -0.204 F 
ATOM     24  C   UNL     1      33.892 -21.046 -19.520  0.00  0.00    +0.108 C 
ATOM     25  C   UNL     1      33.089 -20.269 -20.356  0.00  0.00    +0.147 C 
ATOM     26  C   UNL     1      35.267 -20.817 -19.465  0.00  0.00    +0.147 C 
ATOM     27  C   UNL     1      33.661 -19.264 -21.135  0.00  0.00    +0.030 C 
ATOM     28  C   UNL     1      35.839 -19.812 -20.245  0.00  0.00    +0.030 C 
ATOM     29  C   UNL     1      35.036 -19.035 -21.080  0.00  0.00    +0.005 C 
ENDBRANCH  20  24
ENDBRANCH   3  19
TORSDOF 4
ENDMDL
MODEL 3
REMARK VINA RESULT:     -11.6      1.473      2.373
REMARK  Name = 24864079
REMARK  4 active torsions:
REMARK  status: ('A' for Active; 'I' for Inactive)
REMARK    1  A    between atoms: C_3  and  N_19
REMARK    2  A    between atoms: C_4  and  C_9
REMARK    3  A    between atoms: N_8  and  C_12
REMARK    4  A    between atoms: C_20  and  C_24
REMARK                            x       y       z     vdW  Elec       q    Type
REMARK                         _______ _______ _______ _____ _____    ______ ____
ROOT
ATOM      1  N   UNL     1      37.214 -23.454 -14.848  0.00  0.00    -0.230 N 
ATOM      2  N   UNL     1      37.176 -24.452 -13.950  0.00  0.00    -0.178 NA
ATOM      3  C   UNL     1      35.083 -23.905 -14.682  0.00  0.00    +0.091 C 
ATOM      4  C   UNL     1      35.986 -23.088 -15.318  0.00  0.00    +0.134 C 
ATOM      5  C   UNL     1      35.872 -24.724 -13.854  0.00  0.00    +0.134 C 
ATOM      6  H   UNL     1      38.050 -23.025 -15.141  0.00  0.00    +0.175 HD
ENDROOT
BRANCH   4   9
ATOM      7  O   UNL     1      36.361 -20.954 -16.162  0.00  0.00    -0.268 OA
ATOM      8  N   UNL     1      34.887 -22.346 -17.343  0.00  0.00    -0.279 N 
ATOM      9  C   UNL     1      35.768 -22.053 -16.276  0.00  0.00    +0.266 C 
ATOM     10  H   UNL     1      34.484 -23.245 -17.321  0.00  0.00    +0.155 HD
BRANCH   8  12
ATOM     11  F   UNL     1      33.375 -19.178 -21.636  0.00  0.00    -0.204 F 
ATOM     12  C   UNL     1      34.501 -21.537 -18.440  0.00  0.00    +0.051 C 
ATOM     13  C   UNL     1      33.149 -21.369 -18.741  0.00  0.00    +0.017 C 
ATOM     14  C   UNL     1      35.473 -20.908 -19.218  0.00  0.00    +0.017 C 
ATOM     15  C   UNL     1      32.769 -20.573 -19.820  0.00  0.00    +0.031 C 
ATOM     16  C   UNL     1      35.092 -20.111 -20.298  0.00  0.00    +0.031 C 
ATOM     17  C   UNL     1      33.740 -19.944 -20.600  0.00  0.00    +0.140 C 
ENDBRANCH   8  12
ENDBRANCH   4   9
BRANCH   3  19
ATOM     18  O   UNL     1      32.916 -23.216 -12.728  0.00  0.00    -0.270 OA
ATOM     19  N   UNL     1      33.675 -23.907 -14.838  0.00  0.00    -0.278 N 
ATOM     20  C   UNL     1      32.693 -23.576 -13.895  0.00  0.00    +0.254 C 
ATOM     21  H   UNL     1      33.343 -24.176 -15.725  0.00  0.00    +0.155 HD
BRANCH  20  24
ATOM     22  F   UNL     1      31.702 -22.140 -16.091  0.00  0.00    -0.204 F 
ATOM     23  F   UNL     1      30.856 -25.268 -12.620  0.00  0.00    -0.204 F 
ATOM     24  C   UNL     1      31.314 -23.701 -14.344  0.00  0.00    +0.108 C 
ATOM     25  C   UNL     1      30.869 -22.965 -15.442  0.00  0.00    +0.147 C 
ATOM     26  C   UNL     1      30.438 -24.556 -13.676  0.00  0.00    +0.147 C 
ATOM     27  C   UNL     1      29.547 -23.084 -15.871  0.00  0.00    +0.030 C 
ATOM     28  C   UNL     1      29.117 -24.676 -14.105  0.00  0.00    +0.030 C 
ATOM     29  C   UNL     1      28.671 -23.940 -15.203  0.00  0.00    +0.005 C 
ENDBRANCH  20  24
ENDBRANCH   3  19
TORSDOF 4
ENDMDL
MODEL 4
REMARK VINA RESULT:     -11.5      1.211      2.175
REMARK  Name = 24864079
REMARK  4 active torsions:
REMARK  status: ('A' for Active; 'I' for Inactive)
REMARK    1  A    between atoms: C_3  and  N_19
REMARK    2  A    between atoms: C_4  and  C_9
REMARK    3  A    between atoms: N_8  and  C_12
REMARK    4  A    between atoms: C_20  and  C_24
REMARK                            x       y       z     vdW  Elec       q    Type
REMARK                         _______ _______ _______ _____ _____    ______ ____
ROOT
ATOM      1  N   UNL     1      37.536 -21.804 -16.785  0.00  0.00    -0.230 N 
ATOM      2  N   UNL     1      37.901 -22.184 -15.549  0.00  0.00    -0.178 NA
ATOM      3  C   UNL     1      35.629 -22.165 -15.783  0.00  0.00    +0.091 C 
ATOM      4  C   UNL     1      36.185 -21.775 -16.978  0.00  0.00    +0.134 C 
ATOM      5  C   UNL     1      36.731 -22.404 -14.942  0.00  0.00    +0.134 C 
ATOM      6  H   UNL     1      38.183 -21.567 -17.488  0.00  0.00    +0.175 HD
ENDROOT
BRANCH   4   9
ATOM      7  O   UNL     1      34.590 -22.072 -18.644  0.00  0.00    -0.268 OA
ATOM      8  N   UNL     1      36.058 -20.254 -18.856  0.00  0.00    -0.279 N 
ATOM      9  C   UNL     1      35.556 -21.404 -18.203  0.00  0.00    +0.266 C 
ATOM     10  H   UNL     1      36.819 -19.816 -18.409  0.00  0.00    +0.155 HD
BRANCH   8  12
ATOM     11  F   UNL     1      34.370 -17.850 -23.560  0.00  0.00    -0.204 F 
ATOM     12  C   UNL     1      35.627 -19.640 -20.057  0.00  0.00    +0.051 C 
ATOM     13  C   UNL     1      36.491 -18.802 -20.762  0.00  0.00    +0.017 C 
ATOM     14  C   UNL     1      34.338 -19.874 -20.536  0.00  0.00    +0.017 C 
ATOM     15  C   UNL     1      36.067 -18.198 -21.945  0.00  0.00    +0.031 C 
ATOM     16  C   UNL     1      33.913 -19.269 -21.719  0.00  0.00    +0.031 C 
ATOM     17  C   UNL     1      34.777 -18.431 -22.423  0.00  0.00    +0.140 C 
ENDBRANCH   8  12
ENDBRANCH   4   9
BRANCH   3  19
ATOM     18  O   UNL     1      33.865 -24.588 -15.760  0.00  0.00    -0.270 OA
ATOM     19  N   UNL     1      34.250 -22.291 -15.484  0.00  0.00    -0.278 N 
ATOM     20  C   UNL     1      33.460 -23.448 -15.485  0.00  0.00    +0.254 C 
ATOM     21  H   UNL     1      33.785 -21.456 -15.245  0.00  0.00    +0.155 HD
BRANCH  20  24
ATOM     22  F   UNL     1      31.643 -22.334 -17.309  0.00  0.00    -0.204 F 
ATOM     23  F   UNL     1      32.393 -24.170 -12.994  0.00  0.00    -0.204 F 
ATOM     24  C   UNL     1      32.055 -23.257 -15.160  0.00  0.00    +0.108 C 
ATOM     25  C   UNL     1      31.190 -22.699 -16.101  0.00  0.00    +0.147 C 
ATOM     26  C   UNL     1      31.572 -23.633 -13.906  0.00  0.00    +0.147 C 
ATOM     27  C   UNL     1      29.843 -22.516 -15.789  0.00  0.00    +0.030 C 
ATOM     28  C   UNL     1      30.225 -23.450 -13.593  0.00  0.00    +0.030 C 
ATOM     29  C   UNL     1      29.360 -22.891 -14.535  0.00  0.00    +0.005 C 
ENDBRANCH  20  24
ENDBRANCH   3  19
TORSDOF 4
ENDMDL
MODEL 5
REMARK VINA RESULT:     -11.0      2.302      5.877
REMARK  Name = 24864079
REMARK  4 active torsions:
REMARK  status: ('A' for Active; 'I' for Inactive)
REMARK    1  A    between atoms: C_3  and  N_19
REMARK    2  A    between atoms: C_4  and  C_9
REMARK    3  A    between atoms: N_8  and  C_12
REMARK    4  A    between atoms: C_20  and  C_24
REMARK                            x       y       z     vdW  Elec       q    Type
REMARK                         _______ _______ _______ _____ _____    ______ ____
ROOT
ATOM      1  N   UNL     1      34.867 -24.317 -13.480  0.00  0.00    -0.230 N 
ATOM      2  N   UNL     1      36.158 -24.481 -13.812  0.00  0.00    -0.178 NA
ATOM      3  C   UNL     1      35.066 -23.162 -15.323  0.00  0.00    +0.091 C 
ATOM      4  C   UNL     1      34.167 -23.535 -14.353  0.00  0.00    +0.134 C 
ATOM      5  C   UNL     1      36.274 -23.771 -14.938  0.00  0.00    +0.134 C 
ATOM      6  H   UNL     1      34.462 -24.724 -12.680  0.00  0.00    +0.175 HD
ENDROOT
BRANCH   4   9
ATOM      7  O   UNL     1      32.376 -22.601 -13.201  0.00  0.00    -0.268 OA
ATOM      8  N   UNL     1      31.930 -23.606 -15.274  0.00  0.00    -0.279 N 
ATOM      9  C   UNL     1      32.783 -23.217 -14.215  0.00  0.00    +0.266 C 
ATOM     10  H   UNL     1      32.370 -24.083 -16.015  0.00  0.00    +0.155 HD
BRANCH   8  12
ATOM     11  F   UNL     1      26.470 -22.836 -15.868  0.00  0.00    -0.204 F 
ATOM     12  C   UNL     1      30.536 -23.410 -15.426  0.00  0.00    +0.051 C 
ATOM     13  C   UNL     1      30.057 -22.247 -16.029  0.00  0.00    +0.017 C 
ATOM     14  C   UNL     1      29.641 -24.380 -14.972  0.00  0.00    +0.017 C 
ATOM     15  C   UNL     1      28.684 -22.054 -16.179  0.00  0.00    +0.031 C 
ATOM     16  C   UNL     1      28.268 -24.185 -15.121  0.00  0.00    +0.031 C 
ATOM     17  C   UNL     1      27.789 -23.022 -15.724  0.00  0.00    +0.140 C 
ENDBRANCH   8  12
ENDBRANCH   4   9
BRANCH   3  19
ATOM     18  O   UNL     1      33.413 -23.692 -17.767  0.00  0.00    -0.270 OA
ATOM     19  N   UNL     1      34.812 -22.344 -16.452  0.00  0.00    -0.278 N 
ATOM     20  C   UNL     1      34.030 -22.631 -17.578  0.00  0.00    +0.254 C 
ATOM     21  H   UNL     1      35.242 -21.458 -16.445  0.00  0.00    +0.155 HD
BRANCH  20  24
ATOM     22  F   UNL     1      31.611 -21.514 -18.454  0.00  0.00    -0.204 F 
ATOM     23  F   UNL     1      36.347 -21.621 -18.794  0.00  0.00    -0.204 F 
ATOM     24  C   UNL     1      33.980 -21.594 -18.597  0.00  0.00    +0.108 C 
ATOM     25  C   UNL     1      32.751 -21.070 -19.000  0.00  0.00    +0.147 C 
ATOM     26  C   UNL     1      35.161 -21.125 -19.173  0.00  0.00    +0.147 C 
ATOM     27  C   UNL     1      32.704 -20.077 -19.978  0.00  0.00    +0.030 C 
ATOM     28  C   UNL     1      35.113 -20.131 -20.151  0.00  0.00    +0.030 C 
ATOM     29  C   UNL     1      33.885 -19.607 -20.554  0.00  0.00    +0.005 C 
ENDBRANCH  20  24
ENDBRANCH   3  19
TORSDOF 4
ENDMDL
MODEL 6
REMARK VINA RESULT:     -11.0      2.533      5.297
REMARK  Name = 24864079
REMARK  4 active torsions:
REMARK  status: ('A' for Active; 'I' for Inactive)
REMARK    1  A    between atoms: C_3  and  N_19
REMARK    2  A    between atoms: C_4  and  C_9
REMARK    3  A    between atoms: N_8  and  C_12
REMARK    4  A    between atoms: C_20  and  C_24
REMARK                            x       y       z     vdW  Elec       q    Type
REMARK                         _______ _______ _______ _____ _____    ______ ____
ROOT
ATOM      1  N   UNL     1      31.879 -23.096 -15.475  0.00  0.00    -0.230 N 
ATOM      2  N   UNL     1      31.502 -23.845 -14.426  0.00  0.00    -0.178 NA
ATOM      3  C   UNL     1      33.756 -23.966 -14.774  0.00  0.00    +0.091 C 
ATOM      4  C   UNL     1      33.219 -23.133 -15.726  0.00  0.00    +0.134 C 
ATOM      5  C   UNL     1      32.653 -24.374 -14.001  0.00  0.00    +0.134 C 
ATOM      6  H   UNL     1      31.246 -22.568 -16.013  0.00  0.00    +0.175 HD
ENDROOT
BRANCH   4   9
ATOM      7  O   UNL     1      35.110 -22.361 -16.839  0.00  0.00    -0.268 OA
ATOM      8  N   UNL     1      33.016 -21.832 -17.758  0.00  0.00    -0.279 N 
ATOM      9  C   UNL     1      33.858 -22.423 -16.786  0.00  0.00    +0.266 C 
ATOM     10  H   UNL     1      32.051 -21.952 -17.605  0.00  0.00    +0.155 HD
BRANCH   8  12
ATOM     11  F   UNL     1      34.358 -18.949 -22.301  0.00  0.00    -0.204 F 
ATOM     12  C   UNL     1      33.359 -21.096 -18.918  0.00  0.00    +0.051 C 
ATOM     13  C   UNL     1      34.693 -21.000 -19.315  0.00  0.00    +0.017 C 
ATOM     14  C   UNL     1      32.362 -20.467 -19.664  0.00  0.00    +0.017 C 
ATOM     15  C   UNL     1      35.030 -20.275 -20.457  0.00  0.00    +0.031 C 
ATOM     16  C   UNL     1      32.700 -19.742 -20.807  0.00  0.00    +0.031 C 
ATOM     17  C   UNL     1      34.034 -19.645 -21.203  0.00  0.00    +0.140 C 
ENDBRANCH   8  12
ENDBRANCH   4   9
BRANCH   3  19
ATOM     18  O   UNL     1      35.944 -22.633 -13.219  0.00  0.00    -0.270 OA
ATOM     19  N   UNL     1      35.118 -24.323 -14.621  0.00  0.00    -0.278 N 
ATOM     20  C   UNL     1      36.113 -23.670 -13.881  0.00  0.00    +0.254 C 
ATOM     21  H   UNL     1      35.404 -25.136 -15.097  0.00  0.00    +0.155 HD
BRANCH  20  24
ATOM     22  F   UNL     1      38.056 -22.810 -15.711  0.00  0.00    -0.204 F 
ATOM     23  F   UNL     1      36.891 -25.749 -12.167  0.00  0.00    -0.204 F 
ATOM     24  C   UNL     1      37.439 -24.264 -13.938  0.00  0.00    +0.108 C 
ATOM     25  C   UNL     1      38.372 -23.801 -14.867  0.00  0.00    +0.147 C 
ATOM     26  C   UNL     1      37.779 -25.297 -13.064  0.00  0.00    +0.147 C 
ATOM     27  C   UNL     1      39.644 -24.372 -14.921  0.00  0.00    +0.030 C 
ATOM     28  C   UNL     1      39.050 -25.867 -13.118  0.00  0.00    +0.030 C 
ATOM     29  C   UNL     1      39.983 -25.404 -14.047  0.00  0.00    +0.005 C 
ENDBRANCH  20  24
ENDBRANCH   3  19
TORSDOF 4
ENDMDL
MODEL 7
REMARK VINA RESULT:     -11.0      2.581      4.967
REMARK  Name = 24864079
REMARK  4 active torsions:
REMARK  status: ('A' for Active; 'I' for Inactive)
REMARK    1  A    between atoms: C_3  and  N_19
REMARK    2  A    between atoms: C_4  and  C_9
REMARK    3  A    between atoms: N_8  and  C_12
REMARK    4  A    between atoms: C_20  and  C_24
REMARK                            x       y       z     vdW  Elec       q    Type
REMARK                         _______ _______ _______ _____ _____    ______ ____
ROOT
ATOM      1  N   UNL     1      29.954 -23.661 -14.968  0.00  0.00    -0.230 N 
ATOM      2  N   UNL     1      30.025 -24.449 -13.882  0.00  0.00    -0.178 NA
ATOM      3  C   UNL     1      32.102 -23.944 -14.687  0.00  0.00    +0.091 C 
ATOM      4  C   UNL     1      31.170 -23.329 -15.490  0.00  0.00    +0.134 C 
ATOM      5  C   UNL     1      31.339 -24.617 -13.715  0.00  0.00    +0.134 C 
ATOM      6  H   UNL     1      29.102 -23.351 -15.353  0.00  0.00    +0.175 HD
ENDROOT
BRANCH   4   9
ATOM      7  O   UNL     1      30.386 -21.867 -17.119  0.00  0.00    -0.268 OA
ATOM      8  N   UNL     1      32.662 -22.436 -17.174  0.00  0.00    -0.279 N 
ATOM      9  C   UNL     1      31.354 -22.506 -16.640  0.00  0.00    +0.266 C 
ATOM     10  H   UNL     1      33.335 -22.983 -16.708  0.00  0.00    +0.155 HD
BRANCH   8  12
ATOM     11  F   UNL     1      34.552 -19.533 -21.504  0.00  0.00    -0.204 F 
ATOM     12  C   UNL     1      33.145 -21.695 -18.280  0.00  0.00    +0.051 C 
ATOM     13  C   UNL     1      34.503 -21.718 -18.596  0.00  0.00    +0.017 C 
ATOM     14  C   UNL     1      32.261 -20.942 -19.054  0.00  0.00    +0.017 C 
ATOM     15  C   UNL     1      34.978 -20.988 -19.684  0.00  0.00    +0.031 C 
ATOM     16  C   UNL     1      32.737 -20.212 -20.143  0.00  0.00    +0.031 C 
ATOM     17  C   UNL     1      34.096 -20.234 -20.458  0.00  0.00    +0.140 C 
ENDBRANCH   8  12
ENDBRANCH   4   9
BRANCH   3  19
ATOM     18  O   UNL     1      34.229 -23.377 -12.653  0.00  0.00    -0.270 OA
ATOM     19  N   UNL     1      33.511 -23.898 -14.825  0.00  0.00    -0.278 N 
ATOM     20  C   UNL     1      34.474 -23.629 -13.844  0.00  0.00    +0.254 C 
ATOM     21  H   UNL     1      33.859 -24.079 -15.728  0.00  0.00    +0.155 HD
BRANCH  20  24
ATOM     22  F   UNL     1      36.294 -25.629 -13.101  0.00  0.00    -0.204 F 
ATOM     23  F   UNL     1      35.491 -21.620 -15.516  0.00  0.00    -0.204 F 
ATOM     24  C   UNL     1      35.857 -23.625 -14.297  0.00  0.00    +0.108 C 
ATOM     25  C   UNL     1      36.724 -24.643 -13.899  0.00  0.00    +0.147 C 
ATOM     26  C   UNL     1      36.316 -22.602 -15.128  0.00  0.00    +0.147 C 
ATOM     27  C   UNL     1      38.050 -24.638 -14.333  0.00  0.00    +0.030 C 
ATOM     28  C   UNL     1      37.641 -22.598 -15.561  0.00  0.00    +0.030 C 
ATOM     29  C   UNL     1      38.509 -23.616 -15.164  0.00  0.00    +0.005 C 
ENDBRANCH  20  24
ENDBRANCH   3  19
TORSDOF 4
ENDMDL
MODEL 8
REMARK VINA RESULT:     -11.0      7.738     11.340
REMARK  Name = 24864079
REMARK  4 active torsions:
REMARK  status: ('A' for Active; 'I' for Inactive)
REMARK    1  A    between atoms: C_3  and  N_19
REMARK    2  A    between atoms: C_4  and  C_9
REMARK    3  A    between atoms: N_8  and  C_12
REMARK    4  A    between atoms: C_20  and  C_24
REMARK                            x       y       z     vdW  Elec       q    Type
REMARK                         _______ _______ _______ _____ _____    ______ ____
ROOT
ATOM      1  N   UNL     1      33.668 -15.217 -25.314  0.00  0.00    -0.230 N 
ATOM      2  N   UNL     1      33.161 -14.393 -26.245  0.00  0.00    -0.178 NA
ATOM      3  C   UNL     1      32.788 -13.602 -24.135  0.00  0.00    +0.091 C 
ATOM      4  C   UNL     1      33.472 -14.790 -24.033  0.00  0.00    +0.134 C 
ATOM      5  C   UNL     1      32.626 -13.407 -25.519  0.00  0.00    +0.134 C 
ATOM      6  H   UNL     1      34.138 -16.054 -25.534  0.00  0.00    +0.175 HD
ENDROOT
BRANCH   4   9
ATOM      7  O   UNL     1      33.963 -14.912 -21.763  0.00  0.00    -0.268 OA
ATOM      8  N   UNL     1      34.267 -16.853 -23.047  0.00  0.00    -0.279 N 
ATOM      9  C   UNL     1      33.917 -15.493 -22.874  0.00  0.00    +0.266 C 
ATOM     10  H   UNL     1      34.188 -17.193 -23.968  0.00  0.00    +0.155 HD
BRANCH   8  12
ATOM     11  F   UNL     1      36.020 -20.547 -19.301  0.00  0.00    -0.204 F 
ATOM     12  C   UNL     1      34.715 -17.796 -22.090  0.00  0.00    +0.051 C 
ATOM     13  C   UNL     1      33.830 -18.747 -21.582  0.00  0.00    +0.017 C 
ATOM     14  C   UNL     1      36.041 -17.775 -21.657  0.00  0.00    +0.017 C 
ATOM     15  C   UNL     1      34.271 -19.676 -20.640  0.00  0.00    +0.031 C 
ATOM     16  C   UNL     1      36.481 -18.704 -20.715  0.00  0.00    +0.031 C 
ATOM     17  C   UNL     1      35.597 -19.655 -20.206  0.00  0.00    +0.140 C 
ENDBRANCH   8  12
ENDBRANCH   4   9
BRANCH   3  19
ATOM     18  O   UNL     1      33.356 -10.712 -23.575  0.00  0.00    -0.270 OA
ATOM     19  N   UNL     1      32.353 -12.773 -23.072  0.00  0.00    -0.278 N 
ATOM     20  C   UNL     1      32.643 -11.420 -22.847  0.00  0.00    +0.254 C 
ATOM     21  H   UNL     1      31.772 -13.202 -22.404  0.00  0.00    +0.155 HD
BRANCH  20  24
ATOM     22  F   UNL     1      32.658 -12.769 -20.387  0.00  0.00    -0.204 F 
ATOM     23  F   UNL     1      31.450  -8.882 -22.835  0.00  0.00    -0.204 F 
ATOM     24  C   UNL     1      32.069 -10.840 -21.642  0.00  0.00    +0.108 C 
ATOM     25  C   UNL     1      32.100 -11.551 -20.442  0.00  0.00    +0.147 C 
ATOM     26  C   UNL     1      31.486  -9.574 -21.688  0.00  0.00    +0.147 C 
ATOM     27  C   UNL     1      31.549 -10.995 -19.288  0.00  0.00    +0.030 C 
ATOM     28  C   UNL     1      30.935  -9.018 -20.533  0.00  0.00    +0.030 C 
ATOM     29  C   UNL     1      30.966  -9.728 -19.333  0.00  0.00    +0.005 C 
ENDBRANCH  20  24
ENDBRANCH   3  19
TORSDOF 4
ENDMDL
MODEL 9
REMARK VINA RESULT:     -11.0      7.737     11.431
REMARK  Name = 24864079
REMARK  4 active torsions:
REMARK  status: ('A' for Active; 'I' for Inactive)
REMARK    1  A    between atoms: C_3  and  N_19
REMARK    2  A    between atoms: C_4  and  C_9
REMARK    3  A    between atoms: N_8  and  C_12
REMARK    4  A    between atoms: C_20  and  C_24
REMARK                            x       y       z     vdW  Elec       q    Type
REMARK                         _______ _______ _______ _____ _____    ______ ____
ROOT
ATOM      1  N   UNL     1      33.665 -15.218 -25.314  0.00  0.00    -0.230 N 
ATOM      2  N   UNL     1      33.157 -14.393 -26.244  0.00  0.00    -0.178 NA
ATOM      3  C   UNL     1      32.788 -13.602 -24.134  0.00  0.00    +0.091 C 
ATOM      4  C   UNL     1      33.471 -14.791 -24.032  0.00  0.00    +0.134 C 
ATOM      5  C   UNL     1      32.624 -13.407 -25.517  0.00  0.00    +0.134 C 
ATOM      6  H   UNL     1      34.134 -16.054 -25.535  0.00  0.00    +0.175 HD
ENDROOT
BRANCH   4   9
ATOM      7  O   UNL     1      33.972 -14.912 -21.765  0.00  0.00    -0.268 OA
ATOM      8  N   UNL     1      34.257 -16.857 -23.047  0.00  0.00    -0.279 N 
ATOM      9  C   UNL     1      33.917 -15.495 -22.874  0.00  0.00    +0.266 C 
ATOM     10  H   UNL     1      34.171 -17.198 -23.966  0.00  0.00    +0.155 HD
BRANCH   8  12
ATOM     11  F   UNL     1      36.003 -20.555 -19.302  0.00  0.00    -0.204 F 
ATOM     12  C   UNL     1      34.703 -17.801 -22.090  0.00  0.00    +0.051 C 
ATOM     13  C   UNL     1      33.818 -18.752 -21.584  0.00  0.00    +0.017 C 
ATOM     14  C   UNL     1      36.029 -17.781 -21.655  0.00  0.00    +0.017 C 
ATOM     15  C   UNL     1      34.257 -19.682 -20.642  0.00  0.00    +0.031 C 
ATOM     16  C   UNL     1      36.467 -18.711 -20.713  0.00  0.00    +0.031 C 
ATOM     17  C   UNL     1      35.582 -19.662 -20.206  0.00  0.00    +0.140 C 
ENDBRANCH   8  12
ENDBRANCH   4   9
BRANCH   3  19
ATOM     18  O   UNL     1      33.356 -10.712 -23.575  0.00  0.00    -0.270 OA
ATOM     19  N   UNL     1      32.355 -12.773 -23.070  0.00  0.00    -0.278 N 
ATOM     20  C   UNL     1      32.644 -11.420 -22.845  0.00  0.00    +0.254 C 
ATOM     21  H   UNL     1      31.774 -13.203 -22.401  0.00  0.00    +0.155 HD
BRANCH  20  24
ATOM     22  F   UNL     1      31.460  -8.878 -22.828  0.00  0.00    -0.204 F 
ATOM     23  F   UNL     1      32.655 -12.773 -20.388  0.00  0.00    -0.204 F 
ATOM     24  C   UNL     1      32.072 -10.841 -21.640  0.00  0.00    +0.108 C 
ATOM     25  C   UNL     1      31.494  -9.572 -21.682  0.00  0.00    +0.147 C 
ATOM     26  C   UNL     1      32.102 -11.553 -20.441  0.00  0.00    +0.147 C 
ATOM     27  C   UNL     1      30.946  -9.016 -20.526  0.00  0.00    +0.030 C 
ATOM     28  C   UNL     1      31.554 -10.998 -19.285  0.00  0.00    +0.030 C 
ATOM     29  C   UNL     1      30.976  -9.729 -19.327  0.00  0.00    +0.005 C 
ENDBRANCH  20  24
ENDBRANCH   3  19
TORSDOF 4
ENDMDL
