MODEL 1
REMARK VINA RESULT:     -14.5      0.000      0.000
REMARK  Name = 4369496
REMARK  6 active torsions:
REMARK  status: ('A' for Active; 'I' for Inactive)
REMARK    1  A    between atoms: N_2  and  C_21
REMARK    2  A    between atoms: C_3  and  C_10
REMARK    3  A    between atoms: C_5  and  C_11
REMARK    4  A    between atoms: C_11  and  N_12
REMARK    5  A    between atoms: C_23  and  N_27
REMARK    6  A    between atoms: C_31  and  C_36
REMARK                            x       y       z     vdW  Elec       q    Type
REMARK                         _______ _______ _______ _____ _____    ______ ____
ROOT
ATOM      1  O   UNL     1      36.051 -17.691 -20.615  0.00  0.00    -0.270 OA
ATOM      2  N   UNL     1      33.873 -18.526 -20.856  0.00  0.00    -0.280 N 
ATOM      3  C   UNL     1      34.890 -17.579 -21.039  0.00  0.00    +0.249 C 
ATOM      4  H   UNL     1      33.001 -18.298 -21.250  0.00  0.00    +0.155 HD
ENDROOT
BRANCH   3  10
ATOM      5  C   UNL     1      33.793 -14.078 -23.143  0.00  0.00    -0.043 C 
ATOM      6  C   UNL     1      33.794 -14.069 -21.756  0.00  0.00    -0.006 C 
ATOM      7  C   UNL     1      34.147 -15.218 -23.852  0.00  0.00    -0.006 C 
ATOM      8  C   UNL     1      34.157 -15.223 -21.062  0.00  0.00    +0.004 C 
ATOM      9  C   UNL     1      34.509 -16.372 -23.157  0.00  0.00    +0.004 C 
ATOM     10  C   UNL     1      34.514 -16.375 -21.763  0.00  0.00    +0.054 C 
BRANCH   5  11
ATOM     11  C   UNL     1      33.403 -12.832 -23.894  0.00  0.00    -0.050 C 
BRANCH  11  12
ATOM     12  N   UNL     1      33.054 -11.739 -22.988  0.00  0.00    +0.387 N 
ATOM     13  N   UNL     1      31.450  -9.470 -22.186  0.00  0.00    +0.383 N 
ATOM     14  C   UNL     1      31.696 -11.915 -22.459  0.00  0.00    -0.100 C 
ATOM     15  C   UNL     1      33.175 -10.442 -23.665  0.00  0.00    -0.100 C 
ATOM     16  C   UNL     1      31.328 -10.768 -21.511  0.00  0.00    -0.101 C 
ATOM     17  C   UNL     1      32.808  -9.295 -22.718  0.00  0.00    -0.101 C 
ATOM     18  C   UNL     1      31.102  -8.378 -21.280  0.00  0.00    -0.101 C 
ATOM     19  H   UNL     1      33.708 -11.756 -22.207  0.00  0.00    -0.079 HD
ATOM     20  H   UNL     1      30.794  -9.452 -22.968  0.00  0.00    -0.080 HD
ENDBRANCH  11  12
ENDBRANCH   5  11
ENDBRANCH   3  10
BRANCH   2  21
ATOM     21  C   UNL     1      33.935 -19.768 -20.178  0.00  0.00    +0.052 C 
ATOM     22  C   UNL     1      32.809 -20.240 -19.525  0.00  0.00    +0.030 C 
ATOM     23  C   UNL     1      32.872 -21.462 -18.855  0.00  0.00    +0.059 C 
ATOM     24  C   UNL     1      35.121 -20.482 -20.183  0.00  0.00    +0.015 C 
ATOM     25  C   UNL     1      34.059 -22.194 -18.851  0.00  0.00    +0.015 C 
ATOM     26  C   UNL     1      35.183 -21.705 -19.514  0.00  0.00    +0.003 C 
BRANCH  23  27
ATOM     27  N   UNL     1      31.733 -21.958 -18.186  0.00  0.00    -0.247 N 
ATOM     28  N   UNL     1      32.637 -22.593 -16.115  0.00  0.00    -0.337 NA
ATOM     29  N   UNL     1      30.292 -22.888 -16.585  0.00  0.00    -0.170 NA
ATOM     30  C   UNL     1      31.546 -22.506 -16.902  0.00  0.00    +0.149 C 
ATOM     31  C   UNL     1      32.420 -23.122 -14.893  0.00  0.00    +0.147 C 
ATOM     32  C   UNL     1      31.185 -23.549 -14.451  0.00  0.00    +0.055 C 
ATOM     33  C   UNL     1      30.147 -23.407 -15.348  0.00  0.00    +0.114 C 
ATOM     34  H   UNL     1      30.909 -21.914 -18.722  0.00  0.00    +0.165 HD
BRANCH  31  36
ATOM     35  N   UNL     1      34.566 -23.884 -11.942  0.00  0.00    -0.242 NA
ATOM     36  C   UNL     1      33.588 -23.215 -14.050  0.00  0.00    +0.050 C 
ATOM     37  C   UNL     1      34.826 -22.754 -14.485  0.00  0.00    +0.006 C 
ATOM     38  C   UNL     1      33.512 -23.767 -12.781  0.00  0.00    +0.101 C 
ATOM     39  C   UNL     1      35.933 -22.858 -13.650  0.00  0.00    +0.021 C 
ATOM     40  C   UNL     1      35.751 -23.426 -12.400  0.00  0.00    +0.099 C 
ENDBRANCH  31  36
ENDBRANCH  23  27
ENDBRANCH   2  21
TORSDOF 6
ENDMDL
MODEL 2
REMARK VINA RESULT:     -14.1      2.302      5.499
REMARK  Name = 4369496
REMARK  6 active torsions:
REMARK  status: ('A' for Active; 'I' for Inactive)
REMARK    1  A    between atoms: N_2  and  C_21
REMARK    2  A    between atoms: C_3  and  C_10
REMARK    3  A    between atoms: C_5  and  C_11
REMARK    4  A    between atoms: C_11  and  N_12
REMARK    5  A    between atoms: C_23  and  N_27
REMARK    6  A    between atoms: C_31  and  C_36
REMARK                            x       y       z     vdW  Elec       q    Type
REMARK                         _______ _______ _______ _____ _____    ______ ____
ROOT
ATOM      1  O   UNL     1      33.747 -23.037 -17.688  0.00  0.00    -0.270 OA
ATOM      2  N   UNL     1      31.786 -21.762 -17.505  0.00  0.00    -0.280 N 
ATOM      3  C   UNL     1      33.025 -22.100 -18.067  0.00  0.00    +0.249 C 
ATOM      4  H   UNL     1      31.329 -20.992 -17.913  0.00  0.00    +0.155 HD
ENDROOT
BRANCH   3  10
ATOM      5  C   UNL     1      34.354 -19.632 -21.234  0.00  0.00    -0.043 C 
ATOM      6  C   UNL     1      35.279 -20.361 -20.502  0.00  0.00    -0.006 C 
ATOM      7  C   UNL     1      32.998 -19.700 -20.944  0.00  0.00    -0.006 C 
ATOM      8  C   UNL     1      34.841 -21.175 -19.458  0.00  0.00    +0.004 C 
ATOM      9  C   UNL     1      32.560 -20.515 -19.900  0.00  0.00    +0.004 C 
ATOM     10  C   UNL     1      33.482 -21.253 -19.156  0.00  0.00    +0.054 C 
BRANCH   5  11
ATOM     11  C   UNL     1      34.826 -18.753 -22.362  0.00  0.00    -0.050 C 
BRANCH  11  12
ATOM     12  N   UNL     1      34.188 -17.438 -22.331  0.00  0.00    +0.387 N 
ATOM     13  N   UNL     1      34.216 -14.556 -22.555  0.00  0.00    +0.383 N 
ATOM     14  C   UNL     1      34.295 -16.777 -23.637  0.00  0.00    -0.100 C 
ATOM     15  C   UNL     1      34.777 -16.598 -21.282  0.00  0.00    -0.100 C 
ATOM     16  C   UNL     1      33.628 -15.397 -23.605  0.00  0.00    -0.101 C 
ATOM     17  C   UNL     1      34.111 -15.218 -21.248  0.00  0.00    -0.101 C 
ATOM     18  C   UNL     1      33.577 -13.242 -22.523  0.00  0.00    -0.101 C 
ATOM     19  H   UNL     1      33.200 -17.572 -22.119  0.00  0.00    -0.079 HD
ATOM     20  H   UNL     1      35.205 -14.420 -22.768  0.00  0.00    -0.080 HD
ENDBRANCH  11  12
ENDBRANCH   5  11
ENDBRANCH   3  10
BRANCH   2  21
ATOM     21  C   UNL     1      31.106 -22.383 -16.429  0.00  0.00    +0.052 C 
ATOM     22  C   UNL     1      31.829 -22.809 -15.328  0.00  0.00    +0.030 C 
ATOM     23  C   UNL     1      31.159 -23.422 -14.269  0.00  0.00    +0.059 C 
ATOM     24  C   UNL     1      29.734 -22.550 -16.504  0.00  0.00    +0.015 C 
ATOM     25  C   UNL     1      29.776 -23.598 -14.327  0.00  0.00    +0.015 C 
ATOM     26  C   UNL     1      29.064 -23.163 -15.444  0.00  0.00    +0.003 C 
BRANCH  23  27
ATOM     27  N   UNL     1      31.879 -23.861 -13.138  0.00  0.00    -0.247 N 
ATOM     28  N   UNL     1      34.090 -23.392 -13.770  0.00  0.00    -0.337 NA
ATOM     29  N   UNL     1      33.598 -24.385 -11.630  0.00  0.00    -0.170 NA
ATOM     30  C   UNL     1      33.254 -23.880 -12.832  0.00  0.00    +0.149 C 
ATOM     31  C   UNL     1      35.399 -23.426 -13.443  0.00  0.00    +0.147 C 
ATOM     32  C   UNL     1      35.877 -23.916 -12.245  0.00  0.00    +0.055 C 
ATOM     33  C   UNL     1      34.922 -24.388 -11.369  0.00  0.00    +0.114 C 
ATOM     34  H   UNL     1      31.309 -24.226 -12.424  0.00  0.00    +0.165 HD
BRANCH  31  36
ATOM     35  N   UNL     1      38.460 -22.970 -15.519  0.00  0.00    -0.242 NA
ATOM     36  C   UNL     1      36.295 -22.902 -14.446  0.00  0.00    +0.050 C 
ATOM     37  C   UNL     1      35.902 -21.867 -15.288  0.00  0.00    +0.006 C 
ATOM     38  C   UNL     1      37.573 -23.414 -14.601  0.00  0.00    +0.101 C 
ATOM     39  C   UNL     1      36.788 -21.383 -16.245  0.00  0.00    +0.021 C 
ATOM     40  C   UNL     1      38.043 -21.964 -16.319  0.00  0.00    +0.099 C 
ENDBRANCH  31  36
ENDBRANCH  23  27
ENDBRANCH   2  21
TORSDOF 6
ENDMDL
MODEL 3
REMARK VINA RESULT:     -12.9      2.139     12.932
REMARK  Name = 4369496
REMARK  6 active torsions:
REMARK  status: ('A' for Active; 'I' for Inactive)
REMARK    1  A    between atoms: N_2  and  C_21
REMARK    2  A    between atoms: C_3  and  C_10
REMARK    3  A    between atoms: C_5  and  C_11
REMARK    4  A    between atoms: C_11  and  N_12
REMARK    5  A    between atoms: C_23  and  N_27
REMARK    6  A    between atoms: C_31  and  C_36
REMARK                            x       y       z     vdW  Elec       q    Type
REMARK                         _______ _______ _______ _____ _____    ______ ____
ROOT
ATOM      1  O   UNL     1      34.563 -16.415 -23.609  0.00  0.00    -0.270 OA
ATOM      2  N   UNL     1      33.884 -15.422 -21.595  0.00  0.00    -0.280 N 
ATOM      3  C   UNL     1      34.416 -16.457 -22.377  0.00  0.00    +0.249 C 
ATOM      4  H   UNL     1      33.829 -15.602 -20.629  0.00  0.00    +0.155 HD
ENDROOT
BRANCH   3  10
ATOM      5  C   UNL     1      35.501 -19.973 -20.292  0.00  0.00    -0.043 C 
ATOM      6  C   UNL     1      34.174 -19.768 -20.641  0.00  0.00    -0.006 C 
ATOM      7  C   UNL     1      36.478 -19.042 -20.616  0.00  0.00    -0.006 C 
ATOM      8  C   UNL     1      33.816 -18.609 -21.330  0.00  0.00    +0.004 C 
ATOM      9  C   UNL     1      36.120 -17.883 -21.305  0.00  0.00    +0.004 C 
ATOM     10  C   UNL     1      34.789 -17.666 -21.661  0.00  0.00    +0.054 C 
BRANCH   5  11
ATOM     11  C   UNL     1      35.888 -21.225 -19.549  0.00  0.00    -0.050 C 
BRANCH  11  12
ATOM     12  N   UNL     1      35.166 -21.353 -18.285  0.00  0.00    +0.387 N 
ATOM     13  N   UNL     1      34.272 -22.832 -15.967  0.00  0.00    +0.383 N 
ATOM     14  C   UNL     1      36.087 -21.683 -17.191  0.00  0.00    -0.100 C 
ATOM     15  C   UNL     1      34.109 -22.365 -18.389  0.00  0.00    -0.100 C 
ATOM     16  C   UNL     1      35.331 -21.820 -15.864  0.00  0.00    -0.101 C 
ATOM     17  C   UNL     1      33.352 -22.502 -17.063  0.00  0.00    -0.101 C 
ATOM     18  C   UNL     1      33.550 -22.958 -14.703  0.00  0.00    -0.101 C 
ATOM     19  H   UNL     1      34.732 -20.454 -18.078  0.00  0.00    -0.079 HD
ATOM     20  H   UNL     1      34.707 -23.732 -16.173  0.00  0.00    -0.080 HD
ENDBRANCH  11  12
ENDBRANCH   5  11
ENDBRANCH   3  10
BRANCH   2  21
ATOM     21  C   UNL     1      33.415 -14.152 -22.013  0.00  0.00    +0.052 C 
ATOM     22  C   UNL     1      32.851 -13.299 -21.080  0.00  0.00    +0.030 C 
ATOM     23  C   UNL     1      32.388 -12.049 -21.492  0.00  0.00    +0.059 C 
ATOM     24  C   UNL     1      33.533 -13.794 -23.345  0.00  0.00    +0.015 C 
ATOM     25  C   UNL     1      32.498 -11.672 -22.830  0.00  0.00    +0.015 C 
ATOM     26  C   UNL     1      33.070 -12.543 -23.757  0.00  0.00    +0.003 C 
BRANCH  23  27
ATOM     27  N   UNL     1      31.811 -11.167 -20.555  0.00  0.00    -0.247 N 
ATOM     28  N   UNL     1      32.121  -9.090 -21.601  0.00  0.00    -0.337 NA
ATOM     29  N   UNL     1      31.039  -9.245 -19.453  0.00  0.00    -0.170 NA
ATOM     30  C   UNL     1      31.650  -9.768 -20.536  0.00  0.00    +0.149 C 
ATOM     31  C   UNL     1      31.949  -7.752 -21.549  0.00  0.00    +0.147 C 
ATOM     32  C   UNL     1      31.340  -7.098 -20.498  0.00  0.00    +0.055 C 
ATOM     33  C   UNL     1      30.901  -7.902 -19.468  0.00  0.00    +0.114 C 
ATOM     34  H   UNL     1      31.451 -11.618 -19.757  0.00  0.00    +0.165 HD
BRANCH  31  36
ATOM     35  N   UNL     1      32.202  -6.393 -25.010  0.00  0.00    -0.242 NA
ATOM     36  C   UNL     1      32.452  -7.026 -22.690  0.00  0.00    +0.050 C 
ATOM     37  C   UNL     1      33.622  -6.278 -22.606  0.00  0.00    +0.006 C 
ATOM     38  C   UNL     1      31.786  -7.050 -23.905  0.00  0.00    +0.101 C 
ATOM     39  C   UNL     1      34.082  -5.588 -23.722  0.00  0.00    +0.021 C 
ATOM     40  C   UNL     1      33.342  -5.677 -24.890  0.00  0.00    +0.099 C 
ENDBRANCH  31  36
ENDBRANCH  23  27
ENDBRANCH   2  21
TORSDOF 6
ENDMDL
MODEL 4
REMARK VINA RESULT:     -12.8      1.811      2.569
REMARK  Name = 4369496
REMARK  6 active torsions:
REMARK  status: ('A' for Active; 'I' for Inactive)
REMARK    1  A    between atoms: N_2  and  C_21
REMARK    2  A    between atoms: C_3  and  C_10
REMARK    3  A    between atoms: C_5  and  C_11
REMARK    4  A    between atoms: C_11  and  N_12
REMARK    5  A    between atoms: C_23  and  N_27
REMARK    6  A    between atoms: C_31  and  C_36
REMARK                            x       y       z     vdW  Elec       q    Type
REMARK                         _______ _______ _______ _____ _____    ______ ____
ROOT
ATOM      1  O   UNL     1      33.949 -16.939 -24.123  0.00  0.00    -0.270 OA
ATOM      2  N   UNL     1      34.309 -16.459 -21.855  0.00  0.00    -0.280 N 
ATOM      3  C   UNL     1      33.980 -16.134 -23.178  0.00  0.00    +0.249 C 
ATOM      4  H   UNL     1      34.292 -15.712 -21.215  0.00  0.00    +0.155 HD
ENDROOT
BRANCH   3  10
ATOM      5  C   UNL     1      33.116 -12.060 -23.917  0.00  0.00    -0.043 C 
ATOM      6  C   UNL     1      33.617 -12.439 -22.680  0.00  0.00    -0.006 C 
ATOM      7  C   UNL     1      32.894 -12.997 -24.917  0.00  0.00    -0.006 C 
ATOM      8  C   UNL     1      33.903 -13.782 -22.437  0.00  0.00    +0.004 C 
ATOM      9  C   UNL     1      33.180 -14.341 -24.673  0.00  0.00    +0.004 C 
ATOM     10  C   UNL     1      33.684 -14.734 -23.433  0.00  0.00    +0.054 C 
BRANCH   5  11
ATOM     11  C   UNL     1      32.808 -10.610 -24.181  0.00  0.00    -0.050 C 
BRANCH  11  12
ATOM     12  N   UNL     1      32.674  -9.848 -22.941  0.00  0.00    +0.387 N 
ATOM     13  N   UNL     1      31.429  -7.842 -21.272  0.00  0.00    +0.383 N 
ATOM     14  C   UNL     1      31.359 -10.075 -22.330  0.00  0.00    -0.100 C 
ATOM     15  C   UNL     1      32.885  -8.416 -23.184  0.00  0.00    -0.100 C 
ATOM     16  C   UNL     1      31.216  -9.275 -21.031  0.00  0.00    -0.101 C 
ATOM     17  C   UNL     1      32.743  -7.614 -21.886  0.00  0.00    -0.101 C 
ATOM     18  C   UNL     1      31.295  -7.081 -20.032  0.00  0.00    -0.101 C 
ATOM     19  H   UNL     1      33.390 -10.173 -22.293  0.00  0.00    -0.079 HD
ATOM     20  H   UNL     1      30.710  -7.516 -21.920  0.00  0.00    -0.080 HD
ENDBRANCH  11  12
ENDBRANCH   5  11
ENDBRANCH   3  10
BRANCH   2  21
ATOM     21  C   UNL     1      34.663 -17.722 -21.319  0.00  0.00    +0.052 C 
ATOM     22  C   UNL     1      33.678 -18.524 -20.770  0.00  0.00    +0.030 C 
ATOM     23  C   UNL     1      34.027 -19.767 -20.240  0.00  0.00    +0.059 C 
ATOM     24  C   UNL     1      35.988 -18.124 -21.356  0.00  0.00    +0.015 C 
ATOM     25  C   UNL     1      35.357 -20.188 -20.269  0.00  0.00    +0.015 C 
ATOM     26  C   UNL     1      36.337 -19.367 -20.826  0.00  0.00    +0.003 C 
BRANCH  23  27
ATOM     27  N   UNL     1      33.036 -20.598 -19.678  0.00  0.00    -0.247 N 
ATOM     28  N   UNL     1      34.207 -21.614 -17.917  0.00  0.00    -0.337 NA
ATOM     29  N   UNL     1      31.891 -22.138 -18.329  0.00  0.00    -0.170 NA
ATOM     30  C   UNL     1      33.046 -21.492 -18.590  0.00  0.00    +0.149 C 
ATOM     31  C   UNL     1      34.180 -22.479 -16.881  0.00  0.00    +0.147 C 
ATOM     32  C   UNL     1      33.062 -23.198 -16.513  0.00  0.00    +0.055 C 
ATOM     33  C   UNL     1      31.936 -22.987 -17.280  0.00  0.00    +0.114 C 
ATOM     34  H   UNL     1      32.167 -20.542 -20.137  0.00  0.00    +0.165 HD
BRANCH  31  36
ATOM     35  N   UNL     1      36.671 -23.644 -14.366  0.00  0.00    -0.242 NA
ATOM     36  C   UNL     1      35.423 -22.609 -16.159  0.00  0.00    +0.050 C 
ATOM     37  C   UNL     1      36.544 -21.870 -16.522  0.00  0.00    +0.006 C 
ATOM     38  C   UNL     1      35.538 -23.474 -15.083  0.00  0.00    +0.101 C 
ATOM     39  C   UNL     1      37.728 -22.017 -15.807  0.00  0.00    +0.021 C 
ATOM     40  C   UNL     1      37.739 -22.909 -14.747  0.00  0.00    +0.099 C 
ENDBRANCH  31  36
ENDBRANCH  23  27
ENDBRANCH   2  21
TORSDOF 6
ENDMDL
MODEL 5
REMARK VINA RESULT:     -12.5      1.407      2.677
REMARK  Name = 4369496
REMARK  6 active torsions:
REMARK  status: ('A' for Active; 'I' for Inactive)
REMARK    1  A    between atoms: N_2  and  C_21
REMARK    2  A    between atoms: C_3  and  C_10
REMARK    3  A    between atoms: C_5  and  C_11
REMARK    4  A    between atoms: C_11  and  N_12
REMARK    5  A    between atoms: C_23  and  N_27
REMARK    6  A    between atoms: C_31  and  C_36
REMARK                            x       y       z     vdW  Elec       q    Type
REMARK                         _______ _______ _______ _____ _____    ______ ____
ROOT
ATOM      1  O   UNL     1      36.007 -17.549 -20.666  0.00  0.00    -0.270 OA
ATOM      2  N   UNL     1      33.837 -18.395 -20.946  0.00  0.00    -0.280 N 
ATOM      3  C   UNL     1      34.850 -17.440 -21.104  0.00  0.00    +0.249 C 
ATOM      4  H   UNL     1      32.969 -18.168 -21.350  0.00  0.00    +0.155 HD
ENDROOT
BRANCH   3  10
ATOM      5  C   UNL     1      33.759 -13.922 -23.183  0.00  0.00    -0.043 C 
ATOM      6  C   UNL     1      33.770 -13.920 -21.796  0.00  0.00    -0.006 C 
ATOM      7  C   UNL     1      34.101 -15.060 -23.900  0.00  0.00    -0.006 C 
ATOM      8  C   UNL     1      34.131 -15.080 -21.110  0.00  0.00    +0.004 C 
ATOM      9  C   UNL     1      34.462 -16.220 -23.214  0.00  0.00    +0.004 C 
ATOM     10  C   UNL     1      34.477 -16.230 -21.819  0.00  0.00    +0.054 C 
BRANCH   5  11
ATOM     11  C   UNL     1      33.371 -12.670 -23.924  0.00  0.00    -0.050 C 
BRANCH  11  12
ATOM     12  N   UNL     1      33.028 -11.581 -23.011  0.00  0.00    +0.387 N 
ATOM     13  N   UNL     1      31.455  -9.293 -22.206  0.00  0.00    +0.383 N 
ATOM     14  C   UNL     1      31.660 -11.738 -22.505  0.00  0.00    -0.100 C 
ATOM     15  C   UNL     1      33.184 -10.279 -23.670  0.00  0.00    -0.100 C 
ATOM     16  C   UNL     1      31.298 -10.596 -21.549  0.00  0.00    -0.101 C 
ATOM     17  C   UNL     1      32.823  -9.136 -22.715  0.00  0.00    -0.101 C 
ATOM     18  C   UNL     1      31.113  -8.205 -21.292  0.00  0.00    -0.101 C 
ATOM     19  H   UNL     1      33.669 -11.620 -22.220  0.00  0.00    -0.079 HD
ATOM     20  H   UNL     1      30.811  -9.253 -22.998  0.00  0.00    -0.080 HD
ENDBRANCH  11  12
ENDBRANCH   5  11
ENDBRANCH   3  10
BRANCH   2  21
ATOM     21  C   UNL     1      33.899 -19.645 -20.281  0.00  0.00    +0.052 C 
ATOM     22  C   UNL     1      34.989 -19.930 -19.477  0.00  0.00    +0.030 C 
ATOM     23  C   UNL     1      35.050 -21.161 -18.824  0.00  0.00    +0.059 C 
ATOM     24  C   UNL     1      32.867 -20.552 -20.451  0.00  0.00    +0.015 C 
ATOM     25  C   UNL     1      34.019 -22.087 -18.984  0.00  0.00    +0.015 C 
ATOM     26  C   UNL     1      32.928 -21.783 -19.797  0.00  0.00    +0.003 C 
BRANCH  23  27
ATOM     27  N   UNL     1      36.153 -21.468 -17.999  0.00  0.00    -0.247 N 
ATOM     28  N   UNL     1      35.101 -22.426 -16.133  0.00  0.00    -0.337 NA
ATOM     29  N   UNL     1      37.498 -22.202 -16.223  0.00  0.00    -0.170 NA
ATOM     30  C   UNL     1      36.255 -22.060 -16.725  0.00  0.00    +0.149 C 
ATOM     31  C   UNL     1      35.237 -22.989 -14.914  0.00  0.00    +0.147 C 
ATOM     32  C   UNL     1      36.453 -23.190 -14.294  0.00  0.00    +0.055 C 
ATOM     33  C   UNL     1      37.561 -22.772 -15.002  0.00  0.00    +0.114 C 
ATOM     34  H   UNL     1      37.021 -21.219 -18.391  0.00  0.00    +0.165 HD
BRANCH  31  36
ATOM     35  N   UNL     1      32.876 -24.345 -12.369  0.00  0.00    -0.242 NA
ATOM     36  C   UNL     1      34.002 -23.382 -14.280  0.00  0.00    +0.050 C 
ATOM     37  C   UNL     1      32.778 -23.196 -14.914  0.00  0.00    +0.006 C 
ATOM     38  C   UNL     1      33.996 -23.956 -13.019  0.00  0.00    +0.101 C 
ATOM     39  C   UNL     1      31.604 -23.585 -14.278  0.00  0.00    +0.021 C 
ATOM     40  C   UNL     1      31.707 -24.149 -13.017  0.00  0.00    +0.099 C 
ENDBRANCH  31  36
ENDBRANCH  23  27
ENDBRANCH   2  21
TORSDOF 6
ENDMDL
MODEL 6
REMARK VINA RESULT:     -12.5      3.050     14.159
REMARK  Name = 4369496
REMARK  6 active torsions:
REMARK  status: ('A' for Active; 'I' for Inactive)
REMARK    1  A    between atoms: N_2  and  C_21
REMARK    2  A    between atoms: C_3  and  C_10
REMARK    3  A    between atoms: C_5  and  C_11
REMARK    4  A    between atoms: C_11  and  N_12
REMARK    5  A    between atoms: C_23  and  N_27
REMARK    6  A    between atoms: C_31  and  C_36
REMARK                            x       y       z     vdW  Elec       q    Type
REMARK                         _______ _______ _______ _____ _____    ______ ____
ROOT
ATOM      1  O   UNL     1      33.041 -13.935 -24.439  0.00  0.00    -0.270 OA
ATOM      2  N   UNL     1      33.304 -13.022 -22.294  0.00  0.00    -0.280 N 
ATOM      3  C   UNL     1      33.400 -14.039 -23.255  0.00  0.00    +0.249 C 
ATOM      4  H   UNL     1      33.631 -13.253 -21.395  0.00  0.00    +0.155 HD
ENDROOT
BRANCH   3  10
ATOM      5  C   UNL     1      34.982 -17.719 -21.900  0.00  0.00    -0.043 C 
ATOM      6  C   UNL     1      34.766 -16.693 -20.992  0.00  0.00    -0.006 C 
ATOM      7  C   UNL     1      34.688 -17.557 -23.246  0.00  0.00    -0.006 C 
ATOM      8  C   UNL     1      34.243 -15.480 -21.438  0.00  0.00    +0.004 C 
ATOM      9  C   UNL     1      34.165 -16.344 -23.693  0.00  0.00    +0.004 C 
ATOM     10  C   UNL     1      33.943 -15.304 -22.789  0.00  0.00    +0.054 C 
BRANCH   5  11
ATOM     11  C   UNL     1      35.545 -19.030 -21.418  0.00  0.00    -0.050 C 
BRANCH  11  12
ATOM     12  N   UNL     1      34.776 -19.575 -20.300  0.00  0.00    +0.387 N 
ATOM     13  N   UNL     1      33.282 -21.666 -18.978  0.00  0.00    +0.383 N 
ATOM     14  C   UNL     1      35.450 -20.745 -19.726  0.00  0.00    -0.100 C 
ATOM     15  C   UNL     1      33.416 -19.924 -20.725  0.00  0.00    -0.100 C 
ATOM     16  C   UNL     1      34.644 -21.318 -18.555  0.00  0.00    -0.101 C 
ATOM     17  C   UNL     1      32.608 -20.496 -19.554  0.00  0.00    -0.101 C 
ATOM     18  C   UNL     1      32.513 -22.209 -17.860  0.00  0.00    -0.101 C 
ATOM     19  H   UNL     1      34.714 -18.855 -19.581  0.00  0.00    -0.079 HD
ATOM     20  H   UNL     1      33.343 -22.388 -19.697  0.00  0.00    -0.080 HD
ENDBRANCH  11  12
ENDBRANCH   5  11
ENDBRANCH   3  10
BRANCH   2  21
ATOM     21  C   UNL     1      32.800 -11.708 -22.447  0.00  0.00    +0.052 C 
ATOM     22  C   UNL     1      33.526 -10.786 -23.182  0.00  0.00    +0.030 C 
ATOM     23  C   UNL     1      33.029  -9.490 -23.330  0.00  0.00    +0.059 C 
ATOM     24  C   UNL     1      31.592 -11.375 -21.858  0.00  0.00    +0.015 C 
ATOM     25  C   UNL     1      31.814  -9.138 -22.744  0.00  0.00    +0.015 C 
ATOM     26  C   UNL     1      31.095 -10.080 -22.008  0.00  0.00    +0.003 C 
BRANCH  23  27
ATOM     27  N   UNL     1      33.755  -8.538 -24.076  0.00  0.00    -0.247 N 
ATOM     28  N   UNL     1      32.696  -6.538 -23.457  0.00  0.00    -0.337 NA
ATOM     29  N   UNL     1      34.533  -6.535 -25.016  0.00  0.00    -0.170 NA
ATOM     30  C   UNL     1      33.656  -7.138 -24.188  0.00  0.00    +0.149 C 
ATOM     31  C   UNL     1      32.630  -5.197 -23.588  0.00  0.00    +0.147 C 
ATOM     32  C   UNL     1      33.470  -4.465 -24.402  0.00  0.00    +0.055 C 
ATOM     33  C   UNL     1      34.411  -5.193 -25.100  0.00  0.00    +0.114 C 
ATOM     34  H   UNL     1      34.470  -8.931 -24.628  0.00  0.00    +0.165 HD
BRANCH  31  36
ATOM     35  N   UNL     1      30.073  -2.702 -22.525  0.00  0.00    -0.242 NA
ATOM     36  C   UNL     1      31.603  -4.554 -22.805  0.00  0.00    +0.050 C 
ATOM     37  C   UNL     1      31.147  -5.118 -21.618  0.00  0.00    +0.006 C 
ATOM     38  C   UNL     1      31.038  -3.356 -23.210  0.00  0.00    +0.101 C 
ATOM     39  C   UNL     1      30.156  -4.475 -20.884  0.00  0.00    +0.021 C 
ATOM     40  C   UNL     1      29.657  -3.281 -21.377  0.00  0.00    +0.099 C 
ENDBRANCH  31  36
ENDBRANCH  23  27
ENDBRANCH   2  21
TORSDOF 6
ENDMDL
MODEL 7
REMARK VINA RESULT:     -12.4      2.639     13.426
REMARK  Name = 4369496
REMARK  6 active torsions:
REMARK  status: ('A' for Active; 'I' for Inactive)
REMARK    1  A    between atoms: N_2  and  C_21
REMARK    2  A    between atoms: C_3  and  C_10
REMARK    3  A    between atoms: C_5  and  C_11
REMARK    4  A    between atoms: C_11  and  N_12
REMARK    5  A    between atoms: C_23  and  N_27
REMARK    6  A    between atoms: C_31  and  C_36
REMARK                            x       y       z     vdW  Elec       q    Type
REMARK                         _______ _______ _______ _____ _____    ______ ____
ROOT
ATOM      1  O   UNL     1      33.768 -14.936 -24.545  0.00  0.00    -0.270 OA
ATOM      2  N   UNL     1      33.440 -14.004 -22.418  0.00  0.00    -0.280 N 
ATOM      3  C   UNL     1      33.800 -15.026 -23.307  0.00  0.00    +0.249 C 
ATOM      4  H   UNL     1      33.518 -14.224 -21.461  0.00  0.00    +0.155 HD
ENDROOT
BRANCH   3  10
ATOM      5  C   UNL     1      35.005 -18.675 -21.541  0.00  0.00    -0.043 C 
ATOM      6  C   UNL     1      35.008 -17.515 -20.781  0.00  0.00    -0.006 C 
ATOM      7  C   UNL     1      34.612 -18.658 -22.872  0.00  0.00    -0.006 C 
ATOM      8  C   UNL     1      34.610 -16.311 -21.363  0.00  0.00    +0.004 C 
ATOM      9  C   UNL     1      34.214 -17.454 -23.454  0.00  0.00    +0.004 C 
ATOM     10  C   UNL     1      34.213 -16.281 -22.700  0.00  0.00    +0.054 C 
BRANCH   5  11
ATOM     11  C   UNL     1      35.433 -19.975 -20.913  0.00  0.00    -0.050 C 
BRANCH  11  12
ATOM     12  N   UNL     1      34.595 -20.329 -19.768  0.00  0.00    +0.387 N 
ATOM     13  N   UNL     1      32.816 -22.092 -18.326  0.00  0.00    +0.383 N 
ATOM     14  C   UNL     1      35.094 -21.544 -19.113  0.00  0.00    -0.100 C 
ATOM     15  C   UNL     1      33.198 -20.505 -20.181  0.00  0.00    -0.100 C 
ATOM     16  C   UNL     1      34.214 -21.916 -17.915  0.00  0.00    -0.101 C 
ATOM     17  C   UNL     1      32.317 -20.878 -18.983  0.00  0.00    -0.101 C 
ATOM     18  C   UNL     1      31.979 -22.444 -17.181  0.00  0.00    -0.101 C 
ATOM     19  H   UNL     1      34.638 -19.562 -19.098  0.00  0.00    -0.079 HD
ATOM     20  H   UNL     1      32.772 -22.861 -18.996  0.00  0.00    -0.080 HD
ENDBRANCH  11  12
ENDBRANCH   5  11
ENDBRANCH   3  10
BRANCH   2  21
ATOM     21  C   UNL     1      32.980 -12.698 -22.714  0.00  0.00    +0.052 C 
ATOM     22  C   UNL     1      32.575 -11.873 -21.678  0.00  0.00    +0.030 C 
ATOM     23  C   UNL     1      32.120 -10.586 -21.971  0.00  0.00    +0.059 C 
ATOM     24  C   UNL     1      32.946 -12.277 -24.032  0.00  0.00    +0.015 C 
ATOM     25  C   UNL     1      32.078 -10.145 -23.294  0.00  0.00    +0.015 C 
ATOM     26  C   UNL     1      32.491 -10.990 -24.324  0.00  0.00    +0.003 C 
BRANCH  23  27
ATOM     27  N   UNL     1      31.704  -9.732 -20.929  0.00  0.00    -0.247 N 
ATOM     28  N   UNL     1      32.163  -7.616 -21.835  0.00  0.00    -0.337 NA
ATOM     29  N   UNL     1      31.218  -7.840 -19.630  0.00  0.00    -0.170 NA
ATOM     30  C   UNL     1      31.695  -8.330 -20.792  0.00  0.00    +0.149 C 
ATOM     31  C   UNL     1      32.138  -6.277 -21.669  0.00  0.00    +0.147 C 
ATOM     32  C   UNL     1      31.675  -5.655 -20.528  0.00  0.00    +0.055 C 
ATOM     33  C   UNL     1      31.222  -6.494 -19.531  0.00  0.00    +0.114 C 
ATOM     34  H   UNL     1      31.353 -10.209 -20.142  0.00  0.00    +0.165 HD
BRANCH  31  36
ATOM     35  N   UNL     1      32.382  -3.628 -24.279  0.00  0.00    -0.242 NA
ATOM     36  C   UNL     1      32.638  -5.513 -22.786  0.00  0.00    +0.050 C 
ATOM     37  C   UNL     1      33.809  -5.880 -23.441  0.00  0.00    +0.006 C 
ATOM     38  C   UNL     1      31.968  -4.388 -23.241  0.00  0.00    +0.101 C 
ATOM     39  C   UNL     1      34.266  -5.123 -24.514  0.00  0.00    +0.021 C 
ATOM     40  C   UNL     1      33.523  -4.017 -24.890  0.00  0.00    +0.099 C 
ENDBRANCH  31  36
ENDBRANCH  23  27
ENDBRANCH   2  21
TORSDOF 6
ENDMDL
MODEL 8
REMARK VINA RESULT:     -12.0      5.744     15.777
REMARK  Name = 4369496
REMARK  6 active torsions:
REMARK  status: ('A' for Active; 'I' for Inactive)
REMARK    1  A    between atoms: N_2  and  C_21
REMARK    2  A    between atoms: C_3  and  C_10
REMARK    3  A    between atoms: C_5  and  C_11
REMARK    4  A    between atoms: C_11  and  N_12
REMARK    5  A    between atoms: C_23  and  N_27
REMARK    6  A    between atoms: C_31  and  C_36
REMARK                            x       y       z     vdW  Elec       q    Type
REMARK                         _______ _______ _______ _____ _____    ______ ____
ROOT
ATOM      1  O   UNL     1      30.559  -9.958 -20.883  0.00  0.00    -0.270 OA
ATOM      2  N   UNL     1      32.075  -8.625 -22.078  0.00  0.00    -0.280 N 
ATOM      3  C   UNL     1      31.464  -9.836 -21.724  0.00  0.00    +0.249 C 
ATOM      4  H   UNL     1      32.779  -8.686 -22.762  0.00  0.00    +0.155 HD
ENDROOT
BRANCH   3  10
ATOM      5  C   UNL     1      32.941 -13.288 -23.672  0.00  0.00    -0.043 C 
ATOM      6  C   UNL     1      32.321 -13.413 -22.437  0.00  0.00    -0.006 C 
ATOM      7  C   UNL     1      33.083 -12.048 -24.279  0.00  0.00    -0.006 C 
ATOM      8  C   UNL     1      31.833 -12.275 -21.795  0.00  0.00    +0.004 C 
ATOM      9  C   UNL     1      32.595 -10.910 -23.637  0.00  0.00    +0.004 C 
ATOM     10  C   UNL     1      31.970 -11.023 -22.395  0.00  0.00    +0.054 C 
BRANCH   5  11
ATOM     11  C   UNL     1      33.466 -14.516 -24.367  0.00  0.00    -0.050 C 
BRANCH  11  12
ATOM     12  N   UNL     1      33.545 -15.661 -23.461  0.00  0.00    +0.387 N 
ATOM     13  N   UNL     1      34.923 -17.893 -22.245  0.00  0.00    +0.383 N 
ATOM     14  C   UNL     1      34.586 -15.453 -22.448  0.00  0.00    -0.100 C 
ATOM     15  C   UNL     1      33.798 -16.899 -24.208  0.00  0.00    -0.100 C 
ATOM     16  C   UNL     1      34.672 -16.654 -21.499  0.00  0.00    -0.101 C 
ATOM     17  C   UNL     1      33.883 -18.101 -23.260  0.00  0.00    -0.101 C 
ATOM     18  C   UNL     1      35.001 -19.037 -21.339  0.00  0.00    -0.101 C 
ATOM     19  H   UNL     1      32.648 -15.750 -22.986  0.00  0.00    -0.079 HD
ATOM     20  H   UNL     1      35.823 -17.806 -22.719  0.00  0.00    -0.080 HD
ENDBRANCH  11  12
ENDBRANCH   5  11
ENDBRANCH   3  10
BRANCH   2  21
ATOM     21  C   UNL     1      31.811  -7.326 -21.580  0.00  0.00    +0.052 C 
ATOM     22  C   UNL     1      31.171  -6.406 -22.394  0.00  0.00    +0.030 C 
ATOM     23  C   UNL     1      30.914  -5.126 -21.903  0.00  0.00    +0.059 C 
ATOM     24  C   UNL     1      32.200  -7.005 -20.291  0.00  0.00    +0.015 C 
ATOM     25  C   UNL     1      31.299  -4.785 -20.606  0.00  0.00    +0.015 C 
ATOM     26  C   UNL     1      31.942  -5.724 -19.800  0.00  0.00    +0.003 C 
BRANCH  23  27
ATOM     27  N   UNL     1      30.262  -4.177 -22.718  0.00  0.00    -0.247 N 
ATOM     28  N   UNL     1      31.935  -3.659 -24.280  0.00  0.00    -0.337 NA
ATOM     29  N   UNL     1      29.771  -2.604 -24.388  0.00  0.00    -0.170 NA
ATOM     30  C   UNL     1      30.676  -3.445 -23.848  0.00  0.00    +0.149 C 
ATOM     31  C   UNL     1      32.298  -2.942 -25.364  0.00  0.00    +0.147 C 
ATOM     32  C   UNL     1      31.464  -2.050 -26.006  0.00  0.00    +0.055 C 
ATOM     33  C   UNL     1      30.200  -1.919 -25.469  0.00  0.00    +0.114 C 
ATOM     34  H   UNL     1      29.336  -3.988 -22.442  0.00  0.00    +0.165 HD
BRANCH  31  36
ATOM     35  N   UNL     1      35.597  -2.346 -26.992  0.00  0.00    -0.242 NA
ATOM     36  C   UNL     1      33.645  -3.170 -25.827  0.00  0.00    +0.050 C 
ATOM     37  C   UNL     1      34.294  -4.376 -25.580  0.00  0.00    +0.006 C 
ATOM     38  C   UNL     1      34.335  -2.197 -26.531  0.00  0.00    +0.101 C 
ATOM     39  C   UNL     1      35.593  -4.567 -26.039  0.00  0.00    +0.021 C 
ATOM     40  C   UNL     1      36.194  -3.530 -26.733  0.00  0.00    +0.099 C 
ENDBRANCH  31  36
ENDBRANCH  23  27
ENDBRANCH   2  21
TORSDOF 6
ENDMDL
