MODEL 1
REMARK VINA RESULT:     -11.6      0.000      0.000
REMARK  Name = 5287834
REMARK  3 active torsions:
REMARK  status: ('A' for Active; 'I' for Inactive)
REMARK    1  A    between atoms: C_1  and  O_19
REMARK    2  A    between atoms: C_2  and  O_21
REMARK    3  A    between atoms: C_4  and  O_23
REMARK                            x       y       z     vdW  Elec       q    Type
REMARK                         _______ _______ _______ _____ _____    ______ ____
ROOT
ATOM      1  C   UNL     1      37.394 -23.793 -12.987  0.00  0.00    +0.168 C 
ATOM      2  C   UNL     1      37.720 -24.007 -14.457  0.00  0.00    +0.144 C 
ATOM      3  C   UNL     1      35.316 -23.241 -15.013  0.00  0.00    -0.021 C 
ATOM      4  C   UNL     1      35.967 -24.253 -12.713  0.00  0.00    +0.162 C 
ATOM      5  C   UNL     1      36.797 -23.173 -15.346  0.00  0.00    +0.058 C 
ATOM      6  C   UNL     1      34.958 -23.789 -13.747  0.00  0.00    +0.003 C 
ATOM      7  C   UNL     1      34.302 -22.769 -15.955  0.00  0.00    -0.004 C 
ATOM      8  C   UNL     1      32.953 -23.016 -15.559  0.00  0.00    -0.000 C 
ATOM      9  C   UNL     1      33.613 -23.948 -13.422  0.00  0.00    -0.002 C 
ATOM     10  C   UNL     1      34.480 -22.082 -17.255  0.00  0.00    -0.000 C 
ATOM     11  C   UNL     1      32.630 -23.584 -14.324  0.00  0.00    -0.000 C 
ATOM     12  C   UNL     1      33.343 -21.802 -18.068  0.00  0.00    -0.000 C 
ATOM     13  C   UNL     1      31.876 -22.703 -16.387  0.00  0.00    -0.000 C 
ATOM     14  C   UNL     1      32.066 -22.125 -17.627  0.00  0.00    -0.000 C 
ATOM     15  C   UNL     1      35.708 -21.620 -17.808  0.00  0.00    -0.000 C 
ATOM     16  C   UNL     1      33.454 -21.182 -19.325  0.00  0.00    -0.000 C 
ATOM     17  C   UNL     1      35.814 -20.995 -19.058  0.00  0.00    -0.000 C 
ATOM     18  C   UNL     1      34.686 -20.785 -19.825  0.00  0.00    -0.000 C 
ENDROOT
BRANCH   1  19
ATOM     19  O   UNL     1      37.508 -22.414 -12.639  0.00  0.00    -0.379 OA
ATOM     20  H   UNL     1      36.628 -22.055 -12.442  0.00  0.00    +0.211 HD
ENDBRANCH   1  19
BRANCH   2  21
ATOM     21  O   UNL     1      39.075 -23.632 -14.691  0.00  0.00    -0.382 OA
ATOM     22  H   UNL     1      39.154 -22.667 -14.650  0.00  0.00    +0.210 HD
ENDBRANCH   2  21
BRANCH   4  23
ATOM     23  O   UNL     1      35.930 -25.680 -12.688  0.00  0.00    -0.377 OA
ATOM     24  H   UNL     1      36.233 -26.026 -13.543  0.00  0.00    +0.211 HD
ENDBRANCH   4  23
TORSDOF 3
ENDMDL
MODEL 2
REMARK VINA RESULT:     -11.2      2.998      4.885
REMARK  Name = 5287834
REMARK  3 active torsions:
REMARK  status: ('A' for Active; 'I' for Inactive)
REMARK    1  A    between atoms: C_1  and  O_19
REMARK    2  A    between atoms: C_2  and  O_21
REMARK    3  A    between atoms: C_4  and  O_23
REMARK                            x       y       z     vdW  Elec       q    Type
REMARK                         _______ _______ _______ _____ _____    ______ ____
ROOT
ATOM      1  C   UNL     1      29.635 -24.025 -14.510  0.00  0.00    +0.168 C 
ATOM      2  C   UNL     1      29.695 -22.727 -15.302  0.00  0.00    +0.144 C 
ATOM      3  C   UNL     1      32.264 -22.992 -15.377  0.00  0.00    -0.021 C 
ATOM      4  C   UNL     1      30.799 -24.071 -13.526  0.00  0.00    +0.162 C 
ATOM      5  C   UNL     1      30.985 -22.648 -16.120  0.00  0.00    +0.058 C 
ATOM      6  C   UNL     1      32.130 -23.654 -14.122  0.00  0.00    +0.003 C 
ATOM      7  C   UNL     1      33.577 -22.651 -15.925  0.00  0.00    -0.004 C 
ATOM      8  C   UNL     1      34.678 -22.919 -15.056  0.00  0.00    -0.000 C 
ATOM      9  C   UNL     1      33.266 -23.922 -13.362  0.00  0.00    -0.002 C 
ATOM     10  C   UNL     1      33.917 -22.066 -17.241  0.00  0.00    -0.000 C 
ATOM     11  C   UNL     1      34.515 -23.542 -13.816  0.00  0.00    -0.000 C 
ATOM     12  C   UNL     1      35.269 -21.715 -17.530  0.00  0.00    -0.000 C 
ATOM     13  C   UNL     1      35.984 -22.572 -15.398  0.00  0.00    -0.000 C 
ATOM     14  C   UNL     1      36.274 -21.963 -16.604  0.00  0.00    -0.000 C 
ATOM     15  C   UNL     1      33.020 -21.824 -18.319  0.00  0.00    -0.000 C 
ATOM     16  C   UNL     1      35.647 -21.127 -18.750  0.00  0.00    -0.000 C 
ATOM     17  C   UNL     1      33.402 -21.243 -19.537  0.00  0.00    -0.000 C 
ATOM     18  C   UNL     1      34.717 -20.883 -19.750  0.00  0.00    -0.000 C 
ENDROOT
BRANCH   1  19
ATOM     19  O   UNL     1      29.724 -25.153 -15.380  0.00  0.00    -0.379 OA
ATOM     20  H   UNL     1      30.656 -25.361 -15.548  0.00  0.00    +0.211 HD
ENDBRANCH   1  19
BRANCH   2  21
ATOM     21  O   UNL     1      28.571 -22.665 -16.175  0.00  0.00    -0.382 OA
ATOM     22  H   UNL     1      27.757 -22.780 -15.662  0.00  0.00    +0.210 HD
ENDBRANCH   2  21
BRANCH   4  23
ATOM     23  O   UNL     1      30.524 -23.193 -12.434  0.00  0.00    -0.377 OA
ATOM     24  H   UNL     1      31.331 -23.068 -11.909  0.00  0.00    +0.211 HD
ENDBRANCH   4  23
TORSDOF 3
ENDMDL
MODEL 3
REMARK VINA RESULT:     -11.1      1.824      4.360
REMARK  Name = 5287834
REMARK  3 active torsions:
REMARK  status: ('A' for Active; 'I' for Inactive)
REMARK    1  A    between atoms: C_1  and  O_19
REMARK    2  A    between atoms: C_2  and  O_21
REMARK    3  A    between atoms: C_4  and  O_23
REMARK                            x       y       z     vdW  Elec       q    Type
REMARK                         _______ _______ _______ _____ _____    ______ ____
ROOT
ATOM      1  C   UNL     1      36.768 -24.325 -11.293  0.00  0.00    +0.168 C 
ATOM      2  C   UNL     1      35.416 -23.801 -10.832  0.00  0.00    +0.144 C 
ATOM      3  C   UNL     1      34.758 -23.557 -13.318  0.00  0.00    -0.021 C 
ATOM      4  C   UNL     1      37.226 -23.534 -12.514  0.00  0.00    +0.162 C 
ATOM      5  C   UNL     1      34.358 -23.993 -11.919  0.00  0.00    +0.058 C 
ATOM      6  C   UNL     1      36.144 -23.324 -13.556  0.00  0.00    +0.003 C 
ATOM      7  C   UNL     1      33.761 -23.378 -14.373  0.00  0.00    -0.004 C 
ATOM      8  C   UNL     1      34.269 -22.842 -15.595  0.00  0.00    -0.000 C 
ATOM      9  C   UNL     1      36.557 -22.846 -14.797  0.00  0.00    -0.002 C 
ATOM     10  C   UNL     1      32.310 -23.670 -14.348  0.00  0.00    -0.000 C 
ATOM     11  C   UNL     1      35.630 -22.592 -15.791  0.00  0.00    -0.000 C 
ATOM     12  C   UNL     1      31.498 -23.317 -15.467  0.00  0.00    -0.000 C 
ATOM     13  C   UNL     1      33.432 -22.534 -16.666  0.00  0.00    -0.000 C 
ATOM     14  C   UNL     1      32.068 -22.748 -16.598  0.00  0.00    -0.000 C 
ATOM     15  C   UNL     1      31.593 -24.314 -13.301  0.00  0.00    -0.000 C 
ATOM     16  C   UNL     1      30.110 -23.539 -15.485  0.00  0.00    -0.000 C 
ATOM     17  C   UNL     1      30.210 -24.541 -13.326  0.00  0.00    -0.000 C 
ATOM     18  C   UNL     1      29.463 -24.142 -14.417  0.00  0.00    -0.000 C 
ENDROOT
BRANCH   1  19
ATOM     19  O   UNL     1      36.683 -25.705 -11.644  0.00  0.00    -0.379 OA
ATOM     20  H   UNL     1      37.289 -26.219 -11.087  0.00  0.00    +0.211 HD
ENDBRANCH   1  19
BRANCH   2  21
ATOM     21  O   UNL     1      35.024 -24.503  -9.655  0.00  0.00    -0.382 OA
ATOM     22  H   UNL     1      34.943 -23.878  -8.919  0.00  0.00    +0.210 HD
ENDBRANCH   2  21
BRANCH   4  23
ATOM     23  O   UNL     1      37.677 -22.246 -12.097  0.00  0.00    -0.377 OA
ATOM     24  H   UNL     1      38.574 -22.092 -12.434  0.00  0.00    +0.211 HD
ENDBRANCH   4  23
TORSDOF 3
ENDMDL
MODEL 4
REMARK VINA RESULT:     -10.6      2.064      4.017
REMARK  Name = 5287834
REMARK  3 active torsions:
REMARK  status: ('A' for Active; 'I' for Inactive)
REMARK    1  A    between atoms: C_1  and  O_19
REMARK    2  A    between atoms: C_2  and  O_21
REMARK    3  A    between atoms: C_4  and  O_23
REMARK                            x       y       z     vdW  Elec       q    Type
REMARK                         _______ _______ _______ _____ _____    ______ ____
ROOT
ATOM      1  C   UNL     1      32.100 -24.170 -13.118  0.00  0.00    +0.168 C 
ATOM      2  C   UNL     1      31.509 -22.957 -13.820  0.00  0.00    +0.144 C 
ATOM      3  C   UNL     1      33.704 -22.776 -15.171  0.00  0.00    -0.021 C 
ATOM      4  C   UNL     1      33.581 -23.927 -12.848  0.00  0.00    +0.162 C 
ATOM      5  C   UNL     1      32.186 -22.727 -15.172  0.00  0.00    +0.058 C 
ATOM      6  C   UNL     1      34.336 -23.339 -14.025  0.00  0.00    +0.003 C 
ATOM      7  C   UNL     1      34.482 -22.262 -16.298  0.00  0.00    -0.004 C 
ATOM      8  C   UNL     1      35.896 -22.257 -16.098  0.00  0.00    -0.000 C 
ATOM      9  C   UNL     1      35.726 -23.337 -13.936  0.00  0.00    -0.002 C 
ATOM     10  C   UNL     1      34.010 -21.745 -17.602  0.00  0.00    -0.000 C 
ATOM     11  C   UNL     1      36.489 -22.787 -14.949  0.00  0.00    -0.000 C 
ATOM     12  C   UNL     1      34.947 -21.191 -18.524  0.00  0.00    -0.000 C 
ATOM     13  C   UNL     1      36.769 -21.720 -17.043  0.00  0.00    -0.000 C 
ATOM     14  C   UNL     1      36.303 -21.178 -18.226  0.00  0.00    -0.000 C 
ATOM     15  C   UNL     1      32.671 -21.758 -18.085  0.00  0.00    -0.000 C 
ATOM     16  C   UNL     1      34.553 -20.656 -19.763  0.00  0.00    -0.000 C 
ATOM     17  C   UNL     1      32.283 -21.229 -19.324  0.00  0.00    -0.000 C 
ATOM     18  C   UNL     1      33.225 -20.666 -20.162  0.00  0.00    -0.000 C 
ENDROOT
BRANCH   1  19
ATOM     19  O   UNL     1      31.967 -25.337 -13.928  0.00  0.00    -0.379 OA
ATOM     20  H   UNL     1      31.096 -25.738 -13.779  0.00  0.00    +0.211 HD
ENDBRANCH   1  19
BRANCH   2  21
ATOM     21  O   UNL     1      30.113 -23.168 -14.014  0.00  0.00    -0.382 OA
ATOM     22  H   UNL     1      29.974 -24.019 -14.457  0.00  0.00    +0.210 HD
ENDBRANCH   2  21
BRANCH   4  23
ATOM     23  O   UNL     1      33.714 -23.018 -11.755  0.00  0.00    -0.377 OA
ATOM     24  H   UNL     1      33.685 -23.510 -10.919  0.00  0.00    +0.211 HD
ENDBRANCH   4  23
TORSDOF 3
ENDMDL
MODEL 5
REMARK VINA RESULT:     -10.2      1.242      3.621
REMARK  Name = 5287834
REMARK  3 active torsions:
REMARK  status: ('A' for Active; 'I' for Inactive)
REMARK    1  A    between atoms: C_1  and  O_19
REMARK    2  A    between atoms: C_2  and  O_21
REMARK    3  A    between atoms: C_4  and  O_23
REMARK                            x       y       z     vdW  Elec       q    Type
REMARK                         _______ _______ _______ _____ _____    ______ ____
ROOT
ATOM      1  C   UNL     1      36.727 -24.828 -11.779  0.00  0.00    +0.168 C 
ATOM      2  C   UNL     1      35.443 -24.018 -11.668  0.00  0.00    +0.144 C 
ATOM      3  C   UNL     1      35.731 -23.382 -14.155  0.00  0.00    -0.021 C 
ATOM      4  C   UNL     1      37.727 -24.073 -12.647  0.00  0.00    +0.162 C 
ATOM      5  C   UNL     1      34.799 -23.828 -13.041  0.00  0.00    +0.058 C 
ATOM      6  C   UNL     1      37.131 -23.493 -13.917  0.00  0.00    +0.003 C 
ATOM      7  C   UNL     1      35.210 -22.854 -15.416  0.00  0.00    -0.004 C 
ATOM      8  C   UNL     1      36.203 -22.356 -16.313  0.00  0.00    -0.000 C 
ATOM      9  C   UNL     1      38.030 -23.025 -14.871  0.00  0.00    -0.002 C 
ATOM     10  C   UNL     1      33.808 -22.761 -15.884  0.00  0.00    -0.000 C 
ATOM     11  C   UNL     1      37.570 -22.449 -16.040  0.00  0.00    -0.000 C 
ATOM     12  C   UNL     1      33.517 -22.108 -17.118  0.00  0.00    -0.000 C 
ATOM     13  C   UNL     1      35.861 -21.743 -17.519  0.00  0.00    -0.000 C 
ATOM     14  C   UNL     1      34.542 -21.603 -17.906  0.00  0.00    -0.000 C 
ATOM     15  C   UNL     1      32.661 -23.294 -15.232  0.00  0.00    -0.000 C 
ATOM     16  C   UNL     1      32.203 -21.962 -17.596  0.00  0.00    -0.000 C 
ATOM     17  C   UNL     1      31.353 -23.151 -15.716  0.00  0.00    -0.000 C 
ATOM     18  C   UNL     1      31.121 -22.474 -16.896  0.00  0.00    -0.000 C 
ENDROOT
BRANCH   1  19
ATOM     19  O   UNL     1      36.472 -26.100 -12.372  0.00  0.00    -0.379 OA
ATOM     20  H   UNL     1      36.893 -26.142 -13.245  0.00  0.00    +0.211 HD
ENDBRANCH   1  19
BRANCH   2  21
ATOM     21  O   UNL     1      34.537 -24.701 -10.806  0.00  0.00    -0.382 OA
ATOM     22  H   UNL     1      34.353 -25.583 -11.165  0.00  0.00    +0.210 HD
ENDBRANCH   2  21
BRANCH   4  23
ATOM     23  O   UNL     1      38.275 -22.989 -11.897  0.00  0.00    -0.377 OA
ATOM     24  H   UNL     1      38.492 -22.257 -12.497  0.00  0.00    +0.211 HD
ENDBRANCH   4  23
TORSDOF 3
ENDMDL
MODEL 6
REMARK VINA RESULT:      -9.5      1.614      4.332
REMARK  Name = 5287834
REMARK  3 active torsions:
REMARK  status: ('A' for Active; 'I' for Inactive)
REMARK    1  A    between atoms: C_1  and  O_19
REMARK    2  A    between atoms: C_2  and  O_21
REMARK    3  A    between atoms: C_4  and  O_23
REMARK                            x       y       z     vdW  Elec       q    Type
REMARK                         _______ _______ _______ _____ _____    ______ ____
ROOT
ATOM      1  C   UNL     1      37.494 -23.349 -14.525  0.00  0.00    +0.168 C 
ATOM      2  C   UNL     1      36.510 -23.049 -13.404  0.00  0.00    +0.144 C 
ATOM      3  C   UNL     1      34.644 -22.942 -15.187  0.00  0.00    -0.021 C 
ATOM      4  C   UNL     1      37.141 -22.508 -15.746  0.00  0.00    +0.162 C 
ATOM      5  C   UNL     1      35.086 -23.423 -13.815  0.00  0.00    +0.058 C 
ATOM      6  C   UNL     1      35.660 -22.488 -16.076  0.00  0.00    +0.003 C 
ATOM      7  C   UNL     1      33.233 -22.940 -15.574  0.00  0.00    -0.004 C 
ATOM      8  C   UNL     1      32.959 -22.341 -16.840  0.00  0.00    -0.000 C 
ATOM      9  C   UNL     1      35.305 -21.962 -17.316  0.00  0.00    -0.002 C 
ATOM     10  C   UNL     1      32.061 -23.465 -14.838  0.00  0.00    -0.000 C 
ATOM     11  C   UNL     1      33.974 -21.874 -17.680  0.00  0.00    -0.000 C 
ATOM     12  C   UNL     1      30.749 -23.261 -15.361  0.00  0.00    -0.000 C 
ATOM     13  C   UNL     1      31.657 -22.186 -17.312  0.00  0.00    -0.000 C 
ATOM     14  C   UNL     1      30.569 -22.619 -16.578  0.00  0.00    -0.000 C 
ATOM     15  C   UNL     1      32.085 -24.207 -13.624  0.00  0.00    -0.000 C 
ATOM     16  C   UNL     1      29.597 -23.708 -14.689  0.00  0.00    -0.000 C 
ATOM     17  C   UNL     1      30.934 -24.656 -12.961  0.00  0.00    -0.000 C 
ATOM     18  C   UNL     1      29.685 -24.397 -13.489  0.00  0.00    -0.000 C 
ENDROOT
BRANCH   1  19
ATOM     19  O   UNL     1      37.444 -24.729 -14.886  0.00  0.00    -0.379 OA
ATOM     20  H   UNL     1      36.931 -25.219 -14.224  0.00  0.00    +0.211 HD
ENDBRANCH   1  19
BRANCH   2  21
ATOM     21  O   UNL     1      36.884 -23.793 -12.247  0.00  0.00    -0.382 OA
ATOM     22  H   UNL     1      36.777 -23.239 -11.459  0.00  0.00    +0.210 HD
ENDBRANCH   2  21
BRANCH   4  23
ATOM     23  O   UNL     1      37.548 -21.158 -15.520  0.00  0.00    -0.377 OA
ATOM     24  H   UNL     1      37.858 -20.770 -16.354  0.00  0.00    +0.211 HD
ENDBRANCH   4  23
TORSDOF 3
ENDMDL
MODEL 7
REMARK VINA RESULT:      -9.1      2.903      5.554
REMARK  Name = 5287834
REMARK  3 active torsions:
REMARK  status: ('A' for Active; 'I' for Inactive)
REMARK    1  A    between atoms: C_1  and  O_19
REMARK    2  A    between atoms: C_2  and  O_21
REMARK    3  A    between atoms: C_4  and  O_23
REMARK                            x       y       z     vdW  Elec       q    Type
REMARK                         _______ _______ _______ _____ _____    ______ ____
ROOT
ATOM      1  C   UNL     1      33.571 -21.929 -19.518  0.00  0.00    +0.168 C 
ATOM      2  C   UNL     1      34.703 -21.308 -18.714  0.00  0.00    +0.144 C 
ATOM      3  C   UNL     1      33.759 -22.502 -16.626  0.00  0.00    -0.021 C 
ATOM      4  C   UNL     1      32.293 -21.916 -18.686  0.00  0.00    +0.162 C 
ATOM      5  C   UNL     1      34.979 -22.119 -17.447  0.00  0.00    +0.058 C 
ATOM      6  C   UNL     1      32.485 -22.367 -17.251  0.00  0.00    +0.003 C 
ATOM      7  C   UNL     1      33.889 -22.983 -15.251  0.00  0.00    -0.004 C 
ATOM      8  C   UNL     1      32.652 -23.180 -14.565  0.00  0.00    -0.000 C 
ATOM      9  C   UNL     1      31.330 -22.629 -16.519  0.00  0.00    -0.002 C 
ATOM     10  C   UNL     1      35.114 -23.287 -14.478  0.00  0.00    -0.000 C 
ATOM     11  C   UNL     1      31.415 -23.009 -15.192  0.00  0.00    -0.000 C 
ATOM     12  C   UNL     1      35.010 -23.648 -13.102  0.00  0.00    -0.000 C 
ATOM     13  C   UNL     1      32.609 -23.554 -13.223  0.00  0.00    -0.000 C 
ATOM     14  C   UNL     1      33.766 -23.765 -12.497  0.00  0.00    -0.000 C 
ATOM     15  C   UNL     1      36.449 -23.287 -14.971  0.00  0.00    -0.000 C 
ATOM     16  C   UNL     1      36.141 -23.915 -12.310  0.00  0.00    -0.000 C 
ATOM     17  C   UNL     1      37.573 -23.561 -14.179  0.00  0.00    -0.000 C 
ATOM     18  C   UNL     1      37.421 -23.865 -12.841  0.00  0.00    -0.000 C 
ENDROOT
BRANCH   1  19
ATOM     19  O   UNL     1      33.879 -23.277 -19.868  0.00  0.00    -0.379 OA
ATOM     20  H   UNL     1      34.836 -23.367 -20.001  0.00  0.00    +0.211 HD
ENDBRANCH   1  19
BRANCH   2  21
ATOM     21  O   UNL     1      35.877 -21.268 -19.520  0.00  0.00    -0.382 OA
ATOM     22  H   UNL     1      36.548 -20.719 -19.086  0.00  0.00    +0.210 HD
ENDBRANCH   2  21
BRANCH   4  23
ATOM     23  O   UNL     1      31.769 -20.588 -18.652  0.00  0.00    -0.377 OA
ATOM     24  H   UNL     1      31.419 -20.401 -17.766  0.00  0.00    +0.211 HD
ENDBRANCH   4  23
TORSDOF 3
ENDMDL
MODEL 8
REMARK VINA RESULT:      -8.9      3.346      6.171
REMARK  Name = 5287834
REMARK  3 active torsions:
REMARK  status: ('A' for Active; 'I' for Inactive)
REMARK    1  A    between atoms: C_1  and  O_19
REMARK    2  A    between atoms: C_2  and  O_21
REMARK    3  A    between atoms: C_4  and  O_23
REMARK                            x       y       z     vdW  Elec       q    Type
REMARK                         _______ _______ _______ _____ _____    ______ ____
ROOT
ATOM      1  C   UNL     1      29.730 -23.387 -14.242  0.00  0.00    +0.168 C 
ATOM      2  C   UNL     1      30.529 -24.425 -13.468  0.00  0.00    +0.144 C 
ATOM      3  C   UNL     1      32.677 -23.373 -14.445  0.00  0.00    -0.021 C 
ATOM      4  C   UNL     1      30.366 -23.175 -15.611  0.00  0.00    +0.162 C 
ATOM      5  C   UNL     1      31.961 -23.944 -13.233  0.00  0.00    +0.058 C 
ATOM      6  C   UNL     1      31.877 -23.038 -15.576  0.00  0.00    +0.003 C 
ATOM      7  C   UNL     1      34.127 -23.180 -14.451  0.00  0.00    -0.004 C 
ATOM      8  C   UNL     1      34.671 -22.759 -15.702  0.00  0.00    -0.000 C 
ATOM      9  C   UNL     1      32.490 -22.586 -16.742  0.00  0.00    -0.002 C 
ATOM     10  C   UNL     1      35.100 -23.366 -13.351  0.00  0.00    -0.000 C 
ATOM     11  C   UNL     1      33.866 -22.468 -16.806  0.00  0.00    -0.000 C 
ATOM     12  C   UNL     1      36.495 -23.221 -13.609  0.00  0.00    -0.000 C 
ATOM     13  C   UNL     1      36.044 -22.613 -15.893  0.00  0.00    -0.000 C 
ATOM     14  C   UNL     1      36.943 -22.860 -14.873  0.00  0.00    -0.000 C 
ATOM     15  C   UNL     1      34.797 -23.661 -11.992  0.00  0.00    -0.000 C 
ATOM     16  C   UNL     1      37.466 -23.418 -12.612  0.00  0.00    -0.000 C 
ATOM     17  C   UNL     1      35.768 -23.849 -10.999  0.00  0.00    -0.000 C 
ATOM     18  C   UNL     1      37.108 -23.738 -11.311  0.00  0.00    -0.000 C 
ENDROOT
BRANCH   1  19
ATOM     19  O   UNL     1      29.711 -22.141 -13.546  0.00  0.00    -0.379 OA
ATOM     20  H   UNL     1      30.303 -22.189 -12.779  0.00  0.00    +0.211 HD
ENDBRANCH   1  19
BRANCH   2  21
ATOM     21  O   UNL     1      29.893 -24.661 -12.215  0.00  0.00    -0.382 OA
ATOM     22  H   UNL     1      29.049 -24.184 -12.187  0.00  0.00    +0.210 HD
ENDBRANCH   2  21
BRANCH   4  23
ATOM     23  O   UNL     1      30.056 -24.288 -16.450  0.00  0.00    -0.377 OA
ATOM     24  H   UNL     1      30.402 -25.101 -16.050  0.00  0.00    +0.211 HD
ENDBRANCH   4  23
TORSDOF 3
ENDMDL
MODEL 9
REMARK VINA RESULT:      -8.9     12.744     15.470
REMARK  Name = 5287834
REMARK  3 active torsions:
REMARK  status: ('A' for Active; 'I' for Inactive)
REMARK    1  A    between atoms: C_1  and  O_19
REMARK    2  A    between atoms: C_2  and  O_21
REMARK    3  A    between atoms: C_4  and  O_23
REMARK                            x       y       z     vdW  Elec       q    Type
REMARK                         _______ _______ _______ _____ _____    ______ ____
ROOT
ATOM      1  C   UNL     1      31.284  -6.464 -22.649  0.00  0.00    +0.168 C 
ATOM      2  C   UNL     1      32.462  -7.132 -23.342  0.00  0.00    +0.144 C 
ATOM      3  C   UNL     1      31.917  -9.278 -22.013  0.00  0.00    -0.021 C 
ATOM      4  C   UNL     1      31.234  -6.912 -21.192  0.00  0.00    +0.162 C 
ATOM      5  C   UNL     1      32.302  -8.652 -23.342  0.00  0.00    +0.058 C 
ATOM      6  C   UNL     1      31.430  -8.404 -20.998  0.00  0.00    +0.003 C 
ATOM      7  C   UNL     1      32.046 -10.717 -21.784  0.00  0.00    -0.004 C 
ATOM      8  C   UNL     1      31.769 -11.140 -20.448  0.00  0.00    -0.000 C 
ATOM      9  C   UNL     1      31.137  -8.913 -19.735  0.00  0.00    -0.002 C 
ATOM     10  C   UNL     1      32.426 -11.786 -22.736  0.00  0.00    -0.000 C 
ATOM     11  C   UNL     1      31.323 -10.255 -19.463  0.00  0.00    -0.000 C 
ATOM     12  C   UNL     1      32.592 -13.123 -22.268  0.00  0.00    -0.000 C 
ATOM     13  C   UNL     1      31.929 -12.466 -20.050  0.00  0.00    -0.000 C 
ATOM     14  C   UNL     1      32.353 -13.438 -20.937  0.00  0.00    -0.000 C 
ATOM     15  C   UNL     1      32.630 -11.639 -24.137  0.00  0.00    -0.000 C 
ATOM     16  C   UNL     1      32.983 -14.171 -23.119  0.00  0.00    -0.000 C 
ATOM     17  C   UNL     1      33.013 -12.688 -24.983  0.00  0.00    -0.000 C 
ATOM     18  C   UNL     1      33.202 -13.957 -24.472  0.00  0.00    -0.000 C 
ENDROOT
BRANCH   1  19
ATOM     19  O   UNL     1      30.056  -6.819 -23.282  0.00  0.00    -0.379 OA
ATOM     20  H   UNL     1      30.177  -7.639 -23.786  0.00  0.00    +0.211 HD
ENDBRANCH   1  19
BRANCH   2  21
ATOM     21  O   UNL     1      32.538  -6.660 -24.685  0.00  0.00    -0.382 OA
ATOM     22  H   UNL     1      33.009  -5.813 -24.703  0.00  0.00    +0.210 HD
ENDBRANCH   2  21
BRANCH   4  23
ATOM     23  O   UNL     1      32.263  -6.245 -20.460  0.00  0.00    -0.377 OA
ATOM     24  H   UNL     1      32.895  -6.899 -20.122  0.00  0.00    +0.211 HD
ENDBRANCH   4  23
TORSDOF 3
ENDMDL
