MODEL 1
REMARK VINA RESULT:     -13.2      0.000      0.000
REMARK  Name = 176407
REMARK  5 active torsions:
REMARK  status: ('A' for Active; 'I' for Inactive)
REMARK    1  A    between atoms: N_1  and  C_20
REMARK    2  A    between atoms: C_11  and  C_16
REMARK    3  A    between atoms: C_20  and  C_21
REMARK    4  A    between atoms: C_21  and  C_22
REMARK    5  A    between atoms: C_27  and  O_28
REMARK                            x       y       z     vdW  Elec       q    Type
REMARK                         _______ _______ _______ _____ _____    ______ ____
ROOT
ATOM      1  N   UNL     1      35.302 -17.361 -22.473  0.00  0.00    -0.258 N 
ATOM      2  N   UNL     1      33.150 -14.071 -23.181  0.00  0.00    -0.059 N 
ATOM      3  N   UNL     1      34.286 -15.443 -21.653  0.00  0.00    -0.245 NA
ATOM      4  N   UNL     1      34.150 -15.958 -23.984  0.00  0.00    -0.294 NA
ATOM      5  N   UNL     1      32.439 -12.937 -23.266  0.00  0.00    -0.090 NA
ATOM      6  N   UNL     1      33.116 -13.364 -21.121  0.00  0.00    -0.267 NA
ATOM      7  N   UNL     1      32.988 -14.537 -25.486  0.00  0.00    -0.318 N 
ATOM      8  C   UNL     1      34.564 -16.219 -22.678  0.00  0.00    +0.213 C 
ATOM      9  C   UNL     1      33.556 -14.329 -21.903  0.00  0.00    +0.251 C 
ATOM     10  C   UNL     1      33.448 -14.896 -24.248  0.00  0.00    +0.282 C 
ATOM     11  C   UNL     1      32.446 -12.546 -21.989  0.00  0.00    +0.153 C 
ATOM     12  H   UNL     1      35.508 -17.940 -23.243  0.00  0.00    +0.160 HD
ATOM     13  H   UNL     1      32.461 -13.712 -25.596  0.00  0.00    +0.146 HD
ATOM     14  H   UNL     1      33.184 -15.103 -26.267  0.00  0.00    +0.146 HD
ENDROOT
BRANCH  11  16
ATOM     15  O   UNL     1      31.403 -10.300 -22.372  0.00  0.00    -0.439 OA
ATOM     16  C   UNL     1      31.777 -11.310 -21.544  0.00  0.00    +0.221 C 
ATOM     17  C   UNL     1      31.444 -11.015 -20.242  0.00  0.00    +0.052 C 
ATOM     18  C   UNL     1      30.827  -9.742 -20.273  0.00  0.00    +0.045 C 
ATOM     19  C   UNL     1      30.826  -9.350 -21.591  0.00  0.00    +0.181 C 
ENDBRANCH  11  16
BRANCH   1  20
ATOM     20  C   UNL     1      35.782 -17.732 -21.180  0.00  0.00    +0.103 C 
BRANCH  20  21
ATOM     21  C   UNL     1      36.030 -19.238 -21.102  0.00  0.00    +0.048 C 
BRANCH  21  22
ATOM     22  C   UNL     1      34.955 -19.977 -20.344  0.00  0.00    -0.020 C 
ATOM     23  C   UNL     1      35.317 -20.945 -19.421  0.00  0.00    -0.001 C 
ATOM     24  C   UNL     1      33.624 -19.675 -20.586  0.00  0.00    -0.001 C 
ATOM     25  C   UNL     1      34.323 -21.629 -18.722  0.00  0.00    +0.036 C 
ATOM     26  C   UNL     1      32.630 -20.358 -19.887  0.00  0.00    +0.036 C 
ATOM     27  C   UNL     1      32.979 -21.336 -18.955  0.00  0.00    +0.134 C 
BRANCH  27  28
ATOM     28  O   UNL     1      32.010 -22.003 -18.271  0.00  0.00    -0.506 OA
ATOM     29  H   UNL     1      31.149 -21.639 -18.203  0.00  0.00    +0.292 HD
ENDBRANCH  27  28
ENDBRANCH  21  22
ENDBRANCH  20  21
ENDBRANCH   1  20
TORSDOF 5
ENDMDL
MODEL 2
REMARK VINA RESULT:     -12.5      4.689     10.091
REMARK  Name = 176407
REMARK  5 active torsions:
REMARK  status: ('A' for Active; 'I' for Inactive)
REMARK    1  A    between atoms: N_1  and  C_20
REMARK    2  A    between atoms: C_11  and  C_16
REMARK    3  A    between atoms: C_20  and  C_21
REMARK    4  A    between atoms: C_21  and  C_22
REMARK    5  A    between atoms: C_27  and  O_28
REMARK                            x       y       z     vdW  Elec       q    Type
REMARK                         _______ _______ _______ _____ _____    ______ ____
ROOT
ATOM      1  N   UNL     1      34.482 -19.799 -20.751  0.00  0.00    -0.258 N 
ATOM      2  N   UNL     1      34.615 -22.049 -17.453  0.00  0.00    -0.059 N 
ATOM      3  N   UNL     1      35.687 -20.566 -18.922  0.00  0.00    -0.245 NA
ATOM      4  N   UNL     1      33.433 -21.293 -19.252  0.00  0.00    -0.294 NA
ATOM      5  N   UNL     1      34.807 -22.754 -16.328  0.00  0.00    -0.090 NA
ATOM      6  N   UNL     1      36.667 -21.555 -16.913  0.00  0.00    -0.267 NA
ATOM      7  N   UNL     1      32.397 -22.794 -17.737  0.00  0.00    -0.318 N 
ATOM      8  C   UNL     1      34.565 -20.561 -19.610  0.00  0.00    +0.213 C 
ATOM      9  C   UNL     1      35.723 -21.332 -17.805  0.00  0.00    +0.251 C 
ATOM     10  C   UNL     1      33.444 -22.035 -18.185  0.00  0.00    +0.282 C 
ATOM     11  C   UNL     1      36.067 -22.421 -16.041  0.00  0.00    +0.153 C 
ATOM     12  H   UNL     1      33.641 -19.798 -21.263  0.00  0.00    +0.160 HD
ATOM     13  H   UNL     1      32.492 -23.328 -16.914  0.00  0.00    +0.146 HD
ATOM     14  H   UNL     1      31.548 -22.806 -18.235  0.00  0.00    +0.146 HD
ENDROOT
BRANCH  11  16
ATOM     15  O   UNL     1      37.984 -23.553 -14.891  0.00  0.00    -0.439 OA
ATOM     16  C   UNL     1      36.767 -22.951 -14.857  0.00  0.00    +0.221 C 
ATOM     17  C   UNL     1      36.285 -22.911 -13.568  0.00  0.00    +0.052 C 
ATOM     18  C   UNL     1      37.270 -23.527 -12.760  0.00  0.00    +0.045 C 
ATOM     19  C   UNL     1      38.283 -23.900 -13.612  0.00  0.00    +0.181 C 
ENDBRANCH  11  16
BRANCH   1  20
ATOM     20  C   UNL     1      35.576 -19.007 -21.216  0.00  0.00    +0.103 C 
BRANCH  20  21
ATOM     21  C   UNL     1      35.286 -17.517 -21.040  0.00  0.00    +0.048 C 
BRANCH  21  22
ATOM     22  C   UNL     1      34.672 -16.884 -22.264  0.00  0.00    -0.020 C 
ATOM     23  C   UNL     1      34.510 -15.509 -22.309  0.00  0.00    -0.001 C 
ATOM     24  C   UNL     1      34.281 -17.690 -23.321  0.00  0.00    -0.001 C 
ATOM     25  C   UNL     1      33.942 -14.924 -23.440  0.00  0.00    +0.036 C 
ATOM     26  C   UNL     1      33.713 -17.106 -24.453  0.00  0.00    +0.036 C 
ATOM     27  C   UNL     1      33.543 -15.722 -24.513  0.00  0.00    +0.134 C 
BRANCH  27  28
ATOM     28  O   UNL     1      32.990 -15.150 -25.617  0.00  0.00    -0.506 OA
ATOM     29  H   UNL     1      33.495 -14.565 -26.145  0.00  0.00    +0.292 HD
ENDBRANCH  27  28
ENDBRANCH  21  22
ENDBRANCH  20  21
ENDBRANCH   1  20
TORSDOF 5
ENDMDL
MODEL 3
REMARK VINA RESULT:     -12.0      5.175      9.847
REMARK  Name = 176407
REMARK  5 active torsions:
REMARK  status: ('A' for Active; 'I' for Inactive)
REMARK    1  A    between atoms: N_1  and  C_20
REMARK    2  A    between atoms: C_11  and  C_16
REMARK    3  A    between atoms: C_20  and  C_21
REMARK    4  A    between atoms: C_21  and  C_22
REMARK    5  A    between atoms: C_27  and  O_28
REMARK                            x       y       z     vdW  Elec       q    Type
REMARK                         _______ _______ _______ _____ _____    ______ ____
ROOT
ATOM      1  N   UNL     1      35.652 -20.663 -19.523  0.00  0.00    -0.258 N 
ATOM      2  N   UNL     1      33.587 -22.510 -16.645  0.00  0.00    -0.059 N 
ATOM      3  N   UNL     1      33.604 -21.381 -18.702  0.00  0.00    -0.245 NA
ATOM      4  N   UNL     1      35.600 -21.803 -17.456  0.00  0.00    -0.294 NA
ATOM      5  N   UNL     1      32.766 -23.101 -15.764  0.00  0.00    -0.090 NA
ATOM      6  N   UNL     1      31.628 -22.263 -17.565  0.00  0.00    -0.267 NA
ATOM      7  N   UNL     1      35.527 -22.949 -15.380  0.00  0.00    -0.318 N 
ATOM      8  C   UNL     1      34.908 -21.292 -18.553  0.00  0.00    +0.213 C 
ATOM      9  C   UNL     1      32.912 -22.009 -17.721  0.00  0.00    +0.251 C 
ATOM     10  C   UNL     1      34.957 -22.409 -16.501  0.00  0.00    +0.282 C 
ATOM     11  C   UNL     1      31.589 -22.923 -16.368  0.00  0.00    +0.153 C 
ATOM     12  H   UNL     1      36.627 -20.598 -19.408  0.00  0.00    +0.160 HD
ATOM     13  H   UNL     1      34.963 -23.393 -14.706  0.00  0.00    +0.146 HD
ATOM     14  H   UNL     1      36.501 -22.895 -15.248  0.00  0.00    +0.146 HD
ENDROOT
BRANCH  11  16
ATOM     15  O   UNL     1      29.094 -22.960 -16.134  0.00  0.00    -0.439 OA
ATOM     16  C   UNL     1      30.327 -23.410 -15.782  0.00  0.00    +0.221 C 
ATOM     17  C   UNL     1      30.228 -24.376 -14.807  0.00  0.00    +0.052 C 
ATOM     18  C   UNL     1      28.846 -24.529 -14.543  0.00  0.00    +0.045 C 
ATOM     19  C   UNL     1      28.199 -23.646 -15.376  0.00  0.00    +0.181 C 
ENDBRANCH  11  16
BRANCH   1  20
ATOM     20  C   UNL     1      35.054 -20.101 -20.692  0.00  0.00    +0.103 C 
BRANCH  20  21
ATOM     21  C   UNL     1      35.646 -18.727 -21.002  0.00  0.00    +0.048 C 
BRANCH  21  22
ATOM     22  C   UNL     1      34.915 -18.002 -22.105  0.00  0.00    -0.020 C 
ATOM     23  C   UNL     1      34.228 -18.734 -23.061  0.00  0.00    -0.001 C 
ATOM     24  C   UNL     1      34.943 -16.617 -22.142  0.00  0.00    -0.001 C 
ATOM     25  C   UNL     1      33.553 -18.064 -24.080  0.00  0.00    +0.036 C 
ATOM     26  C   UNL     1      34.268 -15.946 -23.162  0.00  0.00    +0.036 C 
ATOM     27  C   UNL     1      33.573 -16.670 -24.131  0.00  0.00    +0.134 C 
BRANCH  27  28
ATOM     28  O   UNL     1      32.913 -16.016 -25.126  0.00  0.00    -0.506 OA
ATOM     29  H   UNL     1      33.384 -15.463 -25.716  0.00  0.00    +0.292 HD
ENDBRANCH  27  28
ENDBRANCH  21  22
ENDBRANCH  20  21
ENDBRANCH   1  20
TORSDOF 5
ENDMDL
MODEL 4
REMARK VINA RESULT:     -12.0      6.651     11.448
REMARK  Name = 176407
REMARK  5 active torsions:
REMARK  status: ('A' for Active; 'I' for Inactive)
REMARK    1  A    between atoms: N_1  and  C_20
REMARK    2  A    between atoms: C_11  and  C_16
REMARK    3  A    between atoms: C_20  and  C_21
REMARK    4  A    between atoms: C_21  and  C_22
REMARK    5  A    between atoms: C_27  and  O_28
REMARK                            x       y       z     vdW  Elec       q    Type
REMARK                         _______ _______ _______ _____ _____    ______ ____
ROOT
ATOM      1  N   UNL     1      32.017 -21.820 -18.442  0.00  0.00    -0.258 N 
ATOM      2  N   UNL     1      33.200 -23.384 -14.961  0.00  0.00    -0.059 N 
ATOM      3  N   UNL     1      33.724 -22.711 -17.147  0.00  0.00    -0.245 NA
ATOM      4  N   UNL     1      31.523 -22.506 -16.237  0.00  0.00    -0.294 NA
ATOM      5  N   UNL     1      33.739 -23.920 -13.856  0.00  0.00    -0.090 NA
ATOM      6  N   UNL     1      35.280 -23.683 -15.532  0.00  0.00    -0.267 NA
ATOM      7  N   UNL     1      31.046 -23.203 -14.020  0.00  0.00    -0.318 N 
ATOM      8  C   UNL     1      32.461 -22.361 -17.258  0.00  0.00    +0.213 C 
ATOM      9  C   UNL     1      34.116 -23.240 -15.963  0.00  0.00    +0.251 C 
ATOM     10  C   UNL     1      31.875 -23.013 -15.091  0.00  0.00    +0.282 C 
ATOM     11  C   UNL     1      35.003 -24.083 -14.254  0.00  0.00    +0.153 C 
ATOM     12  H   UNL     1      31.071 -21.560 -18.521  0.00  0.00    +0.160 HD
ATOM     13  H   UNL     1      31.399 -23.593 -13.187  0.00  0.00    +0.146 HD
ATOM     14  H   UNL     1      30.097 -22.948 -14.080  0.00  0.00    +0.146 HD
ENDROOT
BRANCH  11  16
ATOM     15  O   UNL     1      35.811 -25.056 -12.091  0.00  0.00    -0.439 OA
ATOM     16  C   UNL     1      36.033 -24.658 -13.371  0.00  0.00    +0.221 C 
ATOM     17  C   UNL     1      37.348 -24.865 -13.719  0.00  0.00    +0.052 C 
ATOM     18  C   UNL     1      37.973 -25.426 -12.580  0.00  0.00    +0.045 C 
ATOM     19  C   UNL     1      36.996 -25.522 -11.617  0.00  0.00    +0.181 C 
ENDBRANCH  11  16
BRANCH   1  20
ATOM     20  C   UNL     1      32.885 -21.622 -19.558  0.00  0.00    +0.103 C 
BRANCH  20  21
ATOM     21  C   UNL     1      32.702 -20.226 -20.152  0.00  0.00    +0.048 C 
BRANCH  21  22
ATOM     22  C   UNL     1      33.991 -19.622 -20.653  0.00  0.00    -0.020 C 
ATOM     23  C   UNL     1      35.180 -19.924 -20.006  0.00  0.00    -0.001 C 
ATOM     24  C   UNL     1      33.963 -18.776 -21.750  0.00  0.00    -0.001 C 
ATOM     25  C   UNL     1      36.370 -19.365 -20.469  0.00  0.00    +0.036 C 
ATOM     26  C   UNL     1      35.154 -18.217 -22.213  0.00  0.00    +0.036 C 
ATOM     27  C   UNL     1      36.358 -18.512 -21.573  0.00  0.00    +0.134 C 
BRANCH  27  28
ATOM     28  O   UNL     1      37.521 -17.967 -22.024  0.00  0.00    -0.506 OA
ATOM     29  H   UNL     1      37.668 -17.046 -21.946  0.00  0.00    +0.292 HD
ENDBRANCH  27  28
ENDBRANCH  21  22
ENDBRANCH  20  21
ENDBRANCH   1  20
TORSDOF 5
ENDMDL
MODEL 5
REMARK VINA RESULT:     -11.4      5.599     10.714
REMARK  Name = 176407
REMARK  5 active torsions:
REMARK  status: ('A' for Active; 'I' for Inactive)
REMARK    1  A    between atoms: N_1  and  C_20
REMARK    2  A    between atoms: C_11  and  C_16
REMARK    3  A    between atoms: C_20  and  C_21
REMARK    4  A    between atoms: C_21  and  C_22
REMARK    5  A    between atoms: C_27  and  O_28
REMARK                            x       y       z     vdW  Elec       q    Type
REMARK                         _______ _______ _______ _____ _____    ______ ____
ROOT
ATOM      1  N   UNL     1      33.220 -21.039 -19.833  0.00  0.00    -0.258 N 
ATOM      2  N   UNL     1      33.096 -22.787 -16.243  0.00  0.00    -0.059 N 
ATOM      3  N   UNL     1      34.364 -21.937 -18.025  0.00  0.00    -0.245 NA
ATOM      4  N   UNL     1      31.973 -21.903 -18.022  0.00  0.00    -0.294 NA
ATOM      5  N   UNL     1      33.211 -23.373 -15.042  0.00  0.00    -0.090 NA
ATOM      6  N   UNL     1      35.253 -22.944 -15.983  0.00  0.00    -0.267 NA
ATOM      7  N   UNL     1      30.739 -22.777 -16.195  0.00  0.00    -0.318 N 
ATOM      8  C   UNL     1      33.217 -21.641 -18.596  0.00  0.00    +0.213 C 
ATOM      9  C   UNL     1      34.313 -22.529 -16.807  0.00  0.00    +0.251 C 
ATOM     10  C   UNL     1      31.899 -22.472 -16.855  0.00  0.00    +0.282 C 
ATOM     11  C   UNL     1      34.539 -23.447 -14.930  0.00  0.00    +0.153 C 
ATOM     12  H   UNL     1      32.359 -20.820 -20.258  0.00  0.00    +0.160 HD
ATOM     13  H   UNL     1      30.775 -23.208 -15.310  0.00  0.00    +0.146 HD
ATOM     14  H   UNL     1      29.869 -22.565 -16.603  0.00  0.00    +0.146 HD
ENDROOT
BRANCH  11  16
ATOM     15  O   UNL     1      36.165 -24.981 -13.798  0.00  0.00    -0.439 OA
ATOM     16  C   UNL     1      35.194 -24.032 -13.746  0.00  0.00    +0.221 C 
ATOM     17  C   UNL     1      34.911 -23.701 -12.441  0.00  0.00    +0.052 C 
ATOM     18  C   UNL     1      35.764 -24.498 -11.640  0.00  0.00    +0.045 C 
ATOM     19  C   UNL     1      36.506 -25.259 -12.512  0.00  0.00    +0.181 C 
ENDBRANCH  11  16
BRANCH   1  20
ATOM     20  C   UNL     1      34.431 -20.722 -20.519  0.00  0.00    +0.103 C 
BRANCH  20  21
ATOM     21  C   UNL     1      34.790 -19.247 -20.339  0.00  0.00    +0.048 C 
BRANCH  21  22
ATOM     22  C   UNL     1      34.562 -18.426 -21.584  0.00  0.00    -0.020 C 
ATOM     23  C   UNL     1      34.017 -19.030 -22.706  0.00  0.00    -0.001 C 
ATOM     24  C   UNL     1      34.902 -17.082 -21.583  0.00  0.00    -0.001 C 
ATOM     25  C   UNL     1      33.807 -18.271 -23.857  0.00  0.00    +0.036 C 
ATOM     26  C   UNL     1      34.692 -16.323 -22.733  0.00  0.00    +0.036 C 
ATOM     27  C   UNL     1      34.144 -16.917 -23.871  0.00  0.00    +0.134 C 
BRANCH  27  28
ATOM     28  O   UNL     1      33.938 -16.177 -24.994  0.00  0.00    -0.506 OA
ATOM     29  H   UNL     1      33.139 -15.700 -25.101  0.00  0.00    +0.292 HD
ENDBRANCH  27  28
ENDBRANCH  21  22
ENDBRANCH  20  21
ENDBRANCH   1  20
TORSDOF 5
ENDMDL
MODEL 6
REMARK VINA RESULT:     -11.3      5.792      8.726
REMARK  Name = 176407
REMARK  5 active torsions:
REMARK  status: ('A' for Active; 'I' for Inactive)
REMARK    1  A    between atoms: N_1  and  C_20
REMARK    2  A    between atoms: C_11  and  C_16
REMARK    3  A    between atoms: C_20  and  C_21
REMARK    4  A    between atoms: C_21  and  C_22
REMARK    5  A    between atoms: C_27  and  O_28
REMARK                            x       y       z     vdW  Elec       q    Type
REMARK                         _______ _______ _______ _____ _____    ______ ____
ROOT
ATOM      1  N   UNL     1      36.045 -22.987 -15.729  0.00  0.00    -0.258 N 
ATOM      2  N   UNL     1      34.096 -21.230 -18.741  0.00  0.00    -0.059 N 
ATOM      3  N   UNL     1      36.094 -21.558 -17.556  0.00  0.00    -0.245 NA
ATOM      4  N   UNL     1      34.050 -22.636 -16.944  0.00  0.00    -0.294 NA
ATOM      5  N   UNL     1      33.577 -20.572 -19.788  0.00  0.00    -0.090 NA
ATOM      6  N   UNL     1      35.805 -20.125 -19.515  0.00  0.00    -0.267 NA
ATOM      7  N   UNL     1      32.057 -22.269 -18.175  0.00  0.00    -0.318 N 
ATOM      8  C   UNL     1      35.408 -22.364 -16.777  0.00  0.00    +0.213 C 
ATOM      9  C   UNL     1      35.425 -20.966 -18.575  0.00  0.00    +0.251 C 
ATOM     10  C   UNL     1      33.386 -22.079 -17.914  0.00  0.00    +0.282 C 
ATOM     11  C   UNL     1      34.655 -19.915 -20.224  0.00  0.00    +0.153 C 
ATOM     12  H   UNL     1      35.527 -23.590 -15.148  0.00  0.00    +0.160 HD
ATOM     13  H   UNL     1      31.633 -21.806 -18.935  0.00  0.00    +0.146 HD
ATOM     14  H   UNL     1      31.523 -22.868 -17.606  0.00  0.00    +0.146 HD
ENDROOT
BRANCH  11  16
ATOM     15  O   UNL     1      33.848 -19.247 -22.500  0.00  0.00    -0.439 OA
ATOM     16  C   UNL     1      34.607 -19.023 -21.396  0.00  0.00    +0.221 C 
ATOM     17  C   UNL     1      35.319 -17.853 -21.530  0.00  0.00    +0.052 C 
ATOM     18  C   UNL     1      34.975 -17.326 -22.798  0.00  0.00    +0.045 C 
ATOM     19  C   UNL     1      34.078 -18.210 -23.348  0.00  0.00    +0.181 C 
ENDBRANCH  11  16
BRANCH   1  20
ATOM     20  C   UNL     1      37.433 -22.788 -15.459  0.00  0.00    +0.103 C 
BRANCH  20  21
ATOM     21  C   UNL     1      37.959 -23.848 -14.493  0.00  0.00    +0.048 C 
BRANCH  21  22
ATOM     22  C   UNL     1      37.223 -23.867 -13.176  0.00  0.00    -0.020 C 
ATOM     23  C   UNL     1      36.777 -25.075 -12.664  0.00  0.00    -0.001 C 
ATOM     24  C   UNL     1      37.007 -22.676 -12.502  0.00  0.00    -0.001 C 
ATOM     25  C   UNL     1      36.096 -25.092 -11.447  0.00  0.00    +0.036 C 
ATOM     26  C   UNL     1      36.327 -22.692 -11.285  0.00  0.00    +0.036 C 
ATOM     27  C   UNL     1      35.871 -23.901 -10.757  0.00  0.00    +0.134 C 
BRANCH  27  28
ATOM     28  O   UNL     1      35.207 -23.919  -9.568  0.00  0.00    -0.506 OA
ATOM     29  H   UNL     1      35.033 -23.117  -9.117  0.00  0.00    +0.292 HD
ENDBRANCH  27  28
ENDBRANCH  21  22
ENDBRANCH  20  21
ENDBRANCH   1  20
TORSDOF 5
ENDMDL
MODEL 7
REMARK VINA RESULT:     -11.1      1.828      8.405
REMARK  Name = 176407
REMARK  5 active torsions:
REMARK  status: ('A' for Active; 'I' for Inactive)
REMARK    1  A    between atoms: N_1  and  C_20
REMARK    2  A    between atoms: C_11  and  C_16
REMARK    3  A    between atoms: C_20  and  C_21
REMARK    4  A    between atoms: C_21  and  C_22
REMARK    5  A    between atoms: C_27  and  O_28
REMARK                            x       y       z     vdW  Elec       q    Type
REMARK                         _______ _______ _______ _____ _____    ______ ____
ROOT
ATOM      1  N   UNL     1      33.618 -14.333 -24.207  0.00  0.00    -0.258 N 
ATOM      2  N   UNL     1      34.073 -18.083 -22.909  0.00  0.00    -0.059 N 
ATOM      3  N   UNL     1      34.185 -15.778 -22.483  0.00  0.00    -0.245 NA
ATOM      4  N   UNL     1      33.516 -16.659 -24.603  0.00  0.00    -0.294 NA
ATOM      5  N   UNL     1      34.268 -19.280 -22.336  0.00  0.00    -0.090 NA
ATOM      6  N   UNL     1      34.711 -17.559 -20.894  0.00  0.00    -0.267 NA
ATOM      7  N   UNL     1      33.420 -18.998 -24.981  0.00  0.00    -0.318 N 
ATOM      8  C   UNL     1      33.785 -15.609 -23.725  0.00  0.00    +0.213 C 
ATOM      9  C   UNL     1      34.336 -17.053 -22.051  0.00  0.00    +0.251 C 
ATOM     10  C   UNL     1      33.654 -17.891 -24.211  0.00  0.00    +0.282 C 
ATOM     11  C   UNL     1      34.655 -18.907 -21.114  0.00  0.00    +0.153 C 
ATOM     12  H   UNL     1      33.319 -14.211 -25.137  0.00  0.00    +0.160 HD
ATOM     13  H   UNL     1      33.550 -19.898 -24.601  0.00  0.00    +0.146 HD
ATOM     14  H   UNL     1      33.121 -18.896 -25.913  0.00  0.00    +0.146 HD
ENDROOT
BRANCH  11  16
ATOM     15  O   UNL     1      36.163 -19.886 -19.369  0.00  0.00    -0.439 OA
ATOM     16  C   UNL     1      34.999 -19.888 -20.068  0.00  0.00    +0.221 C 
ATOM     17  C   UNL     1      34.195 -20.929 -19.665  0.00  0.00    +0.052 C 
ATOM     18  C   UNL     1      34.912 -21.610 -18.652  0.00  0.00    +0.045 C 
ATOM     19  C   UNL     1      36.103 -20.937 -18.509  0.00  0.00    +0.181 C 
ENDBRANCH  11  16
BRANCH   1  20
ATOM     20  C   UNL     1      33.863 -13.179 -23.402  0.00  0.00    +0.103 C 
BRANCH  20  21
ATOM     21  C   UNL     1      32.969 -12.016 -23.828  0.00  0.00    +0.048 C 
BRANCH  21  22
ATOM     22  C   UNL     1      32.293 -11.331 -22.666  0.00  0.00    -0.020 C 
ATOM     23  C   UNL     1      31.946  -9.993 -22.773  0.00  0.00    -0.001 C 
ATOM     24  C   UNL     1      32.031 -12.052 -21.511  0.00  0.00    -0.001 C 
ATOM     25  C   UNL     1      31.323  -9.360 -21.698  0.00  0.00    +0.036 C 
ATOM     26  C   UNL     1      31.407 -11.419 -20.437  0.00  0.00    +0.036 C 
ATOM     27  C   UNL     1      31.053 -10.073 -20.530  0.00  0.00    +0.134 C 
BRANCH  27  28
ATOM     28  O   UNL     1      30.443  -9.454 -19.482  0.00  0.00    -0.506 OA
ATOM     29  H   UNL     1      30.578  -9.768 -18.610  0.00  0.00    +0.292 HD
ENDBRANCH  27  28
ENDBRANCH  21  22
ENDBRANCH  20  21
ENDBRANCH   1  20
TORSDOF 5
ENDMDL
MODEL 8
REMARK VINA RESULT:     -10.9      2.357      9.539
REMARK  Name = 176407
REMARK  5 active torsions:
REMARK  status: ('A' for Active; 'I' for Inactive)
REMARK    1  A    between atoms: N_1  and  C_20
REMARK    2  A    between atoms: C_11  and  C_16
REMARK    3  A    between atoms: C_20  and  C_21
REMARK    4  A    between atoms: C_21  and  C_22
REMARK    5  A    between atoms: C_27  and  O_28
REMARK                            x       y       z     vdW  Elec       q    Type
REMARK                         _______ _______ _______ _____ _____    ______ ____
ROOT
ATOM      1  N   UNL     1      32.246 -11.358 -22.386  0.00  0.00    -0.258 N 
ATOM      2  N   UNL     1      33.708 -15.037 -22.920  0.00  0.00    -0.059 N 
ATOM      3  N   UNL     1      33.152 -13.284 -21.462  0.00  0.00    -0.245 NA
ATOM      4  N   UNL     1      32.816 -13.141 -23.826  0.00  0.00    -0.294 NA
ATOM      5  N   UNL     1      34.218 -16.277 -22.945  0.00  0.00    -0.090 NA
ATOM      6  N   UNL     1      34.118 -15.435 -20.819  0.00  0.00    -0.267 NA
ATOM      7  N   UNL     1      33.397 -14.943 -25.255  0.00  0.00    -0.318 N 
ATOM      8  C   UNL     1      32.755 -12.627 -22.530  0.00  0.00    +0.213 C 
ATOM      9  C   UNL     1      33.646 -14.531 -21.653  0.00  0.00    +0.251 C 
ATOM     10  C   UNL     1      33.287 -14.335 -24.034  0.00  0.00    +0.282 C 
ATOM     11  C   UNL     1      34.452 -16.472 -21.645  0.00  0.00    +0.153 C 
ATOM     12  H   UNL     1      31.950 -10.869 -23.188  0.00  0.00    +0.160 HD
ATOM     13  H   UNL     1      33.766 -15.854 -25.321  0.00  0.00    +0.146 HD
ATOM     14  H   UNL     1      33.105 -14.470 -26.068  0.00  0.00    +0.146 HD
ENDROOT
BRANCH  11  16
ATOM     15  O   UNL     1      36.311 -17.860 -20.699  0.00  0.00    -0.439 OA
ATOM     16  C   UNL     1      35.031 -17.727 -21.133  0.00  0.00    +0.221 C 
ATOM     17  C   UNL     1      34.360 -18.924 -21.029  0.00  0.00    +0.052 C 
ATOM     18  C   UNL     1      35.288 -19.851 -20.497  0.00  0.00    +0.045 C 
ATOM     19  C   UNL     1      36.460 -19.155 -20.314  0.00  0.00    +0.181 C 
ENDBRANCH  11  16
BRANCH   1  20
ATOM     20  C   UNL     1      32.133 -10.727 -21.110  0.00  0.00    +0.103 C 
BRANCH  20  21
ATOM     21  C   UNL     1      30.865  -9.877 -21.031  0.00  0.00    +0.048 C 
BRANCH  21  22
ATOM     22  C   UNL     1      31.146  -8.395 -21.011  0.00  0.00    -0.020 C 
ATOM     23  C   UNL     1      30.950  -7.650 -22.164  0.00  0.00    -0.001 C 
ATOM     24  C   UNL     1      31.595  -7.805 -19.840  0.00  0.00    -0.001 C 
ATOM     25  C   UNL     1      31.211  -6.280 -22.145  0.00  0.00    +0.036 C 
ATOM     26  C   UNL     1      31.855  -6.435 -19.821  0.00  0.00    +0.036 C 
ATOM     27  C   UNL     1      31.663  -5.672 -20.974  0.00  0.00    +0.134 C 
BRANCH  27  28
ATOM     28  O   UNL     1      31.916  -4.335 -20.956  0.00  0.00    -0.506 OA
ATOM     29  H   UNL     1      31.673  -3.802 -21.687  0.00  0.00    +0.292 HD
ENDBRANCH  27  28
ENDBRANCH  21  22
ENDBRANCH  20  21
ENDBRANCH   1  20
TORSDOF 5
ENDMDL
MODEL 9
REMARK VINA RESULT:     -10.7      2.967      4.674
REMARK  Name = 176407
REMARK  5 active torsions:
REMARK  status: ('A' for Active; 'I' for Inactive)
REMARK    1  A    between atoms: N_1  and  C_20
REMARK    2  A    between atoms: C_11  and  C_16
REMARK    3  A    between atoms: C_20  and  C_21
REMARK    4  A    between atoms: C_21  and  C_22
REMARK    5  A    between atoms: C_27  and  O_28
REMARK                            x       y       z     vdW  Elec       q    Type
REMARK                         _______ _______ _______ _____ _____    ______ ____
ROOT
ATOM      1  N   UNL     1      33.052 -14.077 -23.000  0.00  0.00    -0.258 N 
ATOM      2  N   UNL     1      31.986 -10.261 -22.489  0.00  0.00    -0.059 N 
ATOM      3  N   UNL     1      33.485 -11.830 -23.383  0.00  0.00    -0.245 NA
ATOM      4  N   UNL     1      31.563 -12.473 -22.114  0.00  0.00    -0.294 NA
ATOM      5  N   UNL     1      31.754  -8.943 -22.401  0.00  0.00    -0.090 NA
ATOM      6  N   UNL     1      33.648  -9.401 -23.602  0.00  0.00    -0.267 NA
ATOM      7  N   UNL     1      30.080 -10.846 -21.231  0.00  0.00    -0.318 N 
ATOM      8  C   UNL     1      32.717 -12.752 -22.845  0.00  0.00    +0.213 C 
ATOM      9  C   UNL     1      33.115 -10.539 -23.205  0.00  0.00    +0.251 C 
ATOM     10  C   UNL     1      31.189 -11.241 -21.928  0.00  0.00    +0.282 C 
ATOM     11  C   UNL     1      32.792  -8.465 -23.092  0.00  0.00    +0.153 C 
ATOM     12  H   UNL     1      32.475 -14.765 -22.596  0.00  0.00    +0.160 HD
ATOM     13  H   UNL     1      29.870  -9.887 -21.141  0.00  0.00    +0.146 HD
ATOM     14  H   UNL     1      29.490 -11.519 -20.820  0.00  0.00    +0.146 HD
ENDROOT
BRANCH  11  16
ATOM     15  O   UNL     1      32.229  -6.050 -22.734  0.00  0.00    -0.439 OA
ATOM     16  C   UNL     1      32.999  -7.020 -23.293  0.00  0.00    +0.221 C 
ATOM     17  C   UNL     1      33.989  -6.462 -24.070  0.00  0.00    +0.052 C 
ATOM     18  C   UNL     1      33.816  -5.060 -23.981  0.00  0.00    +0.045 C 
ATOM     19  C   UNL     1      32.733  -4.861 -23.157  0.00  0.00    +0.181 C 
ENDBRANCH  11  16
BRANCH   1  20
ATOM     20  C   UNL     1      34.210 -14.486 -23.729  0.00  0.00    +0.103 C 
BRANCH  20  21
ATOM     21  C   UNL     1      34.065 -15.926 -24.220  0.00  0.00    +0.048 C 
BRANCH  21  22
ATOM     22  C   UNL     1      34.336 -16.949 -23.143  0.00  0.00    -0.020 C 
ATOM     23  C   UNL     1      33.963 -18.268 -23.350  0.00  0.00    -0.001 C 
ATOM     24  C   UNL     1      34.952 -16.550 -21.968  0.00  0.00    -0.001 C 
ATOM     25  C   UNL     1      34.212 -19.212 -22.354  0.00  0.00    +0.036 C 
ATOM     26  C   UNL     1      35.202 -17.495 -20.973  0.00  0.00    +0.036 C 
ATOM     27  C   UNL     1      34.832 -18.826 -21.166  0.00  0.00    +0.134 C 
BRANCH  27  28
ATOM     28  O   UNL     1      35.075 -19.749 -20.195  0.00  0.00    -0.506 OA
ATOM     29  H   UNL     1      34.454 -19.880 -19.507  0.00  0.00    +0.292 HD
ENDBRANCH  27  28
ENDBRANCH  21  22
ENDBRANCH  20  21
ENDBRANCH   1  20
TORSDOF 5
ENDMDL
