MODEL 1
REMARK VINA RESULT:     -11.4      0.000      0.000
REMARK  Name = 3342298
REMARK  7 active torsions:
REMARK  status: ('A' for Active; 'I' for Inactive)
REMARK    1  A    between atoms: S_1  and  C_4
REMARK    2  A    between atoms: S_1  and  C_18
REMARK    3  A    between atoms: C_9  and  O_10
REMARK    4  A    between atoms: O_10  and  C_12
REMARK    5  A    between atoms: C_18  and  C_20
REMARK    6  A    between atoms: C_20  and  C_27
REMARK    7  A    between atoms: N_26  and  O_29
REMARK                            x       y       z     vdW  Elec       q    Type
REMARK                         _______ _______ _______ _____ _____    ______ ____
ROOT
ATOM      1  S   UNL     1      32.576 -22.655 -17.500  0.00  0.00    +0.009 S 
ATOM      2  O   UNL     1      31.238 -22.082 -17.494  0.00  0.00    -0.169 OA
ATOM      3  O   UNL     1      32.773 -24.030 -17.936  0.00  0.00    -0.169 OA
ENDROOT
BRANCH   1   4
ATOM      4  C   UNL     1      33.568 -21.616 -18.537  0.00  0.00    +0.106 C 
ATOM      5  C   UNL     1      32.946 -20.773 -19.439  0.00  0.00    +0.021 C 
ATOM      6  C   UNL     1      34.945 -21.668 -18.420  0.00  0.00    +0.021 C 
ATOM      7  C   UNL     1      33.727 -19.955 -20.254  0.00  0.00    +0.039 C 
ATOM      8  C   UNL     1      35.727 -20.849 -19.235  0.00  0.00    +0.039 C 
ATOM      9  C   UNL     1      35.117 -19.992 -20.152  0.00  0.00    +0.145 C 
BRANCH   9  10
ATOM     10  O   UNL     1      35.881 -19.195 -20.947  0.00  0.00    -0.453 OA
BRANCH  10  12
ATOM     11 CL   UNL     1      33.114 -15.659 -24.733  0.00  0.00    -0.082 Cl
ATOM     12  C   UNL     1      35.227 -18.361 -21.839  0.00  0.00    +0.145 C 
ATOM     13  C   UNL     1      34.620 -18.910 -22.954  0.00  0.00    +0.038 C 
ATOM     14  C   UNL     1      35.199 -17.000 -21.593  0.00  0.00    +0.038 C 
ATOM     15  C   UNL     1      33.962 -18.071 -23.853  0.00  0.00    +0.015 C 
ATOM     16  C   UNL     1      34.542 -16.160 -22.493  0.00  0.00    +0.015 C 
ATOM     17  C   UNL     1      33.923 -16.695 -23.623  0.00  0.00    +0.058 C 
ENDBRANCH  10  12
ENDBRANCH   9  10
ENDBRANCH   1   4
BRANCH   1  18
ATOM     18  C   UNL     1      33.284 -22.479 -15.903  0.00  0.00    +0.165 C 
BRANCH  18  20
ATOM     19  O   UNL     1      29.683 -23.595 -13.943  0.00  0.00    -0.354 OA
ATOM     20  C   UNL     1      32.404 -23.145 -14.840  0.00  0.00    +0.098 C 
ATOM     21  C   UNL     1      31.585 -22.088 -14.082  0.00  0.00    +0.043 C 
ATOM     22  C   UNL     1      31.467 -24.176 -15.490  0.00  0.00    +0.043 C 
ATOM     23  C   UNL     1      30.523 -22.723 -13.189  0.00  0.00    +0.143 C 
ATOM     24  C   UNL     1      30.411 -24.682 -14.510  0.00  0.00    +0.143 C 
BRANCH  20  27
ATOM     25  O   UNL     1      33.220 -23.733 -12.669  0.00  0.00    -0.273 OA
ATOM     26  N   UNL     1      34.301 -24.587 -14.526  0.00  0.00    -0.197 N 
ATOM     27  C   UNL     1      33.344 -23.842 -13.886  0.00  0.00    +0.245 C 
ATOM     28  H   UNL     1      34.355 -24.639 -15.507  0.00  0.00    +0.182 HD
BRANCH  26  29
ATOM     29  O   UNL     1      35.198 -25.270 -13.693  0.00  0.00    -0.295 OA
ATOM     30  H   UNL     1      35.641 -25.968 -14.199  0.00  0.00    +0.241 HD
ENDBRANCH  26  29
ENDBRANCH  20  27
ENDBRANCH  18  20
ENDBRANCH   1  18
TORSDOF 7
ENDMDL
MODEL 2
REMARK VINA RESULT:     -11.4      1.841      2.889
REMARK  Name = 3342298
REMARK  7 active torsions:
REMARK  status: ('A' for Active; 'I' for Inactive)
REMARK    1  A    between atoms: S_1  and  C_4
REMARK    2  A    between atoms: S_1  and  C_18
REMARK    3  A    between atoms: C_9  and  O_10
REMARK    4  A    between atoms: O_10  and  C_12
REMARK    5  A    between atoms: C_18  and  C_20
REMARK    6  A    between atoms: C_20  and  C_27
REMARK    7  A    between atoms: N_26  and  O_29
REMARK                            x       y       z     vdW  Elec       q    Type
REMARK                         _______ _______ _______ _____ _____    ______ ____
ROOT
ATOM      1  S   UNL     1      32.890 -23.021 -17.112  0.00  0.00    +0.009 S 
ATOM      2  O   UNL     1      32.700 -24.233 -17.896  0.00  0.00    -0.169 OA
ATOM      3  O   UNL     1      33.540 -23.095 -15.811  0.00  0.00    -0.169 OA
ENDROOT
BRANCH   1   4
ATOM      4  C   UNL     1      33.830 -21.909 -18.119  0.00  0.00    +0.106 C 
ATOM      5  C   UNL     1      33.192 -21.206 -19.124  0.00  0.00    +0.021 C 
ATOM      6  C   UNL     1      35.184 -21.764 -17.878  0.00  0.00    +0.021 C 
ATOM      7  C   UNL     1      33.933 -20.329 -19.917  0.00  0.00    +0.039 C 
ATOM      8  C   UNL     1      35.926 -20.887 -18.669  0.00  0.00    +0.039 C 
ATOM      9  C   UNL     1      35.300 -20.169 -19.689  0.00  0.00    +0.145 C 
BRANCH   9  10
ATOM     10  O   UNL     1      36.023 -19.314 -20.462  0.00  0.00    -0.453 OA
BRANCH  10  12
ATOM     11 CL   UNL     1      33.170 -16.305 -24.619  0.00  0.00    -0.082 Cl
ATOM     12  C   UNL     1      35.349 -18.605 -21.441  0.00  0.00    +0.145 C 
ATOM     13  C   UNL     1      34.766 -19.292 -22.490  0.00  0.00    +0.038 C 
ATOM     14  C   UNL     1      35.277 -17.226 -21.347  0.00  0.00    +0.038 C 
ATOM     15  C   UNL     1      34.088 -18.578 -23.478  0.00  0.00    +0.015 C 
ATOM     16  C   UNL     1      34.600 -16.512 -22.335  0.00  0.00    +0.015 C 
ATOM     17  C   UNL     1      34.005 -17.187 -23.400  0.00  0.00    +0.058 C 
ENDBRANCH  10  12
ENDBRANCH   9  10
ENDBRANCH   1   4
BRANCH   1  18
ATOM     18  C   UNL     1      31.342 -22.220 -16.908  0.00  0.00    +0.165 C 
BRANCH  18  20
ATOM     19  O   UNL     1      30.871 -24.339 -13.255  0.00  0.00    -0.354 OA
ATOM     20  C   UNL     1      30.617 -22.742 -15.662  0.00  0.00    +0.098 C 
ATOM     21  C   UNL     1      30.581 -24.279 -15.667  0.00  0.00    +0.043 C 
ATOM     22  C   UNL     1      31.309 -22.232 -14.388  0.00  0.00    +0.043 C 
ATOM     23  C   UNL     1      30.089 -24.841 -14.336  0.00  0.00    +0.143 C 
ATOM     24  C   UNL     1      30.773 -22.921 -13.135  0.00  0.00    +0.143 C 
BRANCH  20  27
ATOM     25  O   UNL     1      28.716 -21.579 -14.790  0.00  0.00    -0.273 OA
ATOM     26  N   UNL     1      28.590 -22.462 -16.924  0.00  0.00    -0.197 N 
ATOM     27  C   UNL     1      29.210 -22.198 -15.730  0.00  0.00    +0.245 C 
ATOM     28  H   UNL     1      29.034 -22.964 -17.644  0.00  0.00    +0.182 HD
BRANCH  26  29
ATOM     29  O   UNL     1      27.284 -21.971 -17.053  0.00  0.00    -0.295 OA
ATOM     30  H   UNL     1      27.307 -21.099 -17.477  0.00  0.00    +0.241 HD
ENDBRANCH  26  29
ENDBRANCH  20  27
ENDBRANCH  18  20
ENDBRANCH   1  18
TORSDOF 7
ENDMDL
MODEL 3
REMARK VINA RESULT:     -10.9      1.804      2.471
REMARK  Name = 3342298
REMARK  7 active torsions:
REMARK  status: ('A' for Active; 'I' for Inactive)
REMARK    1  A    between atoms: S_1  and  C_4
REMARK    2  A    between atoms: S_1  and  C_18
REMARK    3  A    between atoms: C_9  and  O_10
REMARK    4  A    between atoms: O_10  and  C_12
REMARK    5  A    between atoms: C_18  and  C_20
REMARK    6  A    between atoms: C_20  and  C_27
REMARK    7  A    between atoms: N_26  and  O_29
REMARK                            x       y       z     vdW  Elec       q    Type
REMARK                         _______ _______ _______ _____ _____    ______ ____
ROOT
ATOM      1  S   UNL     1      33.645 -22.488 -17.097  0.00  0.00    +0.009 S 
ATOM      2  O   UNL     1      32.586 -21.757 -16.417  0.00  0.00    -0.169 OA
ATOM      3  O   UNL     1      33.409 -23.853 -17.547  0.00  0.00    -0.169 OA
ENDROOT
BRANCH   1   4
ATOM      4  C   UNL     1      34.098 -21.526 -18.512  0.00  0.00    +0.106 C 
ATOM      5  C   UNL     1      33.105 -21.032 -19.337  0.00  0.00    +0.021 C 
ATOM      6  C   UNL     1      35.437 -21.286 -18.762  0.00  0.00    +0.021 C 
ATOM      7  C   UNL     1      33.463 -20.274 -20.452  0.00  0.00    +0.039 C 
ATOM      8  C   UNL     1      35.795 -20.527 -19.876  0.00  0.00    +0.039 C 
ATOM      9  C   UNL     1      34.807 -20.020 -20.721  0.00  0.00    +0.145 C 
BRANCH   9  10
ATOM     10  O   UNL     1      35.157 -19.281 -21.808  0.00  0.00    -0.453 OA
BRANCH  10  12
ATOM     11 CL   UNL     1      33.748 -13.580 -21.794  0.00  0.00    -0.082 Cl
ATOM     12  C   UNL     1      34.826 -17.936 -21.805  0.00  0.00    +0.145 C 
ATOM     13  C   UNL     1      34.686 -17.280 -20.596  0.00  0.00    +0.038 C 
ATOM     14  C   UNL     1      34.643 -17.284 -23.011  0.00  0.00    +0.038 C 
ATOM     15  C   UNL     1      34.352 -15.925 -20.592  0.00  0.00    +0.015 C 
ATOM     16  C   UNL     1      34.308 -15.930 -23.007  0.00  0.00    +0.015 C 
ATOM     17  C   UNL     1      34.163 -15.250 -21.798  0.00  0.00    +0.058 C 
ENDBRANCH  10  12
ENDBRANCH   9  10
ENDBRANCH   1   4
BRANCH   1  18
ATOM     18  C   UNL     1      35.083 -22.485 -16.089  0.00  0.00    +0.165 C 
BRANCH  18  20
ATOM     19  O   UNL     1      33.647 -23.498 -12.221  0.00  0.00    -0.354 OA
ATOM     20  C   UNL     1      34.879 -23.352 -14.842  0.00  0.00    +0.098 C 
ATOM     21  C   UNL     1      35.460 -22.654 -13.602  0.00  0.00    +0.043 C 
ATOM     22  C   UNL     1      33.384 -23.645 -14.633  0.00  0.00    +0.043 C 
ATOM     23  C   UNL     1      35.064 -23.365 -12.311  0.00  0.00    +0.143 C 
ATOM     24  C   UNL     1      33.115 -24.294 -13.278  0.00  0.00    +0.143 C 
BRANCH  20  27
ATOM     25  O   UNL     1      35.025 -25.675 -15.397  0.00  0.00    -0.273 OA
ATOM     26  N   UNL     1      36.978 -24.516 -14.964  0.00  0.00    -0.197 N 
ATOM     27  C   UNL     1      35.620 -24.643 -15.096  0.00  0.00    +0.245 C 
ATOM     28  H   UNL     1      37.403 -23.662 -14.719  0.00  0.00    +0.182 HD
BRANCH  26  29
ATOM     29  O   UNL     1      37.724 -25.679 -15.200  0.00  0.00    -0.295 OA
ATOM     30  H   UNL     1      38.588 -25.439 -15.568  0.00  0.00    +0.241 HD
ENDBRANCH  26  29
ENDBRANCH  20  27
ENDBRANCH  18  20
ENDBRANCH   1  18
TORSDOF 7
ENDMDL
MODEL 4
REMARK VINA RESULT:     -10.8      2.895      4.132
REMARK  Name = 3342298
REMARK  7 active torsions:
REMARK  status: ('A' for Active; 'I' for Inactive)
REMARK    1  A    between atoms: S_1  and  C_4
REMARK    2  A    between atoms: S_1  and  C_18
REMARK    3  A    between atoms: C_9  and  O_10
REMARK    4  A    between atoms: O_10  and  C_12
REMARK    5  A    between atoms: C_18  and  C_20
REMARK    6  A    between atoms: C_20  and  C_27
REMARK    7  A    between atoms: N_26  and  O_29
REMARK                            x       y       z     vdW  Elec       q    Type
REMARK                         _______ _______ _______ _____ _____    ______ ____
ROOT
ATOM      1  S   UNL     1      35.143 -22.417 -15.836  0.00  0.00    +0.009 S 
ATOM      2  O   UNL     1      34.715 -21.309 -14.994  0.00  0.00    -0.169 OA
ATOM      3  O   UNL     1      34.490 -23.712 -15.714  0.00  0.00    -0.169 OA
ENDROOT
BRANCH   1   4
ATOM      4  C   UNL     1      34.964 -21.880 -17.513  0.00  0.00    +0.106 C 
ATOM      5  C   UNL     1      36.048 -21.316 -18.160  0.00  0.00    +0.021 C 
ATOM      6  C   UNL     1      33.743 -22.038 -18.143  0.00  0.00    +0.021 C 
ATOM      7  C   UNL     1      35.906 -20.894 -19.482  0.00  0.00    +0.039 C 
ATOM      8  C   UNL     1      33.601 -21.617 -19.465  0.00  0.00    +0.039 C 
ATOM      9  C   UNL     1      34.684 -21.045 -20.135  0.00  0.00    +0.145 C 
BRANCH   9  10
ATOM     10  O   UNL     1      34.544 -20.633 -21.424  0.00  0.00    -0.453 OA
BRANCH  10  12
ATOM     11 CL   UNL     1      34.455 -14.851 -22.444  0.00  0.00    -0.082 Cl
ATOM     12  C   UNL     1      34.525 -19.270 -21.665  0.00  0.00    +0.145 C 
ATOM     13  C   UNL     1      34.863 -18.400 -20.644  0.00  0.00    +0.038 C 
ATOM     14  C   UNL     1      34.166 -18.812 -22.921  0.00  0.00    +0.038 C 
ATOM     15  C   UNL     1      34.842 -17.027 -20.887  0.00  0.00    +0.015 C 
ATOM     16  C   UNL     1      34.144 -17.439 -23.162  0.00  0.00    +0.015 C 
ATOM     17  C   UNL     1      34.483 -16.546 -22.146  0.00  0.00    +0.058 C 
ENDBRANCH  10  12
ENDBRANCH   9  10
ENDBRANCH   1   4
BRANCH   1  18
ATOM     18  C   UNL     1      36.871 -22.654 -15.637  0.00  0.00    +0.165 C 
BRANCH  18  20
ATOM     19  O   UNL     1      38.123 -26.438 -14.164  0.00  0.00    -0.354 OA
ATOM     20  C   UNL     1      37.158 -23.737 -14.590  0.00  0.00    +0.098 C 
ATOM     21  C   UNL     1      36.304 -24.986 -14.864  0.00  0.00    +0.043 C 
ATOM     22  C   UNL     1      38.651 -24.104 -14.596  0.00  0.00    +0.043 C 
ATOM     23  C   UNL     1      36.733 -26.168 -13.999  0.00  0.00    +0.143 C 
ATOM     24  C   UNL     1      38.935 -25.342 -13.748  0.00  0.00    +0.143 C 
BRANCH  20  27
ATOM     25  O   UNL     1      37.575 -22.457 -12.612  0.00  0.00    -0.273 OA
ATOM     26  N   UNL     1      35.503 -23.452 -12.871  0.00  0.00    -0.197 N 
ATOM     27  C   UNL     1      36.784 -23.145 -13.253  0.00  0.00    +0.245 C 
ATOM     28  H   UNL     1      34.911 -24.009 -13.424  0.00  0.00    +0.182 HD
BRANCH  26  29
ATOM     29  O   UNL     1      35.092 -22.920 -11.641  0.00  0.00    -0.295 OA
ATOM     30  H   UNL     1      34.483 -23.539 -11.209  0.00  0.00    +0.241 HD
ENDBRANCH  26  29
ENDBRANCH  20  27
ENDBRANCH  18  20
ENDBRANCH   1  18
TORSDOF 7
ENDMDL
MODEL 5
REMARK VINA RESULT:     -10.8      3.115      4.259
REMARK  Name = 3342298
REMARK  7 active torsions:
REMARK  status: ('A' for Active; 'I' for Inactive)
REMARK    1  A    between atoms: S_1  and  C_4
REMARK    2  A    between atoms: S_1  and  C_18
REMARK    3  A    between atoms: C_9  and  O_10
REMARK    4  A    between atoms: O_10  and  C_12
REMARK    5  A    between atoms: C_18  and  C_20
REMARK    6  A    between atoms: C_20  and  C_27
REMARK    7  A    between atoms: N_26  and  O_29
REMARK                            x       y       z     vdW  Elec       q    Type
REMARK                         _______ _______ _______ _____ _____    ______ ____
ROOT
ATOM      1  S   UNL     1      35.863 -22.132 -15.415  0.00  0.00    +0.009 S 
ATOM      2  O   UNL     1      37.173 -21.537 -15.187  0.00  0.00    -0.169 OA
ATOM      3  O   UNL     1      34.741 -21.757 -14.565  0.00  0.00    -0.169 OA
ENDROOT
BRANCH   1   4
ATOM      4  C   UNL     1      35.419 -21.756 -17.087  0.00  0.00    +0.106 C 
ATOM      5  C   UNL     1      36.363 -21.191 -17.925  0.00  0.00    +0.021 C 
ATOM      6  C   UNL     1      34.138 -22.040 -17.523  0.00  0.00    +0.021 C 
ATOM      7  C   UNL     1      36.014 -20.897 -19.242  0.00  0.00    +0.039 C 
ATOM      8  C   UNL     1      33.787 -21.746 -18.840  0.00  0.00    +0.039 C 
ATOM      9  C   UNL     1      34.726 -21.175 -19.701  0.00  0.00    +0.145 C 
BRANCH   9  10
ATOM     10  O   UNL     1      34.384 -20.887 -20.985  0.00  0.00    -0.453 OA
BRANCH  10  12
ATOM     11 CL   UNL     1      34.730 -15.286 -22.712  0.00  0.00    -0.082 Cl
ATOM     12  C   UNL     1      34.467 -19.567 -21.394  0.00  0.00    +0.145 C 
ATOM     13  C   UNL     1      34.931 -18.615 -20.504  0.00  0.00    +0.038 C 
ATOM     14  C   UNL     1      34.083 -19.233 -22.680  0.00  0.00    +0.038 C 
ATOM     15  C   UNL     1      35.014 -17.284 -20.914  0.00  0.00    +0.015 C 
ATOM     16  C   UNL     1      34.165 -17.902 -23.089  0.00  0.00    +0.015 C 
ATOM     17  C   UNL     1      34.631 -16.928 -22.207  0.00  0.00    +0.058 C 
ENDBRANCH  10  12
ENDBRANCH   9  10
ENDBRANCH   1   4
BRANCH   1  18
ATOM     18  C   UNL     1      36.014 -23.880 -15.385  0.00  0.00    +0.165 C 
BRANCH  18  20
ATOM     19  O   UNL     1      36.847 -24.201 -11.231  0.00  0.00    -0.354 OA
ATOM     20  C   UNL     1      36.754 -24.344 -14.127  0.00  0.00    +0.098 C 
ATOM     21  C   UNL     1      37.324 -23.137 -13.364  0.00  0.00    +0.043 C 
ATOM     22  C   UNL     1      35.811 -25.148 -13.217  0.00  0.00    +0.043 C 
ATOM     23  C   UNL     1      37.854 -23.532 -11.988  0.00  0.00    +0.143 C 
ATOM     24  C   UNL     1      36.433 -25.418 -11.849  0.00  0.00    +0.143 C 
BRANCH  20  27
ATOM     25  O   UNL     1      37.853 -26.447 -14.437  0.00  0.00    -0.273 OA
ATOM     26  N   UNL     1      38.890 -24.531 -15.213  0.00  0.00    -0.197 N 
ATOM     27  C   UNL     1      37.882 -25.229 -14.599  0.00  0.00    +0.245 C 
ATOM     28  H   UNL     1      38.862 -23.553 -15.316  0.00  0.00    +0.182 HD
BRANCH  26  29
ATOM     29  O   UNL     1      39.962 -25.301 -15.686  0.00  0.00    -0.295 OA
ATOM     30  H   UNL     1      40.559 -25.509 -14.951  0.00  0.00    +0.241 HD
ENDBRANCH  26  29
ENDBRANCH  20  27
ENDBRANCH  18  20
ENDBRANCH   1  18
TORSDOF 7
ENDMDL
MODEL 6
REMARK VINA RESULT:     -10.8      2.645      4.682
REMARK  Name = 3342298
REMARK  7 active torsions:
REMARK  status: ('A' for Active; 'I' for Inactive)
REMARK    1  A    between atoms: S_1  and  C_4
REMARK    2  A    between atoms: S_1  and  C_18
REMARK    3  A    between atoms: C_9  and  O_10
REMARK    4  A    between atoms: O_10  and  C_12
REMARK    5  A    between atoms: C_18  and  C_20
REMARK    6  A    between atoms: C_20  and  C_27
REMARK    7  A    between atoms: N_26  and  O_29
REMARK                            x       y       z     vdW  Elec       q    Type
REMARK                         _______ _______ _______ _____ _____    ______ ____
ROOT
ATOM      1  S   UNL     1      33.016 -23.898 -13.546  0.00  0.00    +0.009 S 
ATOM      2  O   UNL     1      33.302 -22.769 -12.673  0.00  0.00    -0.169 OA
ATOM      3  O   UNL     1      31.891 -24.773 -13.252  0.00  0.00    -0.169 OA
ENDROOT
BRANCH   1   4
ATOM      4  C   UNL     1      32.772 -23.235 -15.170  0.00  0.00    +0.106 C 
ATOM      5  C   UNL     1      31.487 -22.956 -15.597  0.00  0.00    +0.021 C 
ATOM      6  C   UNL     1      33.871 -23.007 -15.976  0.00  0.00    +0.021 C 
ATOM      7  C   UNL     1      31.294 -22.433 -16.875  0.00  0.00    +0.039 C 
ATOM      8  C   UNL     1      33.680 -22.483 -17.254  0.00  0.00    +0.039 C 
ATOM      9  C   UNL     1      32.390 -22.195 -17.704  0.00  0.00    +0.145 C 
BRANCH   9  10
ATOM     10  O   UNL     1      32.204 -21.686 -18.951  0.00  0.00    -0.453 OA
BRANCH  10  12
ATOM     11 CL   UNL     1      36.561 -18.519 -21.290  0.00  0.00    -0.082 Cl
ATOM     12  C   UNL     1      33.232 -20.938 -19.501  0.00  0.00    +0.145 C 
ATOM     13  C   UNL     1      32.922 -19.874 -20.329  0.00  0.00    +0.038 C 
ATOM     14  C   UNL     1      34.542 -21.275 -19.211  0.00  0.00    +0.038 C 
ATOM     15  C   UNL     1      33.957 -19.121 -20.884  0.00  0.00    +0.015 C 
ATOM     16  C   UNL     1      35.576 -20.523 -19.767  0.00  0.00    +0.015 C 
ATOM     17  C   UNL     1      35.284 -19.446 -20.603  0.00  0.00    +0.058 C 
ENDBRANCH  10  12
ENDBRANCH   9  10
ENDBRANCH   1   4
BRANCH   1  18
ATOM     18  C   UNL     1      34.458 -24.889 -13.694  0.00  0.00    +0.165 C 
BRANCH  18  20
ATOM     19  O   UNL     1      36.344 -22.348 -10.859  0.00  0.00    -0.354 OA
ATOM     20  C   UNL     1      35.540 -24.430 -12.710  0.00  0.00    +0.098 C 
ATOM     21  C   UNL     1      36.144 -23.091 -13.164  0.00  0.00    +0.043 C 
ATOM     22  C   UNL     1      34.954 -24.294 -11.295  0.00  0.00    +0.043 C 
ATOM     23  C   UNL     1      37.045 -22.482 -12.093  0.00  0.00    +0.143 C 
ATOM     24  C   UNL     1      35.928 -23.609 -10.340  0.00  0.00    +0.143 C 
BRANCH  20  27
ATOM     25  O   UNL     1      36.804 -26.215 -11.740  0.00  0.00    -0.273 OA
ATOM     26  N   UNL     1      37.279 -25.574 -13.911  0.00  0.00    -0.197 N 
ATOM     27  C   UNL     1      36.605 -25.500 -12.720  0.00  0.00    +0.245 C 
ATOM     28  H   UNL     1      37.078 -24.975 -14.665  0.00  0.00    +0.182 HD
BRANCH  26  29
ATOM     29  O   UNL     1      38.274 -26.559 -13.986  0.00  0.00    -0.295 OA
ATOM     30  H   UNL     1      38.453 -26.906 -13.099  0.00  0.00    +0.241 HD
ENDBRANCH  26  29
ENDBRANCH  20  27
ENDBRANCH  18  20
ENDBRANCH   1  18
TORSDOF 7
ENDMDL
MODEL 7
REMARK VINA RESULT:     -10.7      3.345      5.809
REMARK  Name = 3342298
REMARK  7 active torsions:
REMARK  status: ('A' for Active; 'I' for Inactive)
REMARK    1  A    between atoms: S_1  and  C_4
REMARK    2  A    between atoms: S_1  and  C_18
REMARK    3  A    between atoms: C_9  and  O_10
REMARK    4  A    between atoms: O_10  and  C_12
REMARK    5  A    between atoms: C_18  and  C_20
REMARK    6  A    between atoms: C_20  and  C_27
REMARK    7  A    between atoms: N_26  and  O_29
REMARK                            x       y       z     vdW  Elec       q    Type
REMARK                         _______ _______ _______ _____ _____    ______ ____
ROOT
ATOM      1  S   UNL     1      35.503 -23.359 -12.784  0.00  0.00    +0.009 S 
ATOM      2  O   UNL     1      36.655 -22.468 -12.775  0.00  0.00    -0.169 OA
ATOM      3  O   UNL     1      34.503 -23.259 -11.730  0.00  0.00    -0.169 OA
ENDROOT
BRANCH   1   4
ATOM      4  C   UNL     1      34.679 -23.109 -14.331  0.00  0.00    +0.106 C 
ATOM      5  C   UNL     1      33.464 -23.730 -14.556  0.00  0.00    +0.021 C 
ATOM      6  C   UNL     1      35.267 -22.296 -15.282  0.00  0.00    +0.021 C 
ATOM      7  C   UNL     1      32.815 -23.532 -15.774  0.00  0.00    +0.039 C 
ATOM      8  C   UNL     1      34.618 -22.097 -16.501  0.00  0.00    +0.039 C 
ATOM      9  C   UNL     1      33.391 -22.715 -16.747  0.00  0.00    +0.145 C 
BRANCH   9  10
ATOM     10  O   UNL     1      32.760 -22.522 -17.936  0.00  0.00    -0.453 OA
BRANCH  10  12
ATOM     11 CL   UNL     1      35.125 -18.683 -21.697  0.00  0.00    -0.082 Cl
ATOM     12  C   UNL     1      33.318 -21.616 -18.821  0.00  0.00    +0.145 C 
ATOM     13  C   UNL     1      32.498 -20.699 -19.454  0.00  0.00    +0.038 C 
ATOM     14  C   UNL     1      34.682 -21.651 -19.053  0.00  0.00    +0.038 C 
ATOM     15  C   UNL     1      33.060 -19.786 -20.347  0.00  0.00    +0.015 C 
ATOM     16  C   UNL     1      35.243 -20.740 -19.947  0.00  0.00    +0.015 C 
ATOM     17  C   UNL     1      34.432 -19.807 -20.593  0.00  0.00    +0.058 C 
ENDBRANCH  10  12
ENDBRANCH   9  10
ENDBRANCH   1   4
BRANCH   1  18
ATOM     18  C   UNL     1      36.063 -25.022 -12.852  0.00  0.00    +0.165 C 
BRANCH  18  20
ATOM     19  O   UNL     1      39.959 -23.966 -14.179  0.00  0.00    -0.354 OA
ATOM     20  C   UNL     1      37.351 -25.131 -13.674  0.00  0.00    +0.098 C 
ATOM     21  C   UNL     1      37.555 -23.866 -14.524  0.00  0.00    +0.043 C 
ATOM     22  C   UNL     1      38.560 -25.347 -12.748  0.00  0.00    +0.043 C 
ATOM     23  C   UNL     1      38.939 -23.829 -15.166  0.00  0.00    +0.143 C 
ATOM     24  C   UNL     1      39.882 -25.218 -13.500  0.00  0.00    +0.143 C 
BRANCH  20  27
ATOM     25  O   UNL     1      37.790 -27.377 -14.373  0.00  0.00    -0.273 OA
ATOM     26  N   UNL     1      36.287 -26.111 -15.593  0.00  0.00    -0.197 N 
ATOM     27  C   UNL     1      37.179 -26.330 -14.575  0.00  0.00    +0.245 C 
ATOM     28  H   UNL     1      35.826 -25.250 -15.709  0.00  0.00    +0.182 HD
BRANCH  26  29
ATOM     29  O   UNL     1      36.075 -27.194 -16.459  0.00  0.00    -0.295 OA
ATOM     30  H   UNL     1      36.751 -27.189 -17.154  0.00  0.00    +0.241 HD
ENDBRANCH  26  29
ENDBRANCH  20  27
ENDBRANCH  18  20
ENDBRANCH   1  18
TORSDOF 7
ENDMDL
MODEL 8
REMARK VINA RESULT:     -10.6      2.878      4.928
REMARK  Name = 3342298
REMARK  7 active torsions:
REMARK  status: ('A' for Active; 'I' for Inactive)
REMARK    1  A    between atoms: S_1  and  C_4
REMARK    2  A    between atoms: S_1  and  C_18
REMARK    3  A    between atoms: C_9  and  O_10
REMARK    4  A    between atoms: O_10  and  C_12
REMARK    5  A    between atoms: C_18  and  C_20
REMARK    6  A    between atoms: C_20  and  C_27
REMARK    7  A    between atoms: N_26  and  O_29
REMARK                            x       y       z     vdW  Elec       q    Type
REMARK                         _______ _______ _______ _____ _____    ______ ____
ROOT
ATOM      1  S   UNL     1      33.799 -23.703 -13.659  0.00  0.00    +0.009 S 
ATOM      2  O   UNL     1      32.872 -23.077 -12.727  0.00  0.00    -0.169 OA
ATOM      3  O   UNL     1      33.874 -25.155 -13.741  0.00  0.00    -0.169 OA
ENDROOT
BRANCH   1   4
ATOM      4  C   UNL     1      33.388 -23.094 -15.269  0.00  0.00    +0.106 C 
ATOM      5  C   UNL     1      32.057 -22.946 -15.615  0.00  0.00    +0.021 C 
ATOM      6  C   UNL     1      34.407 -22.776 -16.149  0.00  0.00    +0.021 C 
ATOM      7  C   UNL     1      31.734 -22.466 -16.883  0.00  0.00    +0.039 C 
ATOM      8  C   UNL     1      34.084 -22.295 -17.418  0.00  0.00    +0.039 C 
ATOM      9  C   UNL     1      32.747 -22.139 -17.785  0.00  0.00    +0.145 C 
BRANCH   9  10
ATOM     10  O   UNL     1      32.432 -21.671 -19.023  0.00  0.00    -0.453 OA
BRANCH  10  12
ATOM     11 CL   UNL     1      36.348 -18.212 -21.703  0.00  0.00    -0.082 Cl
ATOM     12  C   UNL     1      33.355 -20.856 -19.656  0.00  0.00    +0.145 C 
ATOM     13  C   UNL     1      34.704 -21.065 -19.431  0.00  0.00    +0.038 C 
ATOM     14  C   UNL     1      32.906 -19.853 -20.496  0.00  0.00    +0.038 C 
ATOM     15  C   UNL     1      35.634 -20.243 -20.068  0.00  0.00    +0.015 C 
ATOM     16  C   UNL     1      33.836 -19.031 -21.132  0.00  0.00    +0.015 C 
ATOM     17  C   UNL     1      35.200 -19.227 -20.919  0.00  0.00    +0.058 C 
ENDBRANCH  10  12
ENDBRANCH   9  10
ENDBRANCH   1   4
BRANCH   1  18
ATOM     18  C   UNL     1      35.416 -23.087 -13.360  0.00  0.00    +0.165 C 
BRANCH  18  20
ATOM     19  O   UNL     1      38.403 -25.970 -14.268  0.00  0.00    -0.354 OA
ATOM     20  C   UNL     1      36.397 -24.234 -13.095  0.00  0.00    +0.098 C 
ATOM     21  C   UNL     1      36.047 -25.452 -13.965  0.00  0.00    +0.043 C 
ATOM     22  C   UNL     1      37.839 -23.780 -13.375  0.00  0.00    +0.043 C 
ATOM     23  C   UNL     1      37.136 -26.521 -13.913  0.00  0.00    +0.143 C 
ATOM     24  C   UNL     1      38.818 -24.952 -13.360  0.00  0.00    +0.143 C 
BRANCH  20  27
ATOM     25  O   UNL     1      36.276 -25.758 -11.254  0.00  0.00    -0.273 OA
ATOM     26  N   UNL     1      36.104 -23.492 -10.828  0.00  0.00    -0.197 N 
ATOM     27  C   UNL     1      36.250 -24.590 -11.635  0.00  0.00    +0.245 C 
ATOM     28  H   UNL     1      36.090 -22.576 -11.187  0.00  0.00    +0.182 HD
BRANCH  26  29
ATOM     29  O   UNL     1      35.975 -23.757  -9.457  0.00  0.00    -0.295 OA
ATOM     30  H   UNL     1      36.417 -23.059  -8.950  0.00  0.00    +0.241 HD
ENDBRANCH  26  29
ENDBRANCH  20  27
ENDBRANCH  18  20
ENDBRANCH   1  18
TORSDOF 7
ENDMDL
MODEL 9
REMARK VINA RESULT:     -10.6      8.760     13.357
REMARK  Name = 3342298
REMARK  7 active torsions:
REMARK  status: ('A' for Active; 'I' for Inactive)
REMARK    1  A    between atoms: S_1  and  C_4
REMARK    2  A    between atoms: S_1  and  C_18
REMARK    3  A    between atoms: C_9  and  O_10
REMARK    4  A    between atoms: O_10  and  C_12
REMARK    5  A    between atoms: C_18  and  C_20
REMARK    6  A    between atoms: C_20  and  C_27
REMARK    7  A    between atoms: N_26  and  O_29
REMARK                            x       y       z     vdW  Elec       q    Type
REMARK                         _______ _______ _______ _____ _____    ______ ____
ROOT
ATOM      1  S   UNL     1      31.141 -10.148 -22.271  0.00  0.00    +0.009 S 
ATOM      2  O   UNL     1      31.569  -9.782 -23.614  0.00  0.00    -0.169 OA
ATOM      3  O   UNL     1      29.741 -10.460 -22.019  0.00  0.00    -0.169 OA
ENDROOT
BRANCH   1   4
ATOM      4  C   UNL     1      32.098 -11.561 -21.800  0.00  0.00    +0.106 C 
ATOM      5  C   UNL     1      33.169 -11.942 -22.587  0.00  0.00    +0.021 C 
ATOM      6  C   UNL     1      31.758 -12.252 -20.651  0.00  0.00    +0.021 C 
ATOM      7  C   UNL     1      33.924 -13.054 -22.214  0.00  0.00    +0.039 C 
ATOM      8  C   UNL     1      32.512 -13.364 -20.278  0.00  0.00    +0.039 C 
ATOM      9  C   UNL     1      33.597 -13.765 -21.060  0.00  0.00    +0.145 C 
BRANCH   9  10
ATOM     10  O   UNL     1      34.332 -14.850 -20.696  0.00  0.00    -0.453 OA
BRANCH  10  12
ATOM     11 CL   UNL     1      34.347 -19.477 -24.311  0.00  0.00    -0.082 Cl
ATOM     12  C   UNL     1      34.334 -15.941 -21.548  0.00  0.00    +0.145 C 
ATOM     13  C   UNL     1      34.608 -17.196 -21.035  0.00  0.00    +0.038 C 
ATOM     14  C   UNL     1      34.063 -15.749 -22.891  0.00  0.00    +0.038 C 
ATOM     15  C   UNL     1      34.611 -18.296 -21.894  0.00  0.00    +0.015 C 
ATOM     16  C   UNL     1      34.068 -16.848 -23.750  0.00  0.00    +0.015 C 
ATOM     17  C   UNL     1      34.341 -18.122 -23.251  0.00  0.00    +0.058 C 
ENDBRANCH  10  12
ENDBRANCH   9  10
ENDBRANCH   1   4
BRANCH   1  18
ATOM     18  C   UNL     1      31.634  -8.893 -21.148  0.00  0.00    +0.165 C 
BRANCH  18  20
ATOM     19  O   UNL     1      32.085  -6.244 -24.440  0.00  0.00    -0.354 OA
ATOM     20  C   UNL     1      31.790  -7.548 -21.866  0.00  0.00    +0.098 C 
ATOM     21  C   UNL     1      33.120  -7.501 -22.635  0.00  0.00    +0.043 C 
ATOM     22  C   UNL     1      30.614  -7.316 -22.828  0.00  0.00    +0.043 C 
ATOM     23  C   UNL     1      33.203  -6.286 -23.556  0.00  0.00    +0.143 C 
ATOM     24  C   UNL     1      30.852  -6.112 -23.738  0.00  0.00    +0.143 C 
BRANCH  20  27
ATOM     25  O   UNL     1      30.957  -5.580 -20.789  0.00  0.00    -0.273 OA
ATOM     26  N   UNL     1      32.770  -6.670 -19.855  0.00  0.00    -0.197 N 
ATOM     27  C   UNL     1      31.785  -6.488 -20.791  0.00  0.00    +0.245 C 
ATOM     28  H   UNL     1      33.409  -7.417 -19.905  0.00  0.00    +0.182 HD
BRANCH  26  29
ATOM     29  O   UNL     1      32.809  -5.724 -18.821  0.00  0.00    -0.295 OA
ATOM     30  H   UNL     1      32.417  -6.105 -18.020  0.00  0.00    +0.241 HD
ENDBRANCH  26  29
ENDBRANCH  20  27
ENDBRANCH  18  20
ENDBRANCH   1  18
TORSDOF 7
ENDMDL
