MODEL 1
REMARK VINA RESULT:     -13.1      0.000      0.000
REMARK  Name = 9969613
REMARK  5 active torsions:
REMARK  status: ('A' for Active; 'I' for Inactive)
REMARK    1  A    between atoms: C_3  and  O_7
REMARK    2  A    between atoms: C_4  and  O_17
REMARK    3  A    between atoms: O_7  and  C_13
REMARK    4  A    between atoms: O_17  and  C_21
REMARK    5  A    between atoms: C_18  and  N_24
REMARK                            x       y       z     vdW  Elec       q    Type
REMARK                         _______ _______ _______ _____ _____    ______ ____
ROOT
ATOM      1  N   UNL     1      34.229 -22.793 -16.373  0.00  0.00    -0.283 NA
ATOM      2  N   UNL     1      31.850 -22.876 -16.750  0.00  0.00    -0.151 NA
ATOM      3  C   UNL     1      33.965 -22.655 -15.064  0.00  0.00    +0.296 C 
ATOM      4  C   UNL     1      33.135 -22.897 -17.153  0.00  0.00    +0.260 C 
ATOM      5  C   UNL     1      32.707 -22.617 -14.516  0.00  0.00    +0.094 C 
ATOM      6  C   UNL     1      31.671 -22.734 -15.420  0.00  0.00    +0.119 C 
ENDROOT
BRANCH   3   7
ATOM      7  O   UNL     1      35.060 -22.543 -14.222  0.00  0.00    -0.427 OA
BRANCH   7  13
ATOM      8  O   UNL     1      39.611 -24.083 -14.633  0.00  0.00    -0.435 OA
ATOM      9  O   UNL     1      38.938 -26.389 -14.450  0.00  0.00    -0.435 OA
ATOM     10  C   UNL     1      38.265 -24.218 -14.483  0.00  0.00    +0.179 C 
ATOM     11  C   UNL     1      37.880 -25.535 -14.378  0.00  0.00    +0.177 C 
ATOM     12  C   UNL     1      37.348 -23.189 -14.436  0.00  0.00    +0.078 C 
ATOM     13  C   UNL     1      36.001 -23.526 -14.276  0.00  0.00    +0.151 C 
ATOM     14  C   UNL     1      36.557 -25.895 -14.220  0.00  0.00    +0.043 C 
ATOM     15  C   UNL     1      40.030 -25.462 -14.611  0.00  0.00    +0.429 C 
ATOM     16  C   UNL     1      35.608 -24.871 -14.170  0.00  0.00    +0.041 C 
ENDBRANCH   7  13
ENDBRANCH   3   7
BRANCH   4  17
ATOM     17  O   UNL     1      33.354 -23.041 -18.503  0.00  0.00    -0.383 OA
BRANCH  17  21
ATOM     18  C   UNL     1      34.115 -19.588 -20.677  0.00  0.00    +0.057 C 
ATOM     19  C   UNL     1      35.174 -20.373 -20.222  0.00  0.00    +0.018 C 
ATOM     20  C   UNL     1      32.799 -19.963 -20.401  0.00  0.00    +0.018 C 
ATOM     21  C   UNL     1      33.606 -21.895 -19.225  0.00  0.00    +0.160 C 
ATOM     22  C   UNL     1      34.918 -21.534 -19.492  0.00  0.00    +0.040 C 
ATOM     23  C   UNL     1      32.544 -21.124 -19.670  0.00  0.00    +0.040 C 
BRANCH  18  24
ATOM     24  N   UNL     1      34.367 -18.438 -21.401  0.00  0.00    -0.246 N 
ATOM     25  N   UNL     1      34.552 -17.067 -23.149  0.00  0.00    -0.224 NA
ATOM     26  C   UNL     1      34.791 -17.233 -20.901  0.00  0.00    +0.092 C 
ATOM     27  C   UNL     1      34.239 -18.282 -22.758  0.00  0.00    +0.172 C 
ATOM     28  C   UNL     1      34.897 -16.407 -21.996  0.00  0.00    +0.117 C 
ENDBRANCH  18  24
ENDBRANCH  17  21
ENDBRANCH   4  17
TORSDOF 5
ENDMDL
MODEL 2
REMARK VINA RESULT:     -12.5      2.765      5.631
REMARK  Name = 9969613
REMARK  5 active torsions:
REMARK  status: ('A' for Active; 'I' for Inactive)
REMARK    1  A    between atoms: C_3  and  O_7
REMARK    2  A    between atoms: C_4  and  O_17
REMARK    3  A    between atoms: O_7  and  C_13
REMARK    4  A    between atoms: O_17  and  C_21
REMARK    5  A    between atoms: C_18  and  N_24
REMARK                            x       y       z     vdW  Elec       q    Type
REMARK                         _______ _______ _______ _____ _____    ______ ____
ROOT
ATOM      1  N   UNL     1      32.919 -23.014 -16.172  0.00  0.00    -0.283 NA
ATOM      2  N   UNL     1      35.213 -22.363 -16.528  0.00  0.00    -0.151 NA
ATOM      3  C   UNL     1      33.127 -22.841 -14.857  0.00  0.00    +0.296 C 
ATOM      4  C   UNL     1      33.994 -22.760 -16.943  0.00  0.00    +0.260 C 
ATOM      5  C   UNL     1      34.314 -22.440 -14.296  0.00  0.00    +0.094 C 
ATOM      6  C   UNL     1      35.338 -22.212 -15.192  0.00  0.00    +0.119 C 
ENDROOT
BRANCH   3   7
ATOM      7  O   UNL     1      32.050 -23.091 -14.024  0.00  0.00    -0.427 OA
BRANCH   7  13
ATOM      8  O   UNL     1      28.283 -21.662 -16.674  0.00  0.00    -0.435 OA
ATOM      9  O   UNL     1      27.178 -23.787 -16.405  0.00  0.00    -0.435 OA
ATOM     10  C   UNL     1      29.009 -22.530 -15.919  0.00  0.00    +0.179 C 
ATOM     11  C   UNL     1      28.379 -23.744 -15.766  0.00  0.00    +0.177 C 
ATOM     12  C   UNL     1      30.240 -22.275 -15.350  0.00  0.00    +0.078 C 
ATOM     13  C   UNL     1      30.835 -23.296 -14.604  0.00  0.00    +0.151 C 
ATOM     14  C   UNL     1      28.945 -24.769 -15.034  0.00  0.00    +0.043 C 
ATOM     15  C   UNL     1      27.125 -22.465 -16.979  0.00  0.00    +0.429 C 
ATOM     16  C   UNL     1      30.191 -24.535 -14.446  0.00  0.00    +0.041 C 
ENDBRANCH   7  13
ENDBRANCH   3   7
BRANCH   4  17
ATOM     17  O   UNL     1      33.830 -22.924 -18.299  0.00  0.00    -0.383 OA
BRANCH  17  21
ATOM     18  C   UNL     1      34.264 -19.551 -20.680  0.00  0.00    +0.057 C 
ATOM     19  C   UNL     1      32.992 -19.976 -20.297  0.00  0.00    +0.018 C 
ATOM     20  C   UNL     1      35.391 -20.260 -20.262  0.00  0.00    +0.018 C 
ATOM     21  C   UNL     1      33.975 -21.804 -19.089  0.00  0.00    +0.160 C 
ATOM     22  C   UNL     1      32.847 -21.109 -19.497  0.00  0.00    +0.040 C 
ATOM     23  C   UNL     1      35.245 -21.393 -19.462  0.00  0.00    +0.040 C 
BRANCH  18  24
ATOM     24  N   UNL     1      34.409 -18.428 -21.473  0.00  0.00    -0.246 N 
ATOM     25  N   UNL     1      34.391 -17.134 -23.288  0.00  0.00    -0.224 NA
ATOM     26  C   UNL     1      34.826 -17.186 -21.064  0.00  0.00    +0.092 C 
ATOM     27  C   UNL     1      34.161 -18.341 -22.819  0.00  0.00    +0.172 C 
ATOM     28  C   UNL     1      34.807 -16.410 -22.199  0.00  0.00    +0.117 C 
ENDBRANCH  18  24
ENDBRANCH  17  21
ENDBRANCH   4  17
TORSDOF 5
ENDMDL
MODEL 3
REMARK VINA RESULT:     -12.5      1.552      2.206
REMARK  Name = 9969613
REMARK  5 active torsions:
REMARK  status: ('A' for Active; 'I' for Inactive)
REMARK    1  A    between atoms: C_3  and  O_7
REMARK    2  A    between atoms: C_4  and  O_17
REMARK    3  A    between atoms: O_7  and  C_13
REMARK    4  A    between atoms: O_17  and  C_21
REMARK    5  A    between atoms: C_18  and  N_24
REMARK                            x       y       z     vdW  Elec       q    Type
REMARK                         _______ _______ _______ _____ _____    ______ ____
ROOT
ATOM      1  N   UNL     1      35.588 -21.625 -17.353  0.00  0.00    -0.283 NA
ATOM      2  N   UNL     1      34.052 -21.744 -19.207  0.00  0.00    -0.151 NA
ATOM      3  C   UNL     1      34.653 -22.234 -16.606  0.00  0.00    +0.296 C 
ATOM      4  C   UNL     1      35.225 -21.412 -18.633  0.00  0.00    +0.260 C 
ATOM      5  C   UNL     1      33.419 -22.627 -17.060  0.00  0.00    +0.094 C 
ATOM      6  C   UNL     1      33.168 -22.352 -18.388  0.00  0.00    +0.119 C 
ENDROOT
BRANCH   3   7
ATOM      7  O   UNL     1      34.982 -22.474 -15.282  0.00  0.00    -0.427 OA
BRANCH   7  13
ATOM      8  O   UNL     1      39.447 -24.097 -14.458  0.00  0.00    -0.435 OA
ATOM      9  O   UNL     1      38.673 -26.368 -14.238  0.00  0.00    -0.435 OA
ATOM     10  C   UNL     1      38.101 -24.202 -14.622  0.00  0.00    +0.179 C 
ATOM     11  C   UNL     1      37.658 -25.499 -14.495  0.00  0.00    +0.177 C 
ATOM     12  C   UNL     1      37.233 -23.162 -14.885  0.00  0.00    +0.078 C 
ATOM     13  C   UNL     1      35.876 -23.468 -15.022  0.00  0.00    +0.151 C 
ATOM     14  C   UNL     1      36.324 -25.828 -14.627  0.00  0.00    +0.043 C 
ATOM     15  C   UNL     1      39.803 -25.472 -14.214  0.00  0.00    +0.429 C 
ATOM     16  C   UNL     1      35.425 -24.792 -14.894  0.00  0.00    +0.041 C 
ENDBRANCH   7  13
ENDBRANCH   3   7
BRANCH   4  17
ATOM     17  O   UNL     1      36.150 -20.791 -19.439  0.00  0.00    -0.383 OA
BRANCH  17  21
ATOM     18  C   UNL     1      34.713 -18.057 -22.213  0.00  0.00    +0.057 C 
ATOM     19  C   UNL     1      36.008 -17.926 -21.711  0.00  0.00    +0.018 C 
ATOM     20  C   UNL     1      33.901 -19.107 -21.783  0.00  0.00    +0.018 C 
ATOM     21  C   UNL     1      35.673 -19.883 -20.360  0.00  0.00    +0.160 C 
ATOM     22  C   UNL     1      36.490 -18.845 -20.779  0.00  0.00    +0.040 C 
ATOM     23  C   UNL     1      34.384 -20.026 -20.851  0.00  0.00    +0.040 C 
BRANCH  18  24
ATOM     24  N   UNL     1      34.234 -17.147 -23.137  0.00  0.00    -0.246 N 
ATOM     25  N   UNL     1      33.233 -16.354 -24.964  0.00  0.00    -0.224 NA
ATOM     26  C   UNL     1      34.339 -15.781 -23.070  0.00  0.00    +0.092 C 
ATOM     27  C   UNL     1      33.560 -17.438 -24.296  0.00  0.00    +0.172 C 
ATOM     28  C   UNL     1      33.716 -15.317 -24.205  0.00  0.00    +0.117 C 
ENDBRANCH  18  24
ENDBRANCH  17  21
ENDBRANCH   4  17
TORSDOF 5
ENDMDL
MODEL 4
REMARK VINA RESULT:     -12.4      4.481      8.286
REMARK  Name = 9969613
REMARK  5 active torsions:
REMARK  status: ('A' for Active; 'I' for Inactive)
REMARK    1  A    between atoms: C_3  and  O_7
REMARK    2  A    between atoms: C_4  and  O_17
REMARK    3  A    between atoms: O_7  and  C_13
REMARK    4  A    between atoms: O_17  and  C_21
REMARK    5  A    between atoms: C_18  and  N_24
REMARK                            x       y       z     vdW  Elec       q    Type
REMARK                         _______ _______ _______ _____ _____    ______ ____
ROOT
ATOM      1  N   UNL     1      34.748 -17.199 -20.705  0.00  0.00    -0.283 NA
ATOM      2  N   UNL     1      34.154 -15.734 -22.525  0.00  0.00    -0.151 NA
ATOM      3  C   UNL     1      34.971 -18.159 -21.617  0.00  0.00    +0.296 C 
ATOM      4  C   UNL     1      34.345 -16.023 -21.223  0.00  0.00    +0.260 C 
ATOM      5  C   UNL     1      34.817 -18.004 -22.973  0.00  0.00    +0.094 C 
ATOM      6  C   UNL     1      34.400 -16.753 -23.376  0.00  0.00    +0.119 C 
ENDROOT
BRANCH   3   7
ATOM      7  O   UNL     1      35.387 -19.387 -21.132  0.00  0.00    -0.427 OA
BRANCH   7  13
ATOM      8  O   UNL     1      34.402 -22.533 -17.613  0.00  0.00    -0.435 OA
ATOM      9  O   UNL     1      32.028 -22.227 -17.886  0.00  0.00    -0.435 OA
ATOM     10  C   UNL     1      34.106 -21.640 -18.596  0.00  0.00    +0.179 C 
ATOM     11  C   UNL     1      32.750 -21.464 -18.752  0.00  0.00    +0.177 C 
ATOM     12  C   UNL     1      35.020 -20.962 -19.375  0.00  0.00    +0.078 C 
ATOM     13  C   UNL     1      34.523 -20.080 -20.339  0.00  0.00    +0.151 C 
ATOM     14  C   UNL     1      32.234 -20.600 -19.697  0.00  0.00    +0.043 C 
ATOM     15  C   UNL     1      33.081 -22.900 -17.168  0.00  0.00    +0.429 C 
ATOM     16  C   UNL     1      33.139 -19.901 -20.499  0.00  0.00    +0.041 C 
ENDBRANCH   7  13
ENDBRANCH   3   7
BRANCH   4  17
ATOM     17  O   UNL     1      34.104 -15.008 -20.327  0.00  0.00    -0.383 OA
BRANCH  17  21
ATOM     18  C   UNL     1      32.263 -11.587 -21.790  0.00  0.00    +0.057 C 
ATOM     19  C   UNL     1      31.731 -12.245 -20.682  0.00  0.00    +0.018 C 
ATOM     20  C   UNL     1      33.414 -12.078 -22.407  0.00  0.00    +0.018 C 
ATOM     21  C   UNL     1      33.493 -13.872 -20.813  0.00  0.00    +0.160 C 
ATOM     22  C   UNL     1      32.350 -13.394 -20.190  0.00  0.00    +0.040 C 
ATOM     23  C   UNL     1      34.033 -13.228 -21.915  0.00  0.00    +0.040 C 
BRANCH  18  24
ATOM     24  N   UNL     1      31.651 -10.447 -22.278  0.00  0.00    -0.246 N 
ATOM     25  N   UNL     1      31.328  -8.603 -23.487  0.00  0.00    -0.224 NA
ATOM     26  C   UNL     1      30.429  -9.951 -21.902  0.00  0.00    +0.092 C 
ATOM     27  C   UNL     1      32.148  -9.599 -23.235  0.00  0.00    +0.172 C 
ATOM     28  C   UNL     1      30.254  -8.816 -22.659  0.00  0.00    +0.117 C 
ENDBRANCH  18  24
ENDBRANCH  17  21
ENDBRANCH   4  17
TORSDOF 5
ENDMDL
MODEL 5
REMARK VINA RESULT:     -12.1      4.530     10.610
REMARK  Name = 9969613
REMARK  5 active torsions:
REMARK  status: ('A' for Active; 'I' for Inactive)
REMARK    1  A    between atoms: C_3  and  O_7
REMARK    2  A    between atoms: C_4  and  O_17
REMARK    3  A    between atoms: O_7  and  C_13
REMARK    4  A    between atoms: O_17  and  C_21
REMARK    5  A    between atoms: C_18  and  N_24
REMARK                            x       y       z     vdW  Elec       q    Type
REMARK                         _______ _______ _______ _____ _____    ______ ____
ROOT
ATOM      1  N   UNL     1      35.301 -17.080 -22.381  0.00  0.00    -0.283 NA
ATOM      2  N   UNL     1      34.141 -19.016 -23.229  0.00  0.00    -0.151 NA
ATOM      3  C   UNL     1      34.574 -16.336 -23.230  0.00  0.00    +0.296 C 
ATOM      4  C   UNL     1      35.036 -18.400 -22.432  0.00  0.00    +0.260 C 
ATOM      5  C   UNL     1      33.631 -16.830 -24.096  0.00  0.00    +0.094 C 
ATOM      6  C   UNL     1      33.453 -18.197 -24.052  0.00  0.00    +0.119 C 
ENDROOT
BRANCH   3   7
ATOM      7  O   UNL     1      34.812 -14.972 -23.214  0.00  0.00    -0.427 OA
BRANCH   7  13
ATOM      8  O   UNL     1      31.950 -11.120 -22.737  0.00  0.00    -0.435 OA
ATOM      9  O   UNL     1      31.346 -11.740 -20.489  0.00  0.00    -0.435 OA
ATOM     10  C   UNL     1      32.557 -12.271 -22.338  0.00  0.00    +0.179 C 
ATOM     11  C   UNL     1      32.211 -12.626 -21.054  0.00  0.00    +0.177 C 
ATOM     12  C   UNL     1      33.425 -13.032 -23.092  0.00  0.00    +0.078 C 
ATOM     13  C   UNL     1      33.951 -14.188 -22.508  0.00  0.00    +0.151 C 
ATOM     14  C   UNL     1      32.716 -13.761 -20.453  0.00  0.00    +0.043 C 
ATOM     15  C   UNL     1      31.184 -10.790 -21.562  0.00  0.00    +0.429 C 
ATOM     16  C   UNL     1      33.599 -14.549 -21.196  0.00  0.00    +0.041 C 
ENDBRANCH   7  13
ENDBRANCH   3   7
BRANCH   4  17
ATOM     17  O   UNL     1      35.755 -19.205 -21.579  0.00  0.00    -0.383 OA
BRANCH  17  21
ATOM     18  C   UNL     1      33.625 -21.275 -18.680  0.00  0.00    +0.057 C 
ATOM     19  C   UNL     1      35.012 -21.403 -18.750  0.00  0.00    +0.018 C 
ATOM     20  C   UNL     1      32.953 -20.452 -19.584  0.00  0.00    +0.018 C 
ATOM     21  C   UNL     1      35.048 -19.892 -20.616  0.00  0.00    +0.160 C 
ATOM     22  C   UNL     1      35.728 -20.706 -19.725  0.00  0.00    +0.040 C 
ATOM     23  C   UNL     1      33.670 -19.756 -20.558  0.00  0.00    +0.040 C 
BRANCH  18  24
ATOM     24  N   UNL     1      32.915 -21.964 -17.714  0.00  0.00    -0.246 N 
ATOM     25  N   UNL     1      32.503 -23.301 -15.979  0.00  0.00    -0.224 NA
ATOM     26  C   UNL     1      31.556 -21.947 -17.530  0.00  0.00    +0.092 C 
ATOM     27  C   UNL     1      33.436 -22.794 -16.754  0.00  0.00    +0.172 C 
ATOM     28  C   UNL     1      31.329 -22.778 -16.458  0.00  0.00    +0.117 C 
ENDBRANCH  18  24
ENDBRANCH  17  21
ENDBRANCH   4  17
TORSDOF 5
ENDMDL
MODEL 6
REMARK VINA RESULT:     -11.8      3.193      5.493
REMARK  Name = 9969613
REMARK  5 active torsions:
REMARK  status: ('A' for Active; 'I' for Inactive)
REMARK    1  A    between atoms: C_3  and  O_7
REMARK    2  A    between atoms: C_4  and  O_17
REMARK    3  A    between atoms: O_7  and  C_13
REMARK    4  A    between atoms: O_17  and  C_21
REMARK    5  A    between atoms: C_18  and  N_24
REMARK                            x       y       z     vdW  Elec       q    Type
REMARK                         _______ _______ _______ _____ _____    ______ ____
ROOT
ATOM      1  N   UNL     1      34.969 -20.698 -19.820  0.00  0.00    -0.283 NA
ATOM      2  N   UNL     1      33.137 -19.490 -20.818  0.00  0.00    -0.151 NA
ATOM      3  C   UNL     1      34.061 -21.388 -19.112  0.00  0.00    +0.296 C 
ATOM      4  C   UNL     1      34.443 -19.773 -20.646  0.00  0.00    +0.260 C 
ATOM      5  C   UNL     1      32.703 -21.205 -19.187  0.00  0.00    +0.094 C 
ATOM      6  C   UNL     1      32.291 -20.228 -20.069  0.00  0.00    +0.119 C 
ENDROOT
BRANCH   3   7
ATOM      7  O   UNL     1      34.554 -22.351 -18.247  0.00  0.00    -0.427 OA
BRANCH   7  13
ATOM      8  O   UNL     1      30.631 -23.239 -15.589  0.00  0.00    -0.435 OA
ATOM      9  O   UNL     1      31.874 -23.046 -13.534  0.00  0.00    -0.435 OA
ATOM     10  C   UNL     1      31.945 -22.962 -15.805  0.00  0.00    +0.179 C 
ATOM     11  C   UNL     1      32.656 -22.853 -14.631  0.00  0.00    +0.177 C 
ATOM     12  C   UNL     1      32.548 -22.800 -17.035  0.00  0.00    +0.078 C 
ATOM     13  C   UNL     1      33.916 -22.519 -17.056  0.00  0.00    +0.151 C 
ATOM     14  C   UNL     1      34.008 -22.575 -14.624  0.00  0.00    +0.043 C 
ATOM     15  C   UNL     1      30.593 -23.291 -14.149  0.00  0.00    +0.429 C 
ATOM     16  C   UNL     1      34.642 -22.406 -15.858  0.00  0.00    +0.041 C 
ENDBRANCH   7  13
ENDBRANCH   3   7
BRANCH   4  17
ATOM     17  O   UNL     1      35.335 -19.040 -21.394  0.00  0.00    -0.383 OA
BRANCH  17  21
ATOM     18  C   UNL     1      34.047 -15.351 -22.797  0.00  0.00    +0.057 C 
ATOM     19  C   UNL     1      34.202 -16.418 -23.682  0.00  0.00    +0.018 C 
ATOM     20  C   UNL     1      34.324 -15.523 -21.441  0.00  0.00    +0.018 C 
ATOM     21  C   UNL     1      34.907 -17.815 -21.860  0.00  0.00    +0.160 C 
ATOM     22  C   UNL     1      34.635 -17.658 -23.210  0.00  0.00    +0.040 C 
ATOM     23  C   UNL     1      34.756 -16.763 -20.969  0.00  0.00    +0.040 C 
BRANCH  18  24
ATOM     24  N   UNL     1      33.618 -14.122 -23.264  0.00  0.00    -0.246 N 
ATOM     25  N   UNL     1      32.745 -12.596 -24.634  0.00  0.00    -0.224 NA
ATOM     26  C   UNL     1      33.675 -12.927 -22.593  0.00  0.00    +0.092 C 
ATOM     27  C   UNL     1      33.049 -13.866 -24.486  0.00  0.00    +0.172 C 
ATOM     28  C   UNL     1      33.133 -12.005 -23.458  0.00  0.00    +0.117 C 
ENDBRANCH  18  24
ENDBRANCH  17  21
ENDBRANCH   4  17
TORSDOF 5
ENDMDL
MODEL 7
REMARK VINA RESULT:     -11.7      3.486      9.766
REMARK  Name = 9969613
REMARK  5 active torsions:
REMARK  status: ('A' for Active; 'I' for Inactive)
REMARK    1  A    between atoms: C_3  and  O_7
REMARK    2  A    between atoms: C_4  and  O_17
REMARK    3  A    between atoms: O_7  and  C_13
REMARK    4  A    between atoms: O_17  and  C_21
REMARK    5  A    between atoms: C_18  and  N_24
REMARK                            x       y       z     vdW  Elec       q    Type
REMARK                         _______ _______ _______ _____ _____    ______ ____
ROOT
ATOM      1  N   UNL     1      35.124 -20.334 -19.826  0.00  0.00    -0.283 NA
ATOM      2  N   UNL     1      32.905 -21.164 -19.381  0.00  0.00    -0.151 NA
ATOM      3  C   UNL     1      34.575 -19.496 -20.720  0.00  0.00    +0.296 C 
ATOM      4  C   UNL     1      34.239 -21.133 -19.198  0.00  0.00    +0.260 C 
ATOM      5  C   UNL     1      33.235 -19.420 -21.006  0.00  0.00    +0.094 C 
ATOM      6  C   UNL     1      32.434 -20.290 -20.296  0.00  0.00    +0.119 C 
ENDROOT
BRANCH   3   7
ATOM      7  O   UNL     1      35.446 -18.654 -21.391  0.00  0.00    -0.427 OA
BRANCH   7  13
ATOM      8  O   UNL     1      33.794 -16.045 -25.095  0.00  0.00    -0.435 OA
ATOM      9  O   UNL     1      33.386 -14.137 -23.681  0.00  0.00    -0.435 OA
ATOM     10  C   UNL     1      34.131 -16.282 -23.798  0.00  0.00    +0.179 C 
ATOM     11  C   UNL     1      33.897 -15.192 -22.990  0.00  0.00    +0.177 C 
ATOM     12  C   UNL     1      34.649 -17.458 -23.298  0.00  0.00    +0.078 C 
ATOM     13  C   UNL     1      34.934 -17.513 -21.931  0.00  0.00    +0.151 C 
ATOM     14  C   UNL     1      34.170 -15.220 -21.637  0.00  0.00    +0.043 C 
ATOM     15  C   UNL     1      33.323 -14.685 -25.014  0.00  0.00    +0.429 C 
ATOM     16  C   UNL     1      34.696 -16.400 -21.106  0.00  0.00    +0.041 C 
ENDBRANCH   7  13
ENDBRANCH   3   7
BRANCH   4  17
ATOM     17  O   UNL     1      34.753 -22.010 -18.272  0.00  0.00    -0.383 OA
BRANCH  17  21
ATOM     18  C   UNL     1      32.273 -23.122 -15.134  0.00  0.00    +0.057 C 
ATOM     19  C   UNL     1      33.615 -22.830 -14.893  0.00  0.00    +0.018 C 
ATOM     20  C   UNL     1      31.764 -23.040 -16.431  0.00  0.00    +0.018 C 
ATOM     21  C   UNL     1      33.929 -22.379 -17.230  0.00  0.00    +0.160 C 
ATOM     22  C   UNL     1      34.448 -22.456 -15.947  0.00  0.00    +0.040 C 
ATOM     23  C   UNL     1      32.598 -22.666 -17.485  0.00  0.00    +0.040 C 
BRANCH  18  24
ATOM     24  N   UNL     1      31.446 -23.492 -14.090  0.00  0.00    -0.246 N 
ATOM     25  N   UNL     1      30.320 -23.366 -12.170  0.00  0.00    -0.224 NA
ATOM     26  C   UNL     1      30.777 -24.682 -13.959  0.00  0.00    +0.092 C 
ATOM     27  C   UNL     1      31.136 -22.737 -12.987  0.00  0.00    +0.172 C 
ATOM     28  C   UNL     1      30.093 -24.580 -12.770  0.00  0.00    +0.117 C 
ENDBRANCH  18  24
ENDBRANCH  17  21
ENDBRANCH   4  17
TORSDOF 5
ENDMDL
MODEL 8
REMARK VINA RESULT:     -11.6      4.041     10.479
REMARK  Name = 9969613
REMARK  5 active torsions:
REMARK  status: ('A' for Active; 'I' for Inactive)
REMARK    1  A    between atoms: C_3  and  O_7
REMARK    2  A    between atoms: C_4  and  O_17
REMARK    3  A    between atoms: O_7  and  C_13
REMARK    4  A    between atoms: O_17  and  C_21
REMARK    5  A    between atoms: C_18  and  N_24
REMARK                            x       y       z     vdW  Elec       q    Type
REMARK                         _______ _______ _______ _____ _____    ______ ____
ROOT
ATOM      1  N   UNL     1      34.109 -19.329 -21.757  0.00  0.00    -0.283 NA
ATOM      2  N   UNL     1      35.804 -19.540 -20.056  0.00  0.00    -0.151 NA
ATOM      3  C   UNL     1      34.904 -18.436 -22.367  0.00  0.00    +0.296 C 
ATOM      4  C   UNL     1      34.616 -19.837 -20.617  0.00  0.00    +0.260 C 
ATOM      5  C   UNL     1      36.136 -18.040 -21.909  0.00  0.00    +0.094 C 
ATOM      6  C   UNL     1      36.542 -18.633 -20.732  0.00  0.00    +0.119 C 
ENDROOT
BRANCH   3   7
ATOM      7  O   UNL     1      34.425 -17.885 -23.544  0.00  0.00    -0.427 OA
BRANCH   7  13
ATOM      8  O   UNL     1      32.760 -13.882 -25.656  0.00  0.00    -0.435 OA
ATOM      9  O   UNL     1      33.117 -12.578 -23.661  0.00  0.00    -0.435 OA
ATOM     10  C   UNL     1      33.279 -14.624 -24.640  0.00  0.00    +0.179 C 
ATOM     11  C   UNL     1      33.482 -13.880 -23.500  0.00  0.00    +0.177 C 
ATOM     12  C   UNL     1      33.583 -15.969 -24.692  0.00  0.00    +0.078 C 
ATOM     13  C   UNL     1      34.110 -16.560 -23.540  0.00  0.00    +0.151 C 
ATOM     14  C   UNL     1      34.001 -14.439 -22.350  0.00  0.00    +0.043 C 
ATOM     15  C   UNL     1      32.661 -12.588 -25.029  0.00  0.00    +0.429 C 
ATOM     16  C   UNL     1      34.319 -15.800 -22.377  0.00  0.00    +0.041 C 
ENDBRANCH   7  13
ENDBRANCH   3   7
BRANCH   4  17
ATOM     17  O   UNL     1      33.838 -20.758 -19.956  0.00  0.00    -0.383 OA
BRANCH  17  21
ATOM     18  C   UNL     1      35.369 -22.362 -16.446  0.00  0.00    +0.057 C 
ATOM     19  C   UNL     1      34.021 -22.532 -16.761  0.00  0.00    +0.018 C 
ATOM     20  C   UNL     1      36.203 -21.652 -17.311  0.00  0.00    +0.018 C 
ATOM     21  C   UNL     1      34.347 -21.291 -18.790  0.00  0.00    +0.160 C 
ATOM     22  C   UNL     1      33.507 -21.993 -17.940  0.00  0.00    +0.040 C 
ATOM     23  C   UNL     1      35.688 -21.114 -18.491  0.00  0.00    +0.040 C 
BRANCH  18  24
ATOM     24  N   UNL     1      35.880 -22.896 -15.278  0.00  0.00    -0.246 N 
ATOM     25  N   UNL     1      37.169 -23.126 -13.474  0.00  0.00    -0.224 NA
ATOM     26  C   UNL     1      35.444 -24.027 -14.637  0.00  0.00    +0.092 C 
ATOM     27  C   UNL     1      36.918 -22.393 -14.535  0.00  0.00    +0.172 C 
ATOM     28  C   UNL     1      36.253 -24.147 -13.531  0.00  0.00    +0.117 C 
ENDBRANCH  18  24
ENDBRANCH  17  21
ENDBRANCH   4  17
TORSDOF 5
ENDMDL
MODEL 9
REMARK VINA RESULT:     -11.5      2.963      5.333
REMARK  Name = 9969613
REMARK  5 active torsions:
REMARK  status: ('A' for Active; 'I' for Inactive)
REMARK    1  A    between atoms: C_3  and  O_7
REMARK    2  A    between atoms: C_4  and  O_17
REMARK    3  A    between atoms: O_7  and  C_13
REMARK    4  A    between atoms: O_17  and  C_21
REMARK    5  A    between atoms: C_18  and  N_24
REMARK                            x       y       z     vdW  Elec       q    Type
REMARK                         _______ _______ _______ _____ _____    ______ ____
ROOT
ATOM      1  N   UNL     1      35.810 -19.635 -20.596  0.00  0.00    -0.283 NA
ATOM      2  N   UNL     1      33.535 -19.233 -21.283  0.00  0.00    -0.151 NA
ATOM      3  C   UNL     1      35.327 -20.482 -19.672  0.00  0.00    +0.296 C 
ATOM      4  C   UNL     1      34.867 -19.051 -21.360  0.00  0.00    +0.260 C 
ATOM      5  C   UNL     1      33.997 -20.762 -19.482  0.00  0.00    +0.094 C 
ATOM      6  C   UNL     1      33.133 -20.099 -20.329  0.00  0.00    +0.119 C 
ENDROOT
BRANCH   3   7
ATOM      7  O   UNL     1      36.260 -21.107 -18.860  0.00  0.00    -0.427 OA
BRANCH   7  13
ATOM      8  O   UNL     1      36.916 -22.211 -14.213  0.00  0.00    -0.435 OA
ATOM      9  O   UNL     1      34.663 -23.038 -14.002  0.00  0.00    -0.435 OA
ATOM     10  C   UNL     1      36.220 -22.115 -15.377  0.00  0.00    +0.179 C 
ATOM     11  C   UNL     1      34.932 -22.587 -15.258  0.00  0.00    +0.177 C 
ATOM     12  C   UNL     1      36.700 -21.612 -16.569  0.00  0.00    +0.078 C 
ATOM     13  C   UNL     1      35.831 -21.595 -17.664  0.00  0.00    +0.151 C 
ATOM     14  C   UNL     1      34.054 -22.582 -16.322  0.00  0.00    +0.043 C 
ATOM     15  C   UNL     1      35.924 -22.796 -13.346  0.00  0.00    +0.429 C 
ATOM     16  C   UNL     1      34.517 -22.078 -17.541  0.00  0.00    +0.041 C 
ENDBRANCH   7  13
ENDBRANCH   3   7
BRANCH   4  17
ATOM     17  O   UNL     1      35.313 -18.175 -22.322  0.00  0.00    -0.383 OA
BRANCH  17  21
ATOM     18  C   UNL     1      33.584 -14.401 -22.394  0.00  0.00    +0.057 C 
ATOM     19  C   UNL     1      34.005 -14.953 -21.184  0.00  0.00    +0.018 C 
ATOM     20  C   UNL     1      33.745 -15.118 -23.581  0.00  0.00    +0.018 C 
ATOM     21  C   UNL     1      34.739 -16.922 -22.347  0.00  0.00    +0.160 C 
ATOM     22  C   UNL     1      34.586 -16.221 -21.161  0.00  0.00    +0.040 C 
ATOM     23  C   UNL     1      34.326 -16.386 -23.556  0.00  0.00    +0.040 C 
BRANCH  18  24
ATOM     24  N   UNL     1      33.008 -13.145 -22.419  0.00  0.00    -0.246 N 
ATOM     25  N   UNL     1      32.586 -11.052 -23.058  0.00  0.00    -0.224 NA
ATOM     26  C   UNL     1      32.026 -12.679 -21.583  0.00  0.00    +0.092 C 
ATOM     27  C   UNL     1      33.308 -12.126 -23.288  0.00  0.00    +0.172 C 
ATOM     28  C   UNL     1      31.785 -11.389 -21.996  0.00  0.00    +0.117 C 
ENDBRANCH  18  24
ENDBRANCH  17  21
ENDBRANCH   4  17
TORSDOF 5
ENDMDL
