MODEL 1
REMARK VINA RESULT:     -12.9      0.000      0.000
REMARK  Name = 2448
REMARK  7 active torsions:
REMARK  status: ('A' for Active; 'I' for Inactive)
REMARK    1  A    between atoms: N_1  and  C_17
REMARK    2  A    between atoms: C_2  and  C_9
REMARK    3  A    between atoms: C_2  and  O_15
REMARK    4  A    between atoms: C_17  and  C_18
REMARK    5  A    between atoms: C_18  and  C_19
REMARK    6  A    between atoms: C_19  and  C_21
REMARK    7  A    between atoms: C_21  and  C_23
REMARK                            x       y       z     vdW  Elec       q    Type
REMARK                         _______ _______ _______ _____ _____    ______ ____
ROOT
ATOM      1  N   UNL     1      34.833 -19.938 -19.939  0.00  0.00    +0.387 N 
ATOM      2  C   UNL     1      33.370 -22.013 -18.398  0.00  0.00    +0.103 C 
ATOM      3  C   UNL     1      32.680 -20.851 -19.146  0.00  0.00    +0.008 C 
ATOM      4  C   UNL     1      34.835 -21.612 -18.107  0.00  0.00    +0.008 C 
ATOM      5  C   UNL     1      33.486 -20.349 -20.349  0.00  0.00    -0.075 C 
ATOM      6  C   UNL     1      35.565 -21.057 -19.336  0.00  0.00    -0.075 C 
ATOM      7  H   UNL     1      34.740 -19.207 -19.234  0.00  0.00    -0.080 HD
ENDROOT
BRANCH   2   9
ATOM      8 BR   UNL     1      30.531 -23.826 -13.183  0.00  0.00    -0.049 Br
ATOM      9  C   UNL     1      32.670 -22.458 -17.112  0.00  0.00    +0.002 C 
ATOM     10  C   UNL     1      33.414 -23.009 -16.070  0.00  0.00    -0.002 C 
ATOM     11  C   UNL     1      31.289 -22.313 -16.986  0.00  0.00    -0.002 C 
ATOM     12  C   UNL     1      32.777 -23.416 -14.898  0.00  0.00    +0.006 C 
ATOM     13  C   UNL     1      30.651 -22.721 -15.814  0.00  0.00    +0.006 C 
ATOM     14  C   UNL     1      31.395 -23.272 -14.770  0.00  0.00    +0.035 C 
ENDBRANCH   2   9
BRANCH   2  15
ATOM     15  O   UNL     1      33.351 -23.161 -19.258  0.00  0.00    -0.383 OA
ATOM     16  H   UNL     1      32.532 -23.161 -19.780  0.00  0.00    +0.211 HD
ENDBRANCH   2  15
BRANCH   1  17
ATOM     17  C   UNL     1      35.573 -19.395 -21.077  0.00  0.00    -0.077 C 
BRANCH  17  18
ATOM     18  C   UNL     1      34.604 -18.939 -22.170  0.00  0.00    -0.015 C 
BRANCH  18  19
ATOM     19  C   UNL     1      34.867 -17.499 -22.618  0.00  0.00    +0.067 C 
BRANCH  19  21
ATOM     20  O   UNL     1      34.954 -16.721 -20.335  0.00  0.00    -0.291 OA
ATOM     21  C   UNL     1      34.676 -16.476 -21.506  0.00  0.00    +0.173 C 
BRANCH  21  23
ATOM     22  F   UNL     1      32.724 -11.417 -22.836  0.00  0.00    -0.204 F 
ATOM     23  C   UNL     1      34.155 -15.126 -21.861  0.00  0.00    +0.035 C 
ATOM     24  C   UNL     1      34.113 -14.761 -23.188  0.00  0.00    +0.005 C 
ATOM     25  C   UNL     1      33.735 -14.292 -20.849  0.00  0.00    +0.005 C 
ATOM     26  C   UNL     1      33.625 -13.498 -23.520  0.00  0.00    +0.030 C 
ATOM     27  C   UNL     1      33.247 -13.029 -21.181  0.00  0.00    +0.030 C 
ATOM     28  C   UNL     1      33.192 -12.631 -22.517  0.00  0.00    +0.140 C 
ENDBRANCH  21  23
ENDBRANCH  19  21
ENDBRANCH  18  19
ENDBRANCH  17  18
ENDBRANCH   1  17
TORSDOF 7
ENDMDL
MODEL 2
REMARK VINA RESULT:     -12.4      1.227      1.808
REMARK  Name = 2448
REMARK  7 active torsions:
REMARK  status: ('A' for Active; 'I' for Inactive)
REMARK    1  A    between atoms: N_1  and  C_17
REMARK    2  A    between atoms: C_2  and  C_9
REMARK    3  A    between atoms: C_2  and  O_15
REMARK    4  A    between atoms: C_17  and  C_18
REMARK    5  A    between atoms: C_18  and  C_19
REMARK    6  A    between atoms: C_19  and  C_21
REMARK    7  A    between atoms: C_21  and  C_23
REMARK                            x       y       z     vdW  Elec       q    Type
REMARK                         _______ _______ _______ _____ _____    ______ ____
ROOT
ATOM      1  N   UNL     1      34.168 -19.440 -20.694  0.00  0.00    +0.387 N 
ATOM      2  C   UNL     1      34.018 -21.694 -18.766  0.00  0.00    +0.103 C 
ATOM      3  C   UNL     1      32.814 -20.803 -19.143  0.00  0.00    +0.008 C 
ATOM      4  C   UNL     1      35.320 -20.917 -19.067  0.00  0.00    +0.008 C 
ATOM      5  C   UNL     1      32.925 -20.207 -20.551  0.00  0.00    -0.075 C 
ATOM      6  C   UNL     1      35.341 -20.289 -20.466  0.00  0.00    -0.075 C 
ATOM      7  H   UNL     1      34.169 -18.705 -19.987  0.00  0.00    -0.080 HD
ENDROOT
BRANCH   2   9
ATOM      8 BR   UNL     1      34.014 -23.751 -12.909  0.00  0.00    -0.049 Br
ATOM      9  C   UNL     1      34.017 -22.203 -17.323  0.00  0.00    +0.002 C 
ATOM     10  C   UNL     1      32.870 -22.786 -16.791  0.00  0.00    -0.002 C 
ATOM     11  C   UNL     1      35.166 -22.079 -16.542  0.00  0.00    -0.002 C 
ATOM     12  C   UNL     1      32.868 -23.249 -15.475  0.00  0.00    +0.006 C 
ATOM     13  C   UNL     1      35.165 -22.541 -15.225  0.00  0.00    +0.006 C 
ATOM     14  C   UNL     1      34.016 -23.127 -14.693  0.00  0.00    +0.035 C 
ENDBRANCH   2   9
BRANCH   2  15
ATOM     15  O   UNL     1      33.965 -22.872 -19.585  0.00  0.00    -0.383 OA
ATOM     16  H   UNL     1      34.868 -23.169 -19.781  0.00  0.00    +0.211 HD
ENDBRANCH   2  15
BRANCH   1  17
ATOM     17  C   UNL     1      34.235 -18.816 -22.015  0.00  0.00    -0.077 C 
BRANCH  17  18
ATOM     18  C   UNL     1      35.290 -17.707 -22.024  0.00  0.00    -0.015 C 
BRANCH  18  19
ATOM     19  C   UNL     1      34.714 -16.361 -22.472  0.00  0.00    +0.067 C 
BRANCH  19  21
ATOM     20  O   UNL     1      34.349 -15.839 -20.144  0.00  0.00    -0.291 OA
ATOM     21  C   UNL     1      34.206 -15.507 -21.319  0.00  0.00    +0.173 C 
BRANCH  21  23
ATOM     22  F   UNL     1      31.681 -10.666 -22.485  0.00  0.00    -0.204 F 
ATOM     23  C   UNL     1      33.532 -14.215 -21.630  0.00  0.00    +0.035 C 
ATOM     24  C   UNL     1      33.866 -13.558 -22.794  0.00  0.00    +0.005 C 
ATOM     25  C   UNL     1      32.600 -13.724 -20.742  0.00  0.00    +0.005 C 
ATOM     26  C   UNL     1      33.235 -12.350 -23.085  0.00  0.00    +0.030 C 
ATOM     27  C   UNL     1      31.969 -12.516 -21.034  0.00  0.00    +0.030 C 
ATOM     28  C   UNL     1      32.286 -11.828 -22.205  0.00  0.00    +0.140 C 
ENDBRANCH  21  23
ENDBRANCH  19  21
ENDBRANCH  18  19
ENDBRANCH  17  18
ENDBRANCH   1  17
TORSDOF 7
ENDMDL
MODEL 3
REMARK VINA RESULT:     -12.3      5.315     10.507
REMARK  Name = 2448
REMARK  7 active torsions:
REMARK  status: ('A' for Active; 'I' for Inactive)
REMARK    1  A    between atoms: N_1  and  C_17
REMARK    2  A    between atoms: C_2  and  C_9
REMARK    3  A    between atoms: C_2  and  O_15
REMARK    4  A    between atoms: C_17  and  C_18
REMARK    5  A    between atoms: C_18  and  C_19
REMARK    6  A    between atoms: C_19  and  C_21
REMARK    7  A    between atoms: C_21  and  C_23
REMARK                            x       y       z     vdW  Elec       q    Type
REMARK                         _______ _______ _______ _____ _____    ______ ____
ROOT
ATOM      1  N   UNL     1      34.121 -14.306 -22.494  0.00  0.00    +0.387 N 
ATOM      2  C   UNL     1      32.209 -12.050 -22.218  0.00  0.00    +0.103 C 
ATOM      3  C   UNL     1      32.942 -12.400 -23.531  0.00  0.00    +0.008 C 
ATOM      4  C   UNL     1      33.014 -12.633 -21.033  0.00  0.00    +0.008 C 
ATOM      5  C   UNL     1      33.305 -13.886 -23.638  0.00  0.00    -0.075 C 
ATOM      6  C   UNL     1      33.403 -14.103 -21.231  0.00  0.00    -0.075 C 
ATOM      7  H   UNL     1      34.960 -13.727 -22.474  0.00  0.00    -0.080 HD
ENDROOT
BRANCH   2   9
ATOM      8 BR   UNL     1      31.148  -5.995 -21.350  0.00  0.00    -0.049 Br
ATOM      9  C   UNL     1      31.946 -10.558 -22.005  0.00  0.00    +0.002 C 
ATOM     10  C   UNL     1      32.259  -9.645 -23.010  0.00  0.00    -0.002 C 
ATOM     11  C   UNL     1      31.395 -10.114 -20.803  0.00  0.00    -0.002 C 
ATOM     12  C   UNL     1      32.020  -8.285 -22.816  0.00  0.00    +0.006 C 
ATOM     13  C   UNL     1      31.156  -8.753 -20.608  0.00  0.00    +0.006 C 
ATOM     14  C   UNL     1      31.469  -7.839 -21.615  0.00  0.00    +0.035 C 
ENDBRANCH   2   9
BRANCH   2  15
ATOM     15  O   UNL     1      30.912 -12.663 -22.262  0.00  0.00    -0.383 OA
ATOM     16  H   UNL     1      30.288 -12.066 -22.705  0.00  0.00    +0.211 HD
ENDBRANCH   2  15
BRANCH   1  17
ATOM     17  C   UNL     1      34.523 -15.705 -22.636  0.00  0.00    -0.077 C 
BRANCH  17  18
ATOM     18  C   UNL     1      34.541 -16.393 -21.270  0.00  0.00    -0.015 C 
BRANCH  18  19
ATOM     19  C   UNL     1      35.374 -17.678 -21.278  0.00  0.00    +0.067 C 
BRANCH  19  21
ATOM     20  O   UNL     1      34.119 -19.157 -22.714  0.00  0.00    -0.291 OA
ATOM     21  C   UNL     1      34.558 -18.925 -21.590  0.00  0.00    +0.173 C 
BRANCH  21  23
ATOM     22  F   UNL     1      33.609 -22.597 -17.493  0.00  0.00    -0.204 F 
ATOM     23  C   UNL     1      34.304 -19.905 -20.496  0.00  0.00    +0.035 C 
ATOM     24  C   UNL     1      35.382 -20.500 -19.878  0.00  0.00    +0.005 C 
ATOM     25  C   UNL     1      33.002 -20.181 -20.144  0.00  0.00    +0.005 C 
ATOM     26  C   UNL     1      35.145 -21.416 -18.855  0.00  0.00    +0.030 C 
ATOM     27  C   UNL     1      32.765 -21.097 -19.121  0.00  0.00    +0.030 C 
ATOM     28  C   UNL     1      33.836 -21.716 -18.475  0.00  0.00    +0.140 C 
ENDBRANCH  21  23
ENDBRANCH  19  21
ENDBRANCH  18  19
ENDBRANCH  17  18
ENDBRANCH   1  17
TORSDOF 7
ENDMDL
MODEL 4
REMARK VINA RESULT:     -12.0      3.019      5.207
REMARK  Name = 2448
REMARK  7 active torsions:
REMARK  status: ('A' for Active; 'I' for Inactive)
REMARK    1  A    between atoms: N_1  and  C_17
REMARK    2  A    between atoms: C_2  and  C_9
REMARK    3  A    between atoms: C_2  and  O_15
REMARK    4  A    between atoms: C_17  and  C_18
REMARK    5  A    between atoms: C_18  and  C_19
REMARK    6  A    between atoms: C_19  and  C_21
REMARK    7  A    between atoms: C_21  and  C_23
REMARK                            x       y       z     vdW  Elec       q    Type
REMARK                         _______ _______ _______ _____ _____    ______ ____
ROOT
ATOM      1  N   UNL     1      33.813 -15.922 -23.196  0.00  0.00    +0.387 N 
ATOM      2  C   UNL     1      34.672 -18.328 -21.683  0.00  0.00    +0.103 C 
ATOM      3  C   UNL     1      33.914 -18.383 -23.027  0.00  0.00    +0.008 C 
ATOM      4  C   UNL     1      34.403 -16.957 -21.020  0.00  0.00    +0.008 C 
ATOM      5  C   UNL     1      34.166 -17.155 -23.909  0.00  0.00    -0.075 C 
ATOM      6  C   UNL     1      34.608 -15.774 -21.973  0.00  0.00    -0.075 C 
ATOM      7  H   UNL     1      32.831 -15.982 -22.928  0.00  0.00    -0.080 HD
ENDROOT
BRANCH   2   9
ATOM      8 BR   UNL     1      33.359 -22.940 -17.741  0.00  0.00    -0.049 Br
ATOM      9  C   UNL     1      34.349 -19.466 -20.713  0.00  0.00    +0.002 C 
ATOM     10  C   UNL     1      33.022 -19.793 -20.441  0.00  0.00    -0.002 C 
ATOM     11  C   UNL     1      35.383 -20.174 -20.101  0.00  0.00    -0.002 C 
ATOM     12  C   UNL     1      32.726 -20.829 -19.555  0.00  0.00    +0.006 C 
ATOM     13  C   UNL     1      35.088 -21.210 -19.215  0.00  0.00    +0.006 C 
ATOM     14  C   UNL     1      33.759 -21.537 -18.942  0.00  0.00    +0.035 C 
ENDBRANCH   2   9
BRANCH   2  15
ATOM     15  O   UNL     1      36.074 -18.455 -21.964  0.00  0.00    -0.383 OA
ATOM     16  H   UNL     1      36.502 -17.589 -21.870  0.00  0.00    +0.211 HD
ENDBRANCH   2  15
BRANCH   1  17
ATOM     17  C   UNL     1      33.988 -14.759 -24.066  0.00  0.00    -0.077 C 
BRANCH  17  18
ATOM     18  C   UNL     1      33.823 -13.467 -23.264  0.00  0.00    -0.015 C 
BRANCH  18  19
ATOM     19  C   UNL     1      32.359 -13.031 -23.158  0.00  0.00    +0.067 C 
BRANCH  19  21
ATOM     20  O   UNL     1      31.913 -13.259 -20.797  0.00  0.00    -0.291 OA
ATOM     21  C   UNL     1      31.979 -12.519 -21.775  0.00  0.00    +0.173 C 
BRANCH  21  23
ATOM     22  F   UNL     1      30.935  -7.072 -21.137  0.00  0.00    -0.204 F 
ATOM     23  C   UNL     1      31.700 -11.065 -21.605  0.00  0.00    +0.035 C 
ATOM     24  C   UNL     1      31.879 -10.226 -22.683  0.00  0.00    +0.005 C 
ATOM     25  C   UNL     1      31.275 -10.613 -20.375  0.00  0.00    +0.005 C 
ATOM     26  C   UNL     1      31.617  -8.866 -22.523  0.00  0.00    +0.030 C 
ATOM     27  C   UNL     1      31.014  -9.253 -20.216  0.00  0.00    +0.030 C 
ATOM     28  C   UNL     1      31.185  -8.378 -21.290  0.00  0.00    +0.140 C 
ENDBRANCH  21  23
ENDBRANCH  19  21
ENDBRANCH  18  19
ENDBRANCH  17  18
ENDBRANCH   1  17
TORSDOF 7
ENDMDL
MODEL 5
REMARK VINA RESULT:     -11.8      4.656      9.570
REMARK  Name = 2448
REMARK  7 active torsions:
REMARK  status: ('A' for Active; 'I' for Inactive)
REMARK    1  A    between atoms: N_1  and  C_17
REMARK    2  A    between atoms: C_2  and  C_9
REMARK    3  A    between atoms: C_2  and  O_15
REMARK    4  A    between atoms: C_17  and  C_18
REMARK    5  A    between atoms: C_18  and  C_19
REMARK    6  A    between atoms: C_19  and  C_21
REMARK    7  A    between atoms: C_21  and  C_23
REMARK                            x       y       z     vdW  Elec       q    Type
REMARK                         _______ _______ _______ _____ _____    ______ ____
ROOT
ATOM      1  N   UNL     1      35.206 -19.995 -19.619  0.00  0.00    +0.387 N 
ATOM      2  C   UNL     1      34.791 -18.030 -21.808  0.00  0.00    +0.103 C 
ATOM      3  C   UNL     1      36.086 -18.125 -20.971  0.00  0.00    +0.008 C 
ATOM      4  C   UNL     1      33.634 -18.660 -20.998  0.00  0.00    +0.008 C 
ATOM      5  C   UNL     1      36.344 -19.533 -20.422  0.00  0.00    -0.075 C 
ATOM      6  C   UNL     1      33.979 -20.038 -20.420  0.00  0.00    -0.075 C 
ATOM      7  H   UNL     1      35.063 -19.329 -18.860  0.00  0.00    -0.080 HD
ENDROOT
BRANCH   2   9
ATOM      8 BR   UNL     1      33.278 -12.302 -23.662  0.00  0.00    -0.049 Br
ATOM      9  C   UNL     1      34.420 -16.618 -22.265  0.00  0.00    +0.002 C 
ATOM     10  C   UNL     1      34.269 -15.600 -21.326  0.00  0.00    -0.002 C 
ATOM     11  C   UNL     1      34.232 -16.353 -23.621  0.00  0.00    -0.002 C 
ATOM     12  C   UNL     1      33.930 -14.313 -21.742  0.00  0.00    +0.006 C 
ATOM     13  C   UNL     1      33.891 -15.066 -24.038  0.00  0.00    +0.006 C 
ATOM     14  C   UNL     1      33.741 -14.046 -23.098  0.00  0.00    +0.035 C 
ENDBRANCH   2   9
BRANCH   2  15
ATOM     15  O   UNL     1      34.992 -18.780 -23.015  0.00  0.00    -0.383 OA
ATOM     16  H   UNL     1      34.132 -19.002 -23.405  0.00  0.00    +0.211 HD
ENDBRANCH   2  15
BRANCH   1  17
ATOM     17  C   UNL     1      35.487 -21.308 -19.040  0.00  0.00    -0.077 C 
BRANCH  17  18
ATOM     18  C   UNL     1      34.207 -22.143 -18.973  0.00  0.00    -0.015 C 
BRANCH  18  19
ATOM     19  C   UNL     1      33.772 -22.426 -17.532  0.00  0.00    +0.067 C 
BRANCH  19  21
ATOM     20  O   UNL     1      31.557 -21.681 -18.134  0.00  0.00    -0.291 OA
ATOM     21  C   UNL     1      32.283 -22.213 -17.298  0.00  0.00    +0.173 C 
BRANCH  21  23
ATOM     22  F   UNL     1      30.052 -23.994 -12.500  0.00  0.00    -0.204 F 
ATOM     23  C   UNL     1      31.687 -22.689 -16.017  0.00  0.00    +0.035 C 
ATOM     24  C   UNL     1      30.316 -22.719 -15.896  0.00  0.00    +0.005 C 
ATOM     25  C   UNL     1      32.531 -23.080 -15.001  0.00  0.00    +0.005 C 
ATOM     26  C   UNL     1      29.759 -23.164 -14.698  0.00  0.00    +0.030 C 
ATOM     27  C   UNL     1      31.974 -23.525 -13.803  0.00  0.00    +0.030 C 
ATOM     28  C   UNL     1      30.588 -23.568 -13.650  0.00  0.00    +0.140 C 
ENDBRANCH  21  23
ENDBRANCH  19  21
ENDBRANCH  18  19
ENDBRANCH  17  18
ENDBRANCH   1  17
TORSDOF 7
ENDMDL
MODEL 6
REMARK VINA RESULT:     -11.6      5.369     10.022
REMARK  Name = 2448
REMARK  7 active torsions:
REMARK  status: ('A' for Active; 'I' for Inactive)
REMARK    1  A    between atoms: N_1  and  C_17
REMARK    2  A    between atoms: C_2  and  C_9
REMARK    3  A    between atoms: C_2  and  O_15
REMARK    4  A    between atoms: C_17  and  C_18
REMARK    5  A    between atoms: C_18  and  C_19
REMARK    6  A    between atoms: C_19  and  C_21
REMARK    7  A    between atoms: C_21  and  C_23
REMARK                            x       y       z     vdW  Elec       q    Type
REMARK                         _______ _______ _______ _____ _____    ______ ____
ROOT
ATOM      1  N   UNL     1      32.622 -22.901 -15.040  0.00  0.00    +0.387 N 
ATOM      2  C   UNL     1      33.320 -22.342 -17.873  0.00  0.00    +0.103 C 
ATOM      3  C   UNL     1      34.355 -22.406 -16.728  0.00  0.00    +0.008 C 
ATOM      4  C   UNL     1      31.930 -22.045 -17.264  0.00  0.00    +0.008 C 
ATOM      5  C   UNL     1      33.922 -23.320 -15.576  0.00  0.00    -0.075 C 
ATOM      6  C   UNL     1      31.584 -22.949 -16.075  0.00  0.00    -0.075 C 
ATOM      7  H   UNL     1      32.707 -21.935 -14.725  0.00  0.00    -0.080 HD
ENDROOT
BRANCH   2   9
ATOM      8 BR   UNL     1      34.641 -18.269 -22.367  0.00  0.00    -0.049 Br
ATOM      9  C   UNL     1      33.646 -21.339 -18.982  0.00  0.00    +0.002 C 
ATOM     10  C   UNL     1      34.973 -21.068 -19.307  0.00  0.00    -0.002 C 
ATOM     11  C   UNL     1      32.613 -20.697 -19.664  0.00  0.00    -0.002 C 
ATOM     12  C   UNL     1      35.271 -20.153 -20.316  0.00  0.00    +0.006 C 
ATOM     13  C   UNL     1      32.910 -19.782 -20.674  0.00  0.00    +0.006 C 
ATOM     14  C   UNL     1      34.239 -19.510 -21.000  0.00  0.00    +0.035 C 
ENDBRANCH   2   9
BRANCH   2  15
ATOM     15  O   UNL     1      33.296 -23.625 -18.514  0.00  0.00    -0.383 OA
ATOM     16  H   UNL     1      34.184 -23.840 -18.841  0.00  0.00    +0.211 HD
ENDBRANCH   2  15
BRANCH   1  17
ATOM     17  C   UNL     1      32.247 -23.732 -13.897  0.00  0.00    -0.077 C 
BRANCH  17  18
ATOM     18  C   UNL     1      33.470 -24.479 -13.361  0.00  0.00    -0.015 C 
BRANCH  18  19
ATOM     19  C   UNL     1      34.224 -23.672 -12.300  0.00  0.00    +0.067 C 
BRANCH  19  21
ATOM     20  O   UNL     1      35.596 -24.831 -10.688  0.00  0.00    -0.291 OA
ATOM     21  C   UNL     1      35.497 -24.353 -11.815  0.00  0.00    +0.173 C 
BRANCH  21  23
ATOM     22  F   UNL     1      39.819 -24.747 -15.327  0.00  0.00    -0.204 F 
ATOM     23  C   UNL     1      36.651 -24.458 -12.752  0.00  0.00    +0.035 C 
ATOM     24  C   UNL     1      36.804 -23.494 -13.724  0.00  0.00    +0.005 C 
ATOM     25  C   UNL     1      37.521 -25.516 -12.614  0.00  0.00    +0.005 C 
ATOM     26  C   UNL     1      37.884 -23.592 -14.600  0.00  0.00    +0.030 C 
ATOM     27  C   UNL     1      38.601 -25.614 -13.490  0.00  0.00    +0.030 C 
ATOM     28  C   UNL     1      38.783 -24.653 -14.484  0.00  0.00    +0.140 C 
ENDBRANCH  21  23
ENDBRANCH  19  21
ENDBRANCH  18  19
ENDBRANCH  17  18
ENDBRANCH   1  17
TORSDOF 7
ENDMDL
MODEL 7
REMARK VINA RESULT:     -11.3      6.034     11.004
REMARK  Name = 2448
REMARK  7 active torsions:
REMARK  status: ('A' for Active; 'I' for Inactive)
REMARK    1  A    between atoms: N_1  and  C_17
REMARK    2  A    between atoms: C_2  and  C_9
REMARK    3  A    between atoms: C_2  and  O_15
REMARK    4  A    between atoms: C_17  and  C_18
REMARK    5  A    between atoms: C_18  and  C_19
REMARK    6  A    between atoms: C_19  and  C_21
REMARK    7  A    between atoms: C_21  and  C_23
REMARK                            x       y       z     vdW  Elec       q    Type
REMARK                         _______ _______ _______ _____ _____    ______ ____
ROOT
ATOM      1  N   UNL     1      33.247 -12.990 -21.723  0.00  0.00    +0.387 N 
ATOM      2  C   UNL     1      31.474 -10.609 -21.834  0.00  0.00    +0.103 C 
ATOM      3  C   UNL     1      32.443 -11.014 -22.967  0.00  0.00    +0.008 C 
ATOM      4  C   UNL     1      31.970 -11.240 -20.512  0.00  0.00    +0.008 C 
ATOM      5  C   UNL     1      32.721 -12.521 -23.010  0.00  0.00    -0.075 C 
ATOM      6  C   UNL     1      32.293 -12.734 -20.639  0.00  0.00    -0.075 C 
ATOM      7  H   UNL     1      34.100 -12.469 -21.521  0.00  0.00    -0.080 HD
ENDROOT
BRANCH   2   9
ATOM      8 BR   UNL     1      30.643  -4.495 -21.151  0.00  0.00    -0.049 Br
ATOM      9  C   UNL     1      31.271  -9.102 -21.666  0.00  0.00    +0.002 C 
ATOM     10  C   UNL     1      31.512  -8.501 -20.433  0.00  0.00    -0.002 C 
ATOM     11  C   UNL     1      30.843  -8.334 -22.748  0.00  0.00    -0.002 C 
ATOM     12  C   UNL     1      31.327  -7.127 -20.279  0.00  0.00    +0.006 C 
ATOM     13  C   UNL     1      30.656  -6.959 -22.595  0.00  0.00    +0.006 C 
ATOM     14  C   UNL     1      30.898  -6.357 -21.359  0.00  0.00    +0.035 C 
ENDBRANCH   2   9
BRANCH   2  15
ATOM     15  O   UNL     1      30.178 -11.134 -22.157  0.00  0.00    -0.383 OA
ATOM     16  H   UNL     1      30.241 -12.094 -22.285  0.00  0.00    +0.211 HD
ENDBRANCH   2  15
BRANCH   1  17
ATOM     17  C   UNL     1      33.576 -14.413 -21.792  0.00  0.00    -0.077 C 
BRANCH  17  18
ATOM     18  C   UNL     1      33.486 -14.908 -23.237  0.00  0.00    -0.015 C 
BRANCH  18  19
ATOM     19  C   UNL     1      34.617 -15.878 -23.590  0.00  0.00    +0.067 C 
BRANCH  19  21
ATOM     20  O   UNL     1      33.495 -17.872 -24.360  0.00  0.00    -0.291 OA
ATOM     21  C   UNL     1      34.205 -17.342 -23.509  0.00  0.00    +0.173 C 
BRANCH  21  23
ATOM     22  F   UNL     1      36.066 -20.408 -19.230  0.00  0.00    -0.204 F 
ATOM     23  C   UNL     1      34.702 -18.160 -22.366  0.00  0.00    +0.035 C 
ATOM     24  C   UNL     1      35.990 -17.962 -21.921  0.00  0.00    +0.005 C 
ATOM     25  C   UNL     1      33.855 -19.086 -21.799  0.00  0.00    +0.005 C 
ATOM     26  C   UNL     1      36.454 -18.727 -20.852  0.00  0.00    +0.030 C 
ATOM     27  C   UNL     1      34.319 -19.852 -20.730  0.00  0.00    +0.030 C 
ATOM     28  C   UNL     1      35.619 -19.673 -20.256  0.00  0.00    +0.140 C 
ENDBRANCH  21  23
ENDBRANCH  19  21
ENDBRANCH  18  19
ENDBRANCH  17  18
ENDBRANCH   1  17
TORSDOF 7
ENDMDL
MODEL 8
REMARK VINA RESULT:     -11.3      5.405     10.246
REMARK  Name = 2448
REMARK  7 active torsions:
REMARK  status: ('A' for Active; 'I' for Inactive)
REMARK    1  A    between atoms: N_1  and  C_17
REMARK    2  A    between atoms: C_2  and  C_9
REMARK    3  A    between atoms: C_2  and  O_15
REMARK    4  A    between atoms: C_17  and  C_18
REMARK    5  A    between atoms: C_18  and  C_19
REMARK    6  A    between atoms: C_19  and  C_21
REMARK    7  A    between atoms: C_21  and  C_23
REMARK                            x       y       z     vdW  Elec       q    Type
REMARK                         _______ _______ _______ _____ _____    ______ ____
ROOT
ATOM      1  N   UNL     1      35.302 -20.065 -19.481  0.00  0.00    +0.387 N 
ATOM      2  C   UNL     1      34.841 -18.176 -21.727  0.00  0.00    +0.103 C 
ATOM      3  C   UNL     1      36.150 -18.236 -20.908  0.00  0.00    +0.008 C 
ATOM      4  C   UNL     1      33.700 -18.785 -20.879  0.00  0.00    +0.008 C 
ATOM      5  C   UNL     1      36.425 -19.623 -20.317  0.00  0.00    -0.075 C 
ATOM      6  C   UNL     1      34.063 -20.141 -20.261  0.00  0.00    -0.075 C 
ATOM      7  H   UNL     1      35.168 -19.374 -18.743  0.00  0.00    -0.080 HD
ENDROOT
BRANCH   2   9
ATOM      8 BR   UNL     1      33.265 -12.522 -23.746  0.00  0.00    -0.049 Br
ATOM      9  C   UNL     1      34.455 -16.782 -22.225  0.00  0.00    +0.002 C 
ATOM     10  C   UNL     1      34.282 -15.741 -21.315  0.00  0.00    -0.002 C 
ATOM     11  C   UNL     1      34.274 -16.557 -23.589  0.00  0.00    -0.002 C 
ATOM     12  C   UNL     1      33.929 -14.471 -21.768  0.00  0.00    +0.006 C 
ATOM     13  C   UNL     1      33.919 -15.286 -24.043  0.00  0.00    +0.006 C 
ATOM     14  C   UNL     1      33.747 -14.243 -23.132  0.00  0.00    +0.035 C 
ENDBRANCH   2   9
BRANCH   2  15
ATOM     15  O   UNL     1      35.028 -18.965 -22.911  0.00  0.00    -0.383 OA
ATOM     16  H   UNL     1      35.916 -19.357 -22.902  0.00  0.00    +0.211 HD
ENDBRANCH   2  15
BRANCH   1  17
ATOM     17  C   UNL     1      35.600 -21.356 -18.863  0.00  0.00    -0.077 C 
BRANCH  17  18
ATOM     18  C   UNL     1      36.347 -21.153 -17.544  0.00  0.00    -0.015 C 
BRANCH  18  19
ATOM     19  C   UNL     1      35.815 -22.057 -16.428  0.00  0.00    +0.067 C 
BRANCH  19  21
ATOM     20  O   UNL     1      38.095 -22.485 -15.763  0.00  0.00    -0.291 OA
ATOM     21  C   UNL     1      36.900 -22.554 -15.483  0.00  0.00    +0.173 C 
BRANCH  21  23
ATOM     22  F   UNL     1      35.381 -24.682 -10.551  0.00  0.00    -0.204 F 
ATOM     23  C   UNL     1      36.495 -23.122 -14.167  0.00  0.00    +0.035 C 
ATOM     24  C   UNL     1      35.211 -22.902 -13.719  0.00  0.00    +0.005 C 
ATOM     25  C   UNL     1      37.419 -23.845 -13.446  0.00  0.00    +0.005 C 
ATOM     26  C   UNL     1      34.832 -23.434 -12.487  0.00  0.00    +0.030 C 
ATOM     27  C   UNL     1      37.039 -24.377 -12.214  0.00  0.00    +0.030 C 
ATOM     28  C   UNL     1      35.746 -24.172 -11.734  0.00  0.00    +0.140 C 
ENDBRANCH  21  23
ENDBRANCH  19  21
ENDBRANCH  18  19
ENDBRANCH  17  18
ENDBRANCH   1  17
TORSDOF 7
ENDMDL
MODEL 9
REMARK VINA RESULT:     -11.1      4.906      9.213
REMARK  Name = 2448
REMARK  7 active torsions:
REMARK  status: ('A' for Active; 'I' for Inactive)
REMARK    1  A    between atoms: N_1  and  C_17
REMARK    2  A    between atoms: C_2  and  C_9
REMARK    3  A    between atoms: C_2  and  O_15
REMARK    4  A    between atoms: C_17  and  C_18
REMARK    5  A    between atoms: C_18  and  C_19
REMARK    6  A    between atoms: C_19  and  C_21
REMARK    7  A    between atoms: C_21  and  C_23
REMARK                            x       y       z     vdW  Elec       q    Type
REMARK                         _______ _______ _______ _____ _____    ______ ____
ROOT
ATOM      1  N   UNL     1      32.704 -22.920 -15.158  0.00  0.00    +0.387 N 
ATOM      2  C   UNL     1      33.416 -22.297 -17.974  0.00  0.00    +0.103 C 
ATOM      3  C   UNL     1      34.449 -22.418 -16.833  0.00  0.00    +0.008 C 
ATOM      4  C   UNL     1      32.033 -21.986 -17.357  0.00  0.00    +0.008 C 
ATOM      5  C   UNL     1      33.994 -23.354 -15.707  0.00  0.00    -0.075 C 
ATOM      6  C   UNL     1      31.665 -22.915 -16.194  0.00  0.00    -0.075 C 
ATOM      7  H   UNL     1      32.812 -21.965 -14.816  0.00  0.00    -0.080 HD
ENDROOT
BRANCH   2   9
ATOM      8 BR   UNL     1      34.832 -18.142 -22.363  0.00  0.00    -0.049 Br
ATOM      9  C   UNL     1      33.765 -21.272 -19.055  0.00  0.00    +0.002 C 
ATOM     10  C   UNL     1      32.748 -20.619 -19.749  0.00  0.00    -0.002 C 
ATOM     11  C   UNL     1      35.100 -20.994 -19.344  0.00  0.00    -0.002 C 
ATOM     12  C   UNL     1      33.065 -19.685 -20.734  0.00  0.00    +0.006 C 
ATOM     13  C   UNL     1      35.419 -20.061 -20.331  0.00  0.00    +0.006 C 
ATOM     14  C   UNL     1      34.401 -19.406 -21.026  0.00  0.00    +0.035 C 
ENDBRANCH   2   9
BRANCH   2  15
ATOM     15  O   UNL     1      33.361 -23.561 -18.652  0.00  0.00    -0.383 OA
ATOM     16  H   UNL     1      32.471 -23.695 -19.015  0.00  0.00    +0.211 HD
ENDBRANCH   2  15
BRANCH   1  17
ATOM     17  C   UNL     1      32.309 -23.775 -14.039  0.00  0.00    -0.077 C 
BRANCH  17  18
ATOM     18  C   UNL     1      31.200 -23.105 -13.227  0.00  0.00    -0.015 C 
BRANCH  18  19
ATOM     19  C   UNL     1      30.017 -24.044 -12.972  0.00  0.00    +0.067 C 
BRANCH  19  21
ATOM     20  O   UNL     1      29.585 -25.783 -14.589  0.00  0.00    -0.291 OA
ATOM     21  C   UNL     1      29.413 -24.615 -14.248  0.00  0.00    +0.173 C 
BRANCH  21  23
ATOM     22  F   UNL     1      26.247 -21.291 -17.425  0.00  0.00    -0.204 F 
ATOM     23  C   UNL     1      28.568 -23.728 -15.096  0.00  0.00    +0.035 C 
ATOM     24  C   UNL     1      28.121 -24.202 -16.309  0.00  0.00    +0.005 C 
ATOM     25  C   UNL     1      28.265 -22.466 -14.635  0.00  0.00    +0.005 C 
ATOM     26  C   UNL     1      27.330 -23.372 -17.102  0.00  0.00    +0.030 C 
ATOM     27  C   UNL     1      27.474 -21.636 -15.428  0.00  0.00    +0.030 C 
ATOM     28  C   UNL     1      27.006 -22.088 -16.662  0.00  0.00    +0.140 C 
ENDBRANCH  21  23
ENDBRANCH  19  21
ENDBRANCH  18  19
ENDBRANCH  17  18
ENDBRANCH   1  17
TORSDOF 7
ENDMDL
