MODEL 1
REMARK VINA RESULT:     -11.2      0.000      0.000
REMARK  Name = 441407
REMARK  8 active torsions:
REMARK  status: ('A' for Active; 'I' for Inactive)
REMARK    1  A    between atoms: C_6  and  O_21
REMARK    2  A    between atoms: C_6  and  C_26
REMARK    3  A    between atoms: C_9  and  O_23
REMARK    4  A    between atoms: C_26  and  C_27
REMARK    5  A    between atoms: C_27  and  O_28
REMARK    6  A    between atoms: O_28  and  P_29
REMARK    7  A    between atoms: P_29  and  O_31
REMARK    8  A    between atoms: P_29  and  O_33
REMARK                            x       y       z     vdW  Elec       q    Type
REMARK                         _______ _______ _______ _____ _____    ______ ____
ROOT
ATOM      1  O   UNL     1      39.782 -25.787 -13.716  0.00  0.00    -0.291 OA
ATOM      2  C   UNL     1      31.775 -23.215 -14.531  0.00  0.00    +0.031 C 
ATOM      3  C   UNL     1      32.908 -23.134 -15.578  0.00  0.00    +0.003 C 
ATOM      4  C   UNL     1      34.285 -22.825 -14.973  0.00  0.00    +0.003 C 
ATOM      5  C   UNL     1      34.652 -23.953 -13.955  0.00  0.00    +0.030 C 
ATOM      6  C   UNL     1      30.569 -23.463 -15.478  0.00  0.00    +0.141 C 
ATOM      7  C   UNL     1      32.123 -24.364 -13.563  0.00  0.00    +0.032 C 
ATOM      8  C   UNL     1      36.107 -23.786 -13.350  0.00  0.00    +0.018 C 
ATOM      9  C   UNL     1      33.517 -24.211 -12.916  0.00  0.00    +0.111 C 
ATOM     10  C   UNL     1      32.342 -22.196 -16.641  0.00  0.00    +0.003 C 
ATOM     11  C   UNL     1      30.837 -22.539 -16.687  0.00  0.00    +0.034 C 
ATOM     12  C   UNL     1      35.348 -22.737 -16.079  0.00  0.00    +0.004 C 
ATOM     13  C   UNL     1      31.562 -21.887 -13.756  0.00  0.00    +0.003 C 
ATOM     14  C   UNL     1      37.107 -23.567 -14.493  0.00  0.00    -0.042 C 
ATOM     15  C   UNL     1      36.740 -22.514 -15.509  0.00  0.00    +0.022 C 
ATOM     16  C   UNL     1      36.459 -25.092 -12.577  0.00  0.00    +0.012 C 
ATOM     17  C   UNL     1      36.243 -22.583 -12.389  0.00  0.00    +0.004 C 
ATOM     18  C   UNL     1      37.943 -25.242 -12.283  0.00  0.00    +0.069 C 
ATOM     19  C   UNL     1      38.273 -24.223 -14.610  0.00  0.00    +0.029 C 
ATOM     20  C   UNL     1      38.737 -25.160 -13.560  0.00  0.00    +0.173 C 
ENDROOT
BRANCH   6  21
ATOM     21  O   UNL     1      30.532 -24.817 -15.922  0.00  0.00    -0.380 OA
ATOM     22  H   UNL     1      29.762 -24.947 -16.498  0.00  0.00    +0.211 HD
ENDBRANCH   6  21
BRANCH   9  23
ATOM     23  O   UNL     1      33.470 -23.186 -11.933  0.00  0.00    -0.384 OA
ATOM     24  H   UNL     1      32.579 -23.143 -11.552  0.00  0.00    +0.210 HD
ENDBRANCH   9  23
BRANCH   6  26
ATOM     25  O   UNL     1      28.624 -24.149 -14.284  0.00  0.00    -0.291 OA
ATOM     26  C   UNL     1      29.235 -23.233 -14.832  0.00  0.00    +0.205 C 
BRANCH  26  27
ATOM     27  C   UNL     1      28.693 -21.821 -14.896  0.00  0.00    +0.220 C 
BRANCH  27  28
ATOM     28  O   UNL     1      28.200 -21.534 -16.187  0.00  0.00    -0.265 OA
BRANCH  28  29
ATOM     29  P   UNL     1      26.643 -21.850 -16.513  0.00  0.00    +0.473 P 
ATOM     30  O   UNL     1      25.782 -22.090 -15.308  0.00  0.00    -0.227 OA
BRANCH  29  31
ATOM     31  O   UNL     1      26.713 -23.073 -17.567  0.00  0.00    -0.303 OA
ATOM     32  H   UNL     1      26.008 -23.710 -17.372  0.00  0.00    +0.222 HD
ENDBRANCH  29  31
BRANCH  29  33
ATOM     33  O   UNL     1      26.199 -20.593 -17.430  0.00  0.00    -0.303 OA
ATOM     34  H   UNL     1      25.707 -19.957 -16.890  0.00  0.00    +0.222 HD
ENDBRANCH  29  33
ENDBRANCH  28  29
ENDBRANCH  27  28
ENDBRANCH  26  27
ENDBRANCH   6  26
TORSDOF 8
ENDMDL
MODEL 2
REMARK VINA RESULT:      -8.4      3.320      5.494
REMARK  Name = 441407
REMARK  8 active torsions:
REMARK  status: ('A' for Active; 'I' for Inactive)
REMARK    1  A    between atoms: C_6  and  O_21
REMARK    2  A    between atoms: C_6  and  C_26
REMARK    3  A    between atoms: C_9  and  O_23
REMARK    4  A    between atoms: C_26  and  C_27
REMARK    5  A    between atoms: C_27  and  O_28
REMARK    6  A    between atoms: O_28  and  P_29
REMARK    7  A    between atoms: P_29  and  O_31
REMARK    8  A    between atoms: P_29  and  O_33
REMARK                            x       y       z     vdW  Elec       q    Type
REMARK                         _______ _______ _______ _____ _____    ______ ____
ROOT
ATOM      1  O   UNL     1      36.177 -17.745 -21.295  0.00  0.00    -0.291 OA
ATOM      2  C   UNL     1      32.466 -22.998 -15.816  0.00  0.00    +0.031 C 
ATOM      3  C   UNL     1      33.836 -22.297 -15.678  0.00  0.00    +0.003 C 
ATOM      4  C   UNL     1      34.603 -22.181 -17.003  0.00  0.00    +0.003 C 
ATOM      5  C   UNL     1      33.742 -21.355 -18.013  0.00  0.00    +0.030 C 
ATOM      6  C   UNL     1      32.027 -22.998 -14.325  0.00  0.00    +0.141 C 
ATOM      7  C   UNL     1      31.607 -22.148 -16.775  0.00  0.00    +0.032 C 
ATOM      8  C   UNL     1      34.491 -21.083 -19.382  0.00  0.00    +0.018 C 
ATOM      9  C   UNL     1      32.286 -21.902 -18.140  0.00  0.00    +0.111 C 
ATOM     10  C   UNL     1      34.490 -23.027 -14.508  0.00  0.00    +0.003 C 
ATOM     11  C   UNL     1      33.320 -23.331 -13.548  0.00  0.00    +0.034 C 
ATOM     12  C   UNL     1      35.961 -21.497 -16.775  0.00  0.00    +0.004 C 
ATOM     13  C   UNL     1      32.575 -24.461 -16.325  0.00  0.00    +0.003 C 
ATOM     14  C   UNL     1      35.891 -20.527 -19.089  0.00  0.00    -0.042 C 
ATOM     15  C   UNL     1      36.715 -21.288 -18.079  0.00  0.00    +0.022 C 
ATOM     16  C   UNL     1      33.661 -20.038 -20.185  0.00  0.00    +0.012 C 
ATOM     17  C   UNL     1      34.676 -22.349 -20.248  0.00  0.00    +0.004 C 
ATOM     18  C   UNL     1      34.436 -19.389 -21.320  0.00  0.00    +0.069 C 
ATOM     19  C   UNL     1      36.416 -19.450 -19.696  0.00  0.00    +0.029 C 
ATOM     20  C   UNL     1      35.699 -18.760 -20.794  0.00  0.00    +0.173 C 
ENDROOT
BRANCH   6  21
ATOM     21  O   UNL     1      31.558 -21.713 -13.927  0.00  0.00    -0.380 OA
ATOM     22  H   UNL     1      30.837 -21.817 -13.285  0.00  0.00    +0.211 HD
ENDBRANCH   6  21
BRANCH   9  23
ATOM     23  O   UNL     1      32.245 -23.096 -18.909  0.00  0.00    -0.384 OA
ATOM     24  H   UNL     1      31.527 -23.038 -19.559  0.00  0.00    +0.210 HD
ENDBRANCH   9  23
BRANCH   6  26
ATOM     25  O   UNL     1      31.095 -25.076 -13.624  0.00  0.00    -0.291 OA
ATOM     26  C   UNL     1      30.892 -23.932 -14.029  0.00  0.00    +0.205 C 
BRANCH  26  27
ATOM     27  C   UNL     1      29.498 -23.387 -14.255  0.00  0.00    +0.220 C 
BRANCH  27  28
ATOM     28  O   UNL     1      28.966 -23.868 -15.471  0.00  0.00    -0.265 OA
BRANCH  28  29
ATOM     29  P   UNL     1      27.831 -22.989 -16.226  0.00  0.00    +0.473 P 
ATOM     30  O   UNL     1      28.324 -21.708 -16.832  0.00  0.00    -0.227 OA
BRANCH  29  31
ATOM     31  O   UNL     1      26.672 -22.825 -15.110  0.00  0.00    -0.303 OA
ATOM     32  H   UNL     1      26.799 -21.991 -14.632  0.00  0.00    +0.222 HD
ENDBRANCH  29  31
BRANCH  29  33
ATOM     33  O   UNL     1      27.191 -24.040 -17.275  0.00  0.00    -0.303 OA
ATOM     34  H   UNL     1      26.768 -23.556 -18.000  0.00  0.00    +0.222 HD
ENDBRANCH  29  33
ENDBRANCH  28  29
ENDBRANCH  27  28
ENDBRANCH  26  27
ENDBRANCH   6  26
TORSDOF 8
ENDMDL
MODEL 3
REMARK VINA RESULT:      -8.4     13.680     16.465
REMARK  Name = 441407
REMARK  8 active torsions:
REMARK  status: ('A' for Active; 'I' for Inactive)
REMARK    1  A    between atoms: C_6  and  O_21
REMARK    2  A    between atoms: C_6  and  C_26
REMARK    3  A    between atoms: C_9  and  O_23
REMARK    4  A    between atoms: C_26  and  C_27
REMARK    5  A    between atoms: C_27  and  O_28
REMARK    6  A    between atoms: O_28  and  P_29
REMARK    7  A    between atoms: P_29  and  O_31
REMARK    8  A    between atoms: P_29  and  O_33
REMARK                            x       y       z     vdW  Elec       q    Type
REMARK                         _______ _______ _______ _____ _____    ______ ____
ROOT
ATOM      1  O   UNL     1      29.707  -3.672 -22.505  0.00  0.00    -0.291 OA
ATOM      2  C   UNL     1      32.746 -11.556 -22.421  0.00  0.00    +0.031 C 
ATOM      3  C   UNL     1      31.794 -10.896 -21.399  0.00  0.00    +0.003 C 
ATOM      4  C   UNL     1      32.103  -9.415 -21.138  0.00  0.00    +0.003 C 
ATOM      5  C   UNL     1      31.979  -8.630 -22.485  0.00  0.00    +0.030 C 
ATOM      6  C   UNL     1      32.198 -13.009 -22.380  0.00  0.00    +0.141 C 
ATOM      7  C   UNL     1      32.578 -10.806 -23.759  0.00  0.00    +0.032 C 
ATOM      8  C   UNL     1      32.173  -7.067 -22.307  0.00  0.00    +0.018 C 
ATOM      9  C   UNL     1      32.807  -9.284 -23.634  0.00  0.00    +0.111 C 
ATOM     10  C   UNL     1      31.806 -11.870 -20.224  0.00  0.00    +0.003 C 
ATOM     11  C   UNL     1      31.900 -13.262 -20.885  0.00  0.00    +0.034 C 
ATOM     12  C   UNL     1      31.130  -8.842 -20.095  0.00  0.00    +0.004 C 
ATOM     13  C   UNL     1      34.231 -11.548 -21.968  0.00  0.00    +0.003 C 
ATOM     14  C   UNL     1      31.277  -6.575 -21.163  0.00  0.00    -0.042 C 
ATOM     15  C   UNL     1      31.351  -7.354 -19.873  0.00  0.00    +0.022 C 
ATOM     16  C   UNL     1      31.761  -6.377 -23.641  0.00  0.00    +0.012 C 
ATOM     17  C   UNL     1      33.622  -6.660 -21.958  0.00  0.00    +0.004 C 
ATOM     18  C   UNL     1      31.517  -4.883 -23.501  0.00  0.00    +0.069 C 
ATOM     19  C   UNL     1      30.480  -5.496 -21.241  0.00  0.00    +0.029 C 
ATOM     20  C   UNL     1      30.484  -4.622 -22.437  0.00  0.00    +0.173 C 
ENDROOT
BRANCH   6  21
ATOM     21  O   UNL     1      30.988 -13.125 -23.126  0.00  0.00    -0.380 OA
ATOM     22  H   UNL     1      30.231 -13.088 -22.521  0.00  0.00    +0.211 HD
ENDBRANCH   6  21
BRANCH   9  23
ATOM     23  O   UNL     1      34.197  -9.027 -23.483  0.00  0.00    -0.384 OA
ATOM     24  H   UNL     1      34.702  -9.656 -24.022  0.00  0.00    +0.210 HD
ENDBRANCH   9  23
BRANCH   6  26
ATOM     25  O   UNL     1      33.208 -14.160 -24.206  0.00  0.00    -0.291 OA
ATOM     26  C   UNL     1      33.123 -14.022 -22.987  0.00  0.00    +0.205 C 
BRANCH  26  27
ATOM     27  C   UNL     1      33.934 -14.855 -22.018  0.00  0.00    +0.220 C 
BRANCH  27  28
ATOM     28  O   UNL     1      34.635 -15.873 -22.700  0.00  0.00    -0.265 OA
BRANCH  28  29
ATOM     29  P   UNL     1      34.924 -17.270 -21.929  0.00  0.00    +0.473 P 
ATOM     30  O   UNL     1      34.008 -18.398 -22.302  0.00  0.00    -0.227 OA
BRANCH  29  31
ATOM     31  O   UNL     1      34.908 -16.854 -20.367  0.00  0.00    -0.303 OA
ATOM     32  H   UNL     1      35.364 -17.534 -19.846  0.00  0.00    +0.222 HD
ENDBRANCH  29  31
BRANCH  29  33
ATOM     33  O   UNL     1      36.491 -17.535 -22.227  0.00  0.00    -0.303 OA
ATOM     34  H   UNL     1      37.012 -17.305 -21.443  0.00  0.00    +0.222 HD
ENDBRANCH  29  33
ENDBRANCH  28  29
ENDBRANCH  27  28
ENDBRANCH  26  27
ENDBRANCH   6  26
TORSDOF 8
ENDMDL
