MODEL 1
REMARK VINA RESULT:     -10.2      0.000      0.000
REMARK  Name = 44517831
REMARK  8 active torsions:
REMARK  status: ('A' for Active; 'I' for Inactive)
REMARK    1  A    between atoms: O_1  and  C_7
REMARK    2  A    between atoms: O_1  and  C_20
REMARK    3  A    between atoms: N_2  and  C_10
REMARK    4  A    between atoms: C_10  and  C_11
REMARK    5  A    between atoms: C_11  and  C_13
REMARK    6  A    between atoms: C_20  and  C_21
REMARK    7  A    between atoms: C_21  and  N_23
REMARK    8  A    between atoms: C_21  and  C_30
REMARK                            x       y       z     vdW  Elec       q    Type
REMARK                         _______ _______ _______ _____ _____    ______ ____
ROOT
ATOM      1  O   UNL     1      34.801 -22.896 -16.667  0.00  0.00    -0.456 OA
ENDROOT
BRANCH   1   7
ATOM      2  N   UNL     1      34.533 -21.235 -19.712  0.00  0.00    +0.393 N 
ATOM      3  C   UNL     1      32.888 -22.317 -18.048  0.00  0.00    +0.034 C 
ATOM      4  C   UNL     1      35.110 -21.144 -18.288  0.00  0.00    -0.028 C 
ATOM      5  C   UNL     1      34.323 -22.709 -20.082  0.00  0.00    -0.073 C 
ATOM      6  C   UNL     1      33.185 -20.500 -19.763  0.00  0.00    -0.073 C 
ATOM      7  C   UNL     1      34.137 -21.811 -17.310  0.00  0.00    +0.149 C 
ATOM      8  C   UNL     1      33.305 -23.329 -19.125  0.00  0.00    -0.019 C 
ATOM      9  C   UNL     1      32.229 -21.124 -18.746  0.00  0.00    -0.019 C 
BRANCH   2  10
ATOM     10  C   UNL     1      35.501 -20.595 -20.695  0.00  0.00    -0.068 C 
BRANCH  10  11
ATOM     11  C   UNL     1      35.529 -19.083 -20.501  0.00  0.00    +0.004 C 
BRANCH  11  13
ATOM     12  F   UNL     1      33.463 -16.203 -24.884  0.00  0.00    -0.204 F 
ATOM     13  C   UNL     1      34.976 -18.312 -21.674  0.00  0.00    -0.024 C 
ATOM     14  C   UNL     1      34.408 -18.994 -22.750  0.00  0.00    -0.002 C 
ATOM     15  C   UNL     1      35.034 -16.918 -21.682  0.00  0.00    -0.002 C 
ATOM     16  C   UNL     1      33.897 -18.281 -23.835  0.00  0.00    +0.029 C 
ATOM     17  C   UNL     1      34.522 -16.206 -22.768  0.00  0.00    +0.029 C 
ATOM     18  C   UNL     1      33.954 -16.887 -23.843  0.00  0.00    +0.140 C 
ENDBRANCH  11  13
ENDBRANCH  10  11
ENDBRANCH   2  10
ENDBRANCH   1   7
BRANCH   1  20
ATOM     19  O   UNL     1      36.004 -21.696 -15.113  0.00  0.00    -0.252 OA
ATOM     20  C   UNL     1      35.282 -22.641 -15.408  0.00  0.00    +0.302 C 
BRANCH  20  21
ATOM     21  C   UNL     1      34.798 -23.720 -14.427  0.00  0.00    +0.069 C 
ATOM     22  C   UNL     1      35.270 -25.078 -14.979  0.00  0.00    -0.006 C 
BRANCH  21  23
ATOM     23  N   UNL     1      35.511 -23.499 -13.168  0.00  0.00    +0.398 N 
ATOM     24  C   UNL     1      34.708 -23.974 -12.032  0.00  0.00    -0.076 C 
ATOM     25  C   UNL     1      36.826 -24.156 -13.200  0.00  0.00    -0.076 C 
ATOM     26  C   UNL     1      35.419 -23.707 -10.705  0.00  0.00    -0.023 C 
ATOM     27  C   UNL     1      37.606 -23.894 -11.911  0.00  0.00    -0.023 C 
ATOM     28  C   UNL     1      36.810 -24.328 -10.685  0.00  0.00    -0.004 C 
ATOM     29  H   UNL     1      35.663 -22.498 -13.049  0.00  0.00    -0.078 HD
ENDBRANCH  21  23
BRANCH  21  30
ATOM     30  C   UNL     1      33.292 -23.595 -14.184  0.00  0.00    -0.030 C 
ATOM     31  C   UNL     1      32.663 -22.358 -14.321  0.00  0.00    -0.006 C 
ATOM     32  C   UNL     1      32.548 -24.719 -13.826  0.00  0.00    -0.006 C 
ATOM     33  C   UNL     1      31.290 -22.245 -14.100  0.00  0.00    -0.000 C 
ATOM     34  C   UNL     1      31.176 -24.607 -13.605  0.00  0.00    -0.000 C 
ATOM     35  C   UNL     1      30.547 -23.369 -13.742  0.00  0.00    -0.000 C 
ENDBRANCH  21  30
ENDBRANCH  20  21
ENDBRANCH   1  20
TORSDOF 8
ENDMDL
MODEL 2
REMARK VINA RESULT:      -9.5      9.996     16.506
REMARK  Name = 44517831
REMARK  8 active torsions:
REMARK  status: ('A' for Active; 'I' for Inactive)
REMARK    1  A    between atoms: O_1  and  C_7
REMARK    2  A    between atoms: O_1  and  C_20
REMARK    3  A    between atoms: N_2  and  C_10
REMARK    4  A    between atoms: C_10  and  C_11
REMARK    5  A    between atoms: C_11  and  C_13
REMARK    6  A    between atoms: C_20  and  C_21
REMARK    7  A    between atoms: C_21  and  N_23
REMARK    8  A    between atoms: C_21  and  C_30
REMARK                            x       y       z     vdW  Elec       q    Type
REMARK                         _______ _______ _______ _____ _____    ______ ____
ROOT
ATOM      1  O   UNL     1      32.426  -8.178 -23.332  0.00  0.00    -0.456 OA
ENDROOT
BRANCH   1   7
ATOM      2  N   UNL     1      32.058 -11.166 -21.588  0.00  0.00    +0.393 N 
ATOM      3  C   UNL     1      30.625  -9.054 -21.956  0.00  0.00    +0.034 C 
ATOM      4  C   UNL     1      32.386 -10.556 -22.962  0.00  0.00    -0.028 C 
ATOM      5  C   UNL     1      32.364 -10.139 -20.490  0.00  0.00    -0.073 C 
ATOM      6  C   UNL     1      30.568 -11.536 -21.539  0.00  0.00    -0.073 C 
ATOM      7  C   UNL     1      31.548  -9.289 -23.161  0.00  0.00    +0.149 C 
ATOM      8  C   UNL     1      31.473  -8.914 -20.683  0.00  0.00    -0.019 C 
ATOM      9  C   UNL     1      29.727 -10.284 -21.795  0.00  0.00    -0.019 C 
BRANCH   2  10
ATOM     10  C   UNL     1      32.900 -12.414 -21.370  0.00  0.00    -0.068 C 
BRANCH  10  11
ATOM     11  C   UNL     1      33.503 -12.881 -22.691  0.00  0.00    +0.004 C 
BRANCH  11  13
ATOM     12  F   UNL     1      34.905 -18.342 -22.725  0.00  0.00    -0.204 F 
ATOM     13  C   UNL     1      33.879 -14.343 -22.700  0.00  0.00    -0.024 C 
ATOM     14  C   UNL     1      34.184 -14.992 -21.503  0.00  0.00    -0.002 C 
ATOM     15  C   UNL     1      33.920 -15.044 -23.905  0.00  0.00    -0.002 C 
ATOM     16  C   UNL     1      34.531 -16.342 -21.512  0.00  0.00    +0.029 C 
ATOM     17  C   UNL     1      34.268 -16.396 -23.913  0.00  0.00    +0.029 C 
ATOM     18  C   UNL     1      34.573 -17.044 -22.717  0.00  0.00    +0.140 C 
ENDBRANCH  11  13
ENDBRANCH  10  11
ENDBRANCH   2  10
ENDBRANCH   1   7
BRANCH   1  20
ATOM     19  O   UNL     1      30.980  -7.154 -24.802  0.00  0.00    -0.252 OA
ATOM     20  C   UNL     1      31.901  -7.099 -23.996  0.00  0.00    +0.302 C 
BRANCH  20  21
ATOM     21  C   UNL     1      32.647  -5.817 -23.596  0.00  0.00    +0.069 C 
ATOM     22  C   UNL     1      33.881  -6.246 -22.780  0.00  0.00    -0.006 C 
BRANCH  21  23
ATOM     23  N   UNL     1      33.141  -5.210 -24.832  0.00  0.00    +0.398 N 
ATOM     24  C   UNL     1      34.549  -4.817 -24.685  0.00  0.00    -0.076 C 
ATOM     25  C   UNL     1      32.962  -6.132 -25.964  0.00  0.00    -0.076 C 
ATOM     26  C   UNL     1      35.067  -4.138 -25.953  0.00  0.00    -0.023 C 
ATOM     27  C   UNL     1      33.428  -5.495 -27.274  0.00  0.00    -0.023 C 
ATOM     28  C   UNL     1      34.875  -5.026 -27.177  0.00  0.00    -0.004 C 
ATOM     29  H   UNL     1      32.598  -4.369 -25.024  0.00  0.00    -0.078 HD
ENDBRANCH  21  23
BRANCH  21  30
ATOM     30  C   UNL     1      31.702  -4.837 -22.894  0.00  0.00    -0.030 C 
ATOM     31  C   UNL     1      31.586  -3.527 -23.357  0.00  0.00    -0.006 C 
ATOM     32  C   UNL     1      30.957  -5.256 -21.793  0.00  0.00    -0.006 C 
ATOM     33  C   UNL     1      30.725  -2.634 -22.717  0.00  0.00    -0.000 C 
ATOM     34  C   UNL     1      30.096  -4.365 -21.153  0.00  0.00    -0.000 C 
ATOM     35  C   UNL     1      29.980  -3.054 -21.616  0.00  0.00    -0.000 C 
ENDBRANCH  21  30
ENDBRANCH  20  21
ENDBRANCH   1  20
TORSDOF 8
ENDMDL
MODEL 3
REMARK VINA RESULT:      -9.4      9.498     16.066
REMARK  Name = 44517831
REMARK  8 active torsions:
REMARK  status: ('A' for Active; 'I' for Inactive)
REMARK    1  A    between atoms: O_1  and  C_7
REMARK    2  A    between atoms: O_1  and  C_20
REMARK    3  A    between atoms: N_2  and  C_10
REMARK    4  A    between atoms: C_10  and  C_11
REMARK    5  A    between atoms: C_11  and  C_13
REMARK    6  A    between atoms: C_20  and  C_21
REMARK    7  A    between atoms: C_21  and  N_23
REMARK    8  A    between atoms: C_21  and  C_30
REMARK                            x       y       z     vdW  Elec       q    Type
REMARK                         _______ _______ _______ _____ _____    ______ ____
ROOT
ATOM      1  O   UNL     1      32.601  -8.125 -22.217  0.00  0.00    -0.456 OA
ENDROOT
BRANCH   1   7
ATOM      2  N   UNL     1      32.021 -11.430 -21.297  0.00  0.00    +0.393 N 
ATOM      3  C   UNL     1      30.588  -9.299 -21.528  0.00  0.00    +0.034 C 
ATOM      4  C   UNL     1      32.619 -10.526 -22.389  0.00  0.00    -0.028 C 
ATOM      5  C   UNL     1      32.006 -10.673 -19.962  0.00  0.00    -0.073 C 
ATOM      6  C   UNL     1      30.584 -11.811 -21.682  0.00  0.00    -0.073 C 
ATOM      7  C   UNL     1      31.775  -9.252 -22.502  0.00  0.00    +0.149 C 
ATOM      8  C   UNL     1      31.111  -9.440 -20.092  0.00  0.00    -0.019 C 
ATOM      9  C   UNL     1      29.752 -10.540 -21.854  0.00  0.00    -0.019 C 
BRANCH   2  10
ATOM     10  C   UNL     1      32.864 -12.689 -21.160  0.00  0.00    -0.068 C 
BRANCH  10  11
ATOM     11  C   UNL     1      33.524 -13.030 -22.492  0.00  0.00    +0.004 C 
BRANCH  11  13
ATOM     12  F   UNL     1      34.923 -18.468 -22.992  0.00  0.00    -0.204 F 
ATOM     13  C   UNL     1      33.899 -14.485 -22.626  0.00  0.00    -0.024 C 
ATOM     14  C   UNL     1      34.258 -15.219 -21.495  0.00  0.00    -0.002 C 
ATOM     15  C   UNL     1      33.885 -15.096 -23.880  0.00  0.00    -0.002 C 
ATOM     16  C   UNL     1      34.605 -16.564 -21.619  0.00  0.00    +0.029 C 
ATOM     17  C   UNL     1      34.232 -16.442 -24.003  0.00  0.00    +0.029 C 
ATOM     18  C   UNL     1      34.591 -17.175 -22.873  0.00  0.00    +0.140 C 
ENDBRANCH  11  13
ENDBRANCH  10  11
ENDBRANCH   2  10
ENDBRANCH   1   7
BRANCH   1  20
ATOM     19  O   UNL     1      34.380  -7.830 -23.647  0.00  0.00    -0.252 OA
ATOM     20  C   UNL     1      33.238  -7.563 -23.294  0.00  0.00    +0.302 C 
BRANCH  20  21
ATOM     21  C   UNL     1      32.319  -6.540 -23.979  0.00  0.00    +0.069 C 
ATOM     22  C   UNL     1      31.075  -7.304 -24.468  0.00  0.00    -0.006 C 
BRANCH  21  23
ATOM     23  N   UNL     1      31.871  -5.611 -22.942  0.00  0.00    +0.398 N 
ATOM     24  C   UNL     1      30.404  -5.603 -22.857  0.00  0.00    -0.076 C 
ATOM     25  C   UNL     1      32.476  -5.956 -21.647  0.00  0.00    -0.076 C 
ATOM     26  C   UNL     1      29.918  -4.601 -21.809  0.00  0.00    -0.023 C 
ATOM     27  C   UNL     1      32.057  -4.964 -20.559  0.00  0.00    -0.023 C 
ATOM     28  C   UNL     1      30.540  -4.877 -20.445  0.00  0.00    -0.004 C 
ATOM     29  H   UNL     1      32.177  -4.670 -23.190  0.00  0.00    -0.078 HD
ENDBRANCH  21  23
BRANCH  21  30
ATOM     30  C   UNL     1      33.081  -5.765 -25.057  0.00  0.00    -0.030 C 
ATOM     31  C   UNL     1      32.774  -5.958 -26.404  0.00  0.00    -0.006 C 
ATOM     32  C   UNL     1      34.082  -4.864 -24.693  0.00  0.00    -0.006 C 
ATOM     33  C   UNL     1      33.468  -5.251 -27.386  0.00  0.00    -0.000 C 
ATOM     34  C   UNL     1      34.777  -4.157 -25.674  0.00  0.00    -0.000 C 
ATOM     35  C   UNL     1      34.469  -4.352 -27.021  0.00  0.00    -0.000 C 
ENDBRANCH  21  30
ENDBRANCH  20  21
ENDBRANCH   1  20
TORSDOF 8
ENDMDL
MODEL 4
REMARK VINA RESULT:      -9.3      1.628      2.885
REMARK  Name = 44517831
REMARK  8 active torsions:
REMARK  status: ('A' for Active; 'I' for Inactive)
REMARK    1  A    between atoms: O_1  and  C_7
REMARK    2  A    between atoms: O_1  and  C_20
REMARK    3  A    between atoms: N_2  and  C_10
REMARK    4  A    between atoms: C_10  and  C_11
REMARK    5  A    between atoms: C_11  and  C_13
REMARK    6  A    between atoms: C_20  and  C_21
REMARK    7  A    between atoms: C_21  and  N_23
REMARK    8  A    between atoms: C_21  and  C_30
REMARK                            x       y       z     vdW  Elec       q    Type
REMARK                         _______ _______ _______ _____ _____    ______ ____
ROOT
ATOM      1  O   UNL     1      34.945 -23.086 -16.480  0.00  0.00    -0.456 OA
ENDROOT
BRANCH   1   7
ATOM      2  N   UNL     1      34.398 -21.421 -19.485  0.00  0.00    +0.393 N 
ATOM      3  C   UNL     1      32.912 -22.486 -17.667  0.00  0.00    +0.034 C 
ATOM      4  C   UNL     1      35.112 -21.337 -18.124  0.00  0.00    -0.028 C 
ATOM      5  C   UNL     1      34.137 -22.893 -19.832  0.00  0.00    -0.073 C 
ATOM      6  C   UNL     1      33.060 -20.671 -19.404  0.00  0.00    -0.073 C 
ATOM      7  C   UNL     1      34.232 -21.994 -17.056  0.00  0.00    +0.149 C 
ATOM      8  C   UNL     1      33.211 -23.502 -18.779  0.00  0.00    -0.019 C 
ATOM      9  C   UNL     1      32.201 -21.286 -18.299  0.00  0.00    -0.019 C 
BRANCH   2  10
ATOM     10  C   UNL     1      35.272 -20.791 -20.559  0.00  0.00    -0.068 C 
BRANCH  10  11
ATOM     11  C   UNL     1      35.375 -19.285 -20.340  0.00  0.00    +0.004 C 
BRANCH  11  13
ATOM     12  F   UNL     1      33.615 -16.235 -24.742  0.00  0.00    -0.204 F 
ATOM     13  C   UNL     1      34.903 -18.469 -21.518  0.00  0.00    -0.024 C 
ATOM     14  C   UNL     1      35.046 -17.081 -21.506  0.00  0.00    -0.002 C 
ATOM     15  C   UNL     1      34.326 -19.102 -22.619  0.00  0.00    -0.002 C 
ATOM     16  C   UNL     1      34.610 -16.327 -22.595  0.00  0.00    +0.029 C 
ATOM     17  C   UNL     1      33.890 -18.347 -23.708  0.00  0.00    +0.029 C 
ATOM     18  C   UNL     1      34.033 -16.960 -23.696  0.00  0.00    +0.140 C 
ENDBRANCH  11  13
ENDBRANCH  10  11
ENDBRANCH   2  10
ENDBRANCH   1   7
BRANCH   1  20
ATOM     19  O   UNL     1      36.124 -21.698 -15.071  0.00  0.00    -0.252 OA
ATOM     20  C   UNL     1      35.665 -22.800 -15.348  0.00  0.00    +0.302 C 
BRANCH  20  21
ATOM     21  C   UNL     1      35.826 -24.063 -14.488  0.00  0.00    +0.069 C 
ATOM     22  C   UNL     1      34.743 -25.061 -14.941  0.00  0.00    -0.006 C 
BRANCH  21  23
ATOM     23  N   UNL     1      37.120 -24.650 -14.835  0.00  0.00    +0.398 N 
ATOM     24  C   UNL     1      38.201 -23.677 -14.619  0.00  0.00    -0.076 C 
ATOM     25  C   UNL     1      37.350 -25.879 -14.062  0.00  0.00    -0.076 C 
ATOM     26  C   UNL     1      39.556 -24.260 -15.021  0.00  0.00    -0.023 C 
ATOM     27  C   UNL     1      38.678 -26.534 -14.448  0.00  0.00    -0.023 C 
ATOM     28  C   UNL     1      39.841 -25.563 -14.285  0.00  0.00    -0.004 C 
ATOM     29  H   UNL     1      37.113 -24.897 -15.824  0.00  0.00    -0.078 HD
ENDBRANCH  21  23
BRANCH  21  30
ATOM     30  C   UNL     1      35.813 -23.710 -12.999  0.00  0.00    -0.030 C 
ATOM     31  C   UNL     1      34.915 -24.342 -12.139  0.00  0.00    -0.006 C 
ATOM     32  C   UNL     1      36.701 -22.756 -12.501  0.00  0.00    -0.006 C 
ATOM     33  C   UNL     1      34.904 -24.020 -10.782  0.00  0.00    -0.000 C 
ATOM     34  C   UNL     1      36.692 -22.434 -11.144  0.00  0.00    -0.000 C 
ATOM     35  C   UNL     1      35.792 -23.066 -10.285  0.00  0.00    -0.000 C 
ENDBRANCH  21  30
ENDBRANCH  20  21
ENDBRANCH   1  20
TORSDOF 8
ENDMDL
MODEL 5
REMARK VINA RESULT:      -9.2      9.417     16.010
REMARK  Name = 44517831
REMARK  8 active torsions:
REMARK  status: ('A' for Active; 'I' for Inactive)
REMARK    1  A    between atoms: O_1  and  C_7
REMARK    2  A    between atoms: O_1  and  C_20
REMARK    3  A    between atoms: N_2  and  C_10
REMARK    4  A    between atoms: C_10  and  C_11
REMARK    5  A    between atoms: C_11  and  C_13
REMARK    6  A    between atoms: C_20  and  C_21
REMARK    7  A    between atoms: C_21  and  N_23
REMARK    8  A    between atoms: C_21  and  C_30
REMARK                            x       y       z     vdW  Elec       q    Type
REMARK                         _______ _______ _______ _____ _____    ______ ____
ROOT
ATOM      1  O   UNL     1      32.112  -8.354 -22.264  0.00  0.00    -0.456 OA
ENDROOT
BRANCH   1   7
ATOM      2  N   UNL     1      32.610 -11.792 -22.078  0.00  0.00    +0.393 N 
ATOM      3  C   UNL     1      30.626 -10.191 -21.697  0.00  0.00    +0.034 C 
ATOM      4  C   UNL     1      32.768 -10.556 -22.981  0.00  0.00    -0.028 C 
ATOM      5  C   UNL     1      32.583 -11.349 -20.609  0.00  0.00    -0.073 C 
ATOM      6  C   UNL     1      31.294 -12.507 -22.420  0.00  0.00    -0.073 C 
ATOM      7  C   UNL     1      31.598  -9.600 -22.729  0.00  0.00    +0.149 C 
ATOM      8  C   UNL     1      31.373 -10.444 -20.379  0.00  0.00    -0.019 C 
ATOM      9  C   UNL     1      30.127 -11.538 -22.226  0.00  0.00    -0.019 C 
BRANCH   2  10
ATOM     10  C   UNL     1      33.779 -12.739 -22.303  0.00  0.00    -0.068 C 
BRANCH  10  11
ATOM     11  C   UNL     1      33.806 -13.812 -21.220  0.00  0.00    +0.004 C 
BRANCH  11  13
ATOM     12  F   UNL     1      35.020 -18.961 -23.169  0.00  0.00    -0.204 F 
ATOM     13  C   UNL     1      34.131 -15.190 -21.741  0.00  0.00    -0.024 C 
ATOM     14  C   UNL     1      34.081 -15.446 -23.112  0.00  0.00    -0.002 C 
ATOM     15  C   UNL     1      34.480 -16.208 -20.853  0.00  0.00    -0.002 C 
ATOM     16  C   UNL     1      34.382 -16.720 -23.594  0.00  0.00    +0.029 C 
ATOM     17  C   UNL     1      34.780 -17.482 -21.336  0.00  0.00    +0.029 C 
ATOM     18  C   UNL     1      34.731 -17.737 -22.706  0.00  0.00    +0.140 C 
ENDBRANCH  11  13
ENDBRANCH  10  11
ENDBRANCH   2  10
ENDBRANCH   1   7
BRANCH   1  20
ATOM     19  O   UNL     1      34.079  -7.889 -23.367  0.00  0.00    -0.252 OA
ATOM     20  C   UNL     1      32.894  -7.661 -23.152  0.00  0.00    +0.302 C 
BRANCH  20  21
ATOM     21  C   UNL     1      32.076  -6.547 -23.822  0.00  0.00    +0.069 C 
ATOM     22  C   UNL     1      30.730  -7.165 -24.245  0.00  0.00    -0.006 C 
BRANCH  21  23
ATOM     23  N   UNL     1      31.785  -5.553 -22.789  0.00  0.00    +0.398 N 
ATOM     24  C   UNL     1      30.886  -4.515 -23.313  0.00  0.00    -0.076 C 
ATOM     25  C   UNL     1      31.212  -6.201 -21.600  0.00  0.00    -0.076 C 
ATOM     26  C   UNL     1      30.610  -3.442 -22.259  0.00  0.00    -0.023 C 
ATOM     27  C   UNL     1      30.948  -5.182 -20.490  0.00  0.00    -0.023 C 
ATOM     28  C   UNL     1      30.050  -4.052 -20.979  0.00  0.00    -0.004 C 
ATOM     29  H   UNL     1      32.657  -5.104 -22.513  0.00  0.00    -0.078 HD
ENDBRANCH  21  23
BRANCH  21  30
ATOM     30  C   UNL     1      32.878  -5.888 -24.947  0.00  0.00    -0.030 C 
ATOM     31  C   UNL     1      32.481  -6.047 -26.274  0.00  0.00    -0.006 C 
ATOM     32  C   UNL     1      34.007  -5.126 -24.645  0.00  0.00    -0.006 C 
ATOM     33  C   UNL     1      33.212  -5.446 -27.299  0.00  0.00    -0.000 C 
ATOM     34  C   UNL     1      34.738  -4.525 -25.668  0.00  0.00    -0.000 C 
ATOM     35  C   UNL     1      34.340  -4.685 -26.996  0.00  0.00    -0.000 C 
ENDBRANCH  21  30
ENDBRANCH  20  21
ENDBRANCH   1  20
TORSDOF 8
ENDMDL
MODEL 6
REMARK VINA RESULT:      -9.2      9.823     16.226
REMARK  Name = 44517831
REMARK  8 active torsions:
REMARK  status: ('A' for Active; 'I' for Inactive)
REMARK    1  A    between atoms: O_1  and  C_7
REMARK    2  A    between atoms: O_1  and  C_20
REMARK    3  A    between atoms: N_2  and  C_10
REMARK    4  A    between atoms: C_10  and  C_11
REMARK    5  A    between atoms: C_11  and  C_13
REMARK    6  A    between atoms: C_20  and  C_21
REMARK    7  A    between atoms: C_21  and  N_23
REMARK    8  A    between atoms: C_21  and  C_30
REMARK                            x       y       z     vdW  Elec       q    Type
REMARK                         _______ _______ _______ _____ _____    ______ ____
ROOT
ATOM      1  O   UNL     1      32.568  -8.540 -23.261  0.00  0.00    -0.456 OA
ENDROOT
BRANCH   1   7
ATOM      2  N   UNL     1      31.955 -11.451 -21.458  0.00  0.00    +0.393 N 
ATOM      3  C   UNL     1      30.681  -9.256 -21.908  0.00  0.00    +0.034 C 
ATOM      4  C   UNL     1      32.356 -10.900 -22.837  0.00  0.00    -0.028 C 
ATOM      5  C   UNL     1      32.308 -10.421 -20.376  0.00  0.00    -0.073 C 
ATOM      6  C   UNL     1      30.443 -11.716 -21.436  0.00  0.00    -0.073 C 
ATOM      7  C   UNL     1      31.613  -9.583 -23.085  0.00  0.00    +0.149 C 
ATOM      8  C   UNL     1      31.508  -9.142 -20.619  0.00  0.00    -0.019 C 
ATOM      9  C   UNL     1      29.697 -10.417 -21.741  0.00  0.00    -0.019 C 
BRANCH   2  10
ATOM     10  C   UNL     1      32.705 -12.748 -21.191  0.00  0.00    -0.068 C 
BRANCH  10  11
ATOM     11  C   UNL     1      33.821 -12.933 -22.213  0.00  0.00    +0.004 C 
BRANCH  11  13
ATOM     12  F   UNL     1      33.900 -18.051 -24.575  0.00  0.00    -0.204 F 
ATOM     13  C   UNL     1      33.842 -14.303 -22.845  0.00  0.00    -0.024 C 
ATOM     14  C   UNL     1      33.301 -14.492 -24.117  0.00  0.00    -0.002 C 
ATOM     15  C   UNL     1      34.402 -15.380 -22.157  0.00  0.00    -0.002 C 
ATOM     16  C   UNL     1      33.321 -15.759 -24.701  0.00  0.00    +0.029 C 
ATOM     17  C   UNL     1      34.421 -16.646 -22.742  0.00  0.00    +0.029 C 
ATOM     18  C   UNL     1      33.881 -16.835 -24.013  0.00  0.00    +0.140 C 
ENDBRANCH  11  13
ENDBRANCH  10  11
ENDBRANCH   2  10
ENDBRANCH   1   7
BRANCH   1  20
ATOM     19  O   UNL     1      31.472  -7.605 -25.056  0.00  0.00    -0.252 OA
ATOM     20  C   UNL     1      32.174  -7.496 -24.058  0.00  0.00    +0.302 C 
BRANCH  20  21
ATOM     21  C   UNL     1      32.755  -6.176 -23.529  0.00  0.00    +0.069 C 
ATOM     22  C   UNL     1      34.198  -6.465 -23.075  0.00  0.00    -0.006 C 
BRANCH  21  23
ATOM     23  N   UNL     1      32.840  -5.263 -24.669  0.00  0.00    +0.398 N 
ATOM     24  C   UNL     1      32.840  -3.866 -24.211  0.00  0.00    -0.076 C 
ATOM     25  C   UNL     1      34.034  -5.557 -25.475  0.00  0.00    -0.076 C 
ATOM     26  C   UNL     1      32.881  -2.898 -25.393  0.00  0.00    -0.023 C 
ATOM     27  C   UNL     1      34.113  -4.644 -26.700  0.00  0.00    -0.023 C 
ATOM     28  C   UNL     1      34.077  -3.174 -26.297  0.00  0.00    -0.004 C 
ATOM     29  H   UNL     1      32.020  -5.399 -25.260  0.00  0.00    -0.078 HD
ENDBRANCH  21  23
BRANCH  21  30
ATOM     30  C   UNL     1      31.838  -5.570 -22.463  0.00  0.00    -0.030 C 
ATOM     31  C   UNL     1      30.566  -5.117 -22.812  0.00  0.00    -0.006 C 
ATOM     32  C   UNL     1      32.275  -5.471 -21.142  0.00  0.00    -0.006 C 
ATOM     33  C   UNL     1      29.731  -4.565 -21.840  0.00  0.00    -0.000 C 
ATOM     34  C   UNL     1      31.442  -4.919 -20.170  0.00  0.00    -0.000 C 
ATOM     35  C   UNL     1      30.169  -4.467 -20.520  0.00  0.00    -0.000 C 
ENDBRANCH  21  30
ENDBRANCH  20  21
ENDBRANCH   1  20
TORSDOF 8
ENDMDL
MODEL 7
REMARK VINA RESULT:      -8.9      1.597      3.127
REMARK  Name = 44517831
REMARK  8 active torsions:
REMARK  status: ('A' for Active; 'I' for Inactive)
REMARK    1  A    between atoms: O_1  and  C_7
REMARK    2  A    between atoms: O_1  and  C_20
REMARK    3  A    between atoms: N_2  and  C_10
REMARK    4  A    between atoms: C_10  and  C_11
REMARK    5  A    between atoms: C_11  and  C_13
REMARK    6  A    between atoms: C_20  and  C_21
REMARK    7  A    between atoms: C_21  and  N_23
REMARK    8  A    between atoms: C_21  and  C_30
REMARK                            x       y       z     vdW  Elec       q    Type
REMARK                         _______ _______ _______ _____ _____    ______ ____
ROOT
ATOM      1  O   UNL     1      35.039 -23.027 -16.535  0.00  0.00    -0.456 OA
ENDROOT
BRANCH   1   7
ATOM      2  N   UNL     1      34.416 -21.417 -19.556  0.00  0.00    +0.393 N 
ATOM      3  C   UNL     1      32.978 -22.493 -17.706  0.00  0.00    +0.034 C 
ATOM      4  C   UNL     1      35.144 -21.297 -18.206  0.00  0.00    -0.028 C 
ATOM      5  C   UNL     1      34.187 -22.900 -19.880  0.00  0.00    -0.073 C 
ATOM      6  C   UNL     1      33.061 -20.699 -19.469  0.00  0.00    -0.073 C 
ATOM      7  C   UNL     1      34.293 -21.961 -17.117  0.00  0.00    +0.149 C 
ATOM      8  C   UNL     1      33.289 -23.517 -18.807  0.00  0.00    -0.019 C 
ATOM      9  C   UNL     1      32.231 -21.320 -18.345  0.00  0.00    -0.019 C 
BRANCH   2  10
ATOM     10  C   UNL     1      35.261 -20.781 -20.649  0.00  0.00    -0.068 C 
BRANCH  10  11
ATOM     11  C   UNL     1      35.425 -19.288 -20.388  0.00  0.00    +0.004 C 
BRANCH  11  13
ATOM     12  F   UNL     1      33.633 -16.042 -24.635  0.00  0.00    -0.204 F 
ATOM     13  C   UNL     1      34.945 -18.419 -21.525  0.00  0.00    -0.024 C 
ATOM     14  C   UNL     1      35.021 -17.030 -21.420  0.00  0.00    -0.002 C 
ATOM     15  C   UNL     1      34.425 -19.005 -22.679  0.00  0.00    -0.002 C 
ATOM     16  C   UNL     1      34.578 -16.227 -22.471  0.00  0.00    +0.029 C 
ATOM     17  C   UNL     1      33.981 -18.201 -23.729  0.00  0.00    +0.029 C 
ATOM     18  C   UNL     1      34.058 -16.813 -23.625  0.00  0.00    +0.140 C 
ENDBRANCH  11  13
ENDBRANCH  10  11
ENDBRANCH   2  10
ENDBRANCH   1   7
BRANCH   1  20
ATOM     19  O   UNL     1      33.724 -23.688 -14.765  0.00  0.00    -0.252 OA
ATOM     20  C   UNL     1      34.790 -23.278 -15.210  0.00  0.00    +0.302 C 
BRANCH  20  21
ATOM     21  C   UNL     1      36.031 -22.954 -14.366  0.00  0.00    +0.069 C 
ATOM     22  C   UNL     1      36.475 -21.527 -14.741  0.00  0.00    -0.006 C 
BRANCH  21  23
ATOM     23  N   UNL     1      35.596 -22.914 -12.970  0.00  0.00    +0.398 N 
ATOM     24  C   UNL     1      35.047 -24.215 -12.564  0.00  0.00    -0.076 C 
ATOM     25  C   UNL     1      36.708 -22.511 -12.096  0.00  0.00    -0.076 C 
ATOM     26  C   UNL     1      34.544 -24.176 -11.121  0.00  0.00    -0.023 C 
ATOM     27  C   UNL     1      36.258 -22.415 -10.637  0.00  0.00    -0.023 C 
ATOM     28  C   UNL     1      35.640 -23.725 -10.162  0.00  0.00    -0.004 C 
ATOM     29  H   UNL     1      34.856 -22.218 -12.877  0.00  0.00    -0.078 HD
ENDBRANCH  21  23
BRANCH  21  30
ATOM     30  C   UNL     1      37.098 -24.039 -14.532  0.00  0.00    -0.030 C 
ATOM     31  C   UNL     1      38.428 -23.683 -14.750  0.00  0.00    -0.006 C 
ATOM     32  C   UNL     1      36.739 -25.386 -14.464  0.00  0.00    -0.006 C 
ATOM     33  C   UNL     1      39.400 -24.673 -14.901  0.00  0.00    -0.000 C 
ATOM     34  C   UNL     1      37.709 -26.375 -14.615  0.00  0.00    -0.000 C 
ATOM     35  C   UNL     1      39.040 -26.018 -14.834  0.00  0.00    -0.000 C 
ENDBRANCH  21  30
ENDBRANCH  20  21
ENDBRANCH   1  20
TORSDOF 8
ENDMDL
MODEL 8
REMARK VINA RESULT:      -8.9      1.081      3.309
REMARK  Name = 44517831
REMARK  8 active torsions:
REMARK  status: ('A' for Active; 'I' for Inactive)
REMARK    1  A    between atoms: O_1  and  C_7
REMARK    2  A    between atoms: O_1  and  C_20
REMARK    3  A    between atoms: N_2  and  C_10
REMARK    4  A    between atoms: C_10  and  C_11
REMARK    5  A    between atoms: C_11  and  C_13
REMARK    6  A    between atoms: C_20  and  C_21
REMARK    7  A    between atoms: C_21  and  N_23
REMARK    8  A    between atoms: C_21  and  C_30
REMARK                            x       y       z     vdW  Elec       q    Type
REMARK                         _______ _______ _______ _____ _____    ______ ____
ROOT
ATOM      1  O   UNL     1      35.051 -22.688 -16.718  0.00  0.00    -0.456 OA
ENDROOT
BRANCH   1   7
ATOM      2  N   UNL     1      34.575 -21.142 -19.798  0.00  0.00    +0.393 N 
ATOM      3  C   UNL     1      33.058 -22.269 -18.044  0.00  0.00    +0.034 C 
ATOM      4  C   UNL     1      35.194 -20.972 -18.400  0.00  0.00    -0.028 C 
ATOM      5  C   UNL     1      34.443 -22.637 -20.118  0.00  0.00    -0.073 C 
ATOM      6  C   UNL     1      33.184 -20.491 -19.821  0.00  0.00    -0.073 C 
ATOM      7  C   UNL     1      34.299 -21.666 -17.368  0.00  0.00    +0.149 C 
ATOM      8  C   UNL     1      33.500 -23.287 -19.105  0.00  0.00    -0.019 C 
ATOM      9  C   UNL     1      32.304 -21.140 -18.753  0.00  0.00    -0.019 C 
BRANCH   2  10
ATOM     10  C   UNL     1      35.467 -20.476 -20.835  0.00  0.00    -0.068 C 
BRANCH  10  11
ATOM     11  C   UNL     1      35.482 -18.965 -20.627  0.00  0.00    +0.004 C 
BRANCH  11  13
ATOM     12  F   UNL     1      33.391 -16.063 -24.984  0.00  0.00    -0.204 F 
ATOM     13  C   UNL     1      34.922 -18.189 -21.793  0.00  0.00    -0.024 C 
ATOM     14  C   UNL     1      34.975 -16.794 -21.792  0.00  0.00    -0.002 C 
ATOM     15  C   UNL     1      34.351 -18.865 -22.871  0.00  0.00    -0.002 C 
ATOM     16  C   UNL     1      34.458 -16.077 -22.870  0.00  0.00    +0.029 C 
ATOM     17  C   UNL     1      33.834 -18.146 -23.950  0.00  0.00    +0.029 C 
ATOM     18  C   UNL     1      33.887 -16.753 -23.948  0.00  0.00    +0.140 C 
ENDBRANCH  11  13
ENDBRANCH  10  11
ENDBRANCH   2  10
ENDBRANCH   1   7
BRANCH   1  20
ATOM     19  O   UNL     1      36.585 -21.359 -15.631  0.00  0.00    -0.252 OA
ATOM     20  C   UNL     1      35.787 -22.289 -15.631  0.00  0.00    +0.302 C 
BRANCH  20  21
ATOM     21  C   UNL     1      35.480 -23.188 -14.424  0.00  0.00    +0.069 C 
ATOM     22  C   UNL     1      35.745 -22.352 -13.158  0.00  0.00    -0.006 C 
BRANCH  21  23
ATOM     23  N   UNL     1      34.045 -23.469 -14.458  0.00  0.00    +0.398 N 
ATOM     24  C   UNL     1      33.651 -24.278 -13.297  0.00  0.00    -0.076 C 
ATOM     25  C   UNL     1      33.277 -22.217 -14.517  0.00  0.00    -0.076 C 
ATOM     26  C   UNL     1      32.162 -24.621 -13.343  0.00  0.00    -0.023 C 
ATOM     27  C   UNL     1      31.775 -22.492 -14.604  0.00  0.00    -0.023 C 
ATOM     28  C   UNL     1      31.305 -23.364 -13.446  0.00  0.00    -0.004 C 
ATOM     29  H   UNL     1      33.836 -24.005 -15.300  0.00  0.00    -0.078 HD
ENDBRANCH  21  23
BRANCH  21  30
ATOM     30  C   UNL     1      36.255 -24.504 -14.517  0.00  0.00    -0.030 C 
ATOM     31  C   UNL     1      37.569 -24.575 -14.055  0.00  0.00    -0.006 C 
ATOM     32  C   UNL     1      35.648 -25.634 -15.064  0.00  0.00    -0.006 C 
ATOM     33  C   UNL     1      38.276 -25.775 -14.139  0.00  0.00    -0.000 C 
ATOM     34  C   UNL     1      36.353 -26.834 -15.150  0.00  0.00    -0.000 C 
ATOM     35  C   UNL     1      37.668 -26.904 -14.687  0.00  0.00    -0.000 C 
ENDBRANCH  21  30
ENDBRANCH  20  21
ENDBRANCH   1  20
TORSDOF 8
ENDMDL
MODEL 9
REMARK VINA RESULT:      -8.8     11.224     17.996
REMARK  Name = 44517831
REMARK  8 active torsions:
REMARK  status: ('A' for Active; 'I' for Inactive)
REMARK    1  A    between atoms: O_1  and  C_7
REMARK    2  A    between atoms: O_1  and  C_20
REMARK    3  A    between atoms: N_2  and  C_10
REMARK    4  A    between atoms: C_10  and  C_11
REMARK    5  A    between atoms: C_11  and  C_13
REMARK    6  A    between atoms: C_20  and  C_21
REMARK    7  A    between atoms: C_21  and  N_23
REMARK    8  A    between atoms: C_21  and  C_30
REMARK                            x       y       z     vdW  Elec       q    Type
REMARK                         _______ _______ _______ _____ _____    ______ ____
ROOT
ATOM      1  O   UNL     1      32.698  -7.053 -24.247  0.00  0.00    -0.456 OA
ENDROOT
BRANCH   1   7
ATOM      2  N   UNL     1      31.525  -9.173 -21.750  0.00  0.00    +0.393 N 
ATOM      3  C   UNL     1      30.524  -7.278 -23.185  0.00  0.00    +0.034 C 
ATOM      4  C   UNL     1      32.243  -9.125 -23.110  0.00  0.00    -0.028 C 
ATOM      5  C   UNL     1      31.710  -7.830 -21.030  0.00  0.00    -0.073 C 
ATOM      6  C   UNL     1      30.027  -9.428 -21.974  0.00  0.00    -0.073 C 
ATOM      7  C   UNL     1      31.659  -7.982 -23.945  0.00  0.00    +0.149 C 
ATOM      8  C   UNL     1      31.067  -6.720 -21.861  0.00  0.00    -0.019 C 
ATOM      9  C   UNL     1      29.451  -8.320 -22.857  0.00  0.00    -0.019 C 
BRANCH   2  10
ATOM     10  C   UNL     1      32.112 -10.291 -20.902  0.00  0.00    -0.068 C 
BRANCH  10  11
ATOM     11  C   UNL     1      31.413 -11.611 -21.212  0.00  0.00    +0.004 C 
BRANCH  11  13
ATOM     12  F   UNL     1      34.957 -15.772 -22.596  0.00  0.00    -0.204 F 
ATOM     13  C   UNL     1      32.362 -12.725 -21.582  0.00  0.00    -0.024 C 
ATOM     14  C   UNL     1      32.726 -12.915 -22.915  0.00  0.00    -0.002 C 
ATOM     15  C   UNL     1      32.873 -13.563 -20.592  0.00  0.00    -0.002 C 
ATOM     16  C   UNL     1      33.602 -13.945 -23.257  0.00  0.00    +0.029 C 
ATOM     17  C   UNL     1      33.750 -14.593 -20.935  0.00  0.00    +0.029 C 
ATOM     18  C   UNL     1      34.114 -14.783 -22.267  0.00  0.00    +0.140 C 
ENDBRANCH  11  13
ENDBRANCH  10  11
ENDBRANCH   2  10
ENDBRANCH   1   7
BRANCH   1  20
ATOM     19  O   UNL     1      31.781  -6.435 -26.266  0.00  0.00    -0.252 OA
ATOM     20  C   UNL     1      32.435  -6.171 -25.264  0.00  0.00    +0.302 C 
BRANCH  20  21
ATOM     21  C   UNL     1      33.094  -4.815 -24.973  0.00  0.00    +0.069 C 
ATOM     22  C   UNL     1      34.107  -5.038 -23.834  0.00  0.00    -0.006 C 
BRANCH  21  23
ATOM     23  N   UNL     1      33.863  -4.452 -26.164  0.00  0.00    +0.398 N 
ATOM     24  C   UNL     1      34.419  -3.099 -26.025  0.00  0.00    -0.076 C 
ATOM     25  C   UNL     1      34.924  -5.439 -26.411  0.00  0.00    -0.076 C 
ATOM     26  C   UNL     1      35.186  -2.687 -27.282  0.00  0.00    -0.023 C 
ATOM     27  C   UNL     1      35.707  -5.103 -27.681  0.00  0.00    -0.023 C 
ATOM     28  C   UNL     1      36.280  -3.692 -27.620  0.00  0.00    -0.004 C 
ATOM     29  H   UNL     1      33.239  -4.455 -26.970  0.00  0.00    -0.078 HD
ENDBRANCH  21  23
BRANCH  21  30
ATOM     30  C   UNL     1      32.034  -3.743 -24.710  0.00  0.00    -0.030 C 
ATOM     31  C   UNL     1      31.710  -3.387 -23.401  0.00  0.00    -0.006 C 
ATOM     32  C   UNL     1      31.391  -3.120 -25.780  0.00  0.00    -0.006 C 
ATOM     33  C   UNL     1      30.744  -2.410 -23.162  0.00  0.00    -0.000 C 
ATOM     34  C   UNL     1      30.425  -2.143 -25.542  0.00  0.00    -0.000 C 
ATOM     35  C   UNL     1      30.102  -1.789 -24.232  0.00  0.00    -0.000 C 
ENDBRANCH  21  30
ENDBRANCH  20  21
ENDBRANCH   1  20
TORSDOF 8
ENDMDL
