MODEL 1
REMARK VINA RESULT:     -14.5      0.000      0.000
REMARK  Name = 11581936
REMARK  5 active torsions:
REMARK  status: ('A' for Active; 'I' for Inactive)
REMARK    1  A    between atoms: C_1  and  C_9
REMARK    2  A    between atoms: C_4  and  O_19
REMARK    3  A    between atoms: C_10  and  C_14
REMARK    4  A    between atoms: O_19  and  C_20
REMARK    5  A    between atoms: C_20  and  C_22
REMARK                            x       y       z     vdW  Elec       q    Type
REMARK                         _______ _______ _______ _____ _____    ______ ____
ROOT
ATOM      1  C   UNL     1      32.992 -21.663 -18.179  0.00  0.00    +0.019 C 
ATOM      2  C   UNL     1      34.356 -21.900 -18.342  0.00  0.00    +0.005 C 
ATOM      3  C   UNL     1      32.323 -20.802 -19.049  0.00  0.00    +0.005 C 
ATOM      4  C   UNL     1      34.380 -20.419 -20.241  0.00  0.00    +0.139 C 
ATOM      5  C   UNL     1      35.052 -21.275 -19.377  0.00  0.00    +0.037 C 
ATOM      6  C   UNL     1      33.019 -20.178 -20.085  0.00  0.00    +0.037 C 
ENDROOT
BRANCH   1   9
ATOM      7  N   UNL     1      30.634 -23.024 -16.008  0.00  0.00    -0.208 N 
ATOM      8  N   UNL     1      30.937 -22.368 -17.141  0.00  0.00    -0.178 NA
ATOM      9  C   UNL     1      32.274 -22.306 -17.114  0.00  0.00    +0.100 C 
ATOM     10  C   UNL     1      32.816 -22.923 -15.967  0.00  0.00    +0.036 C 
ATOM     11  C   UNL     1      31.724 -23.380 -15.269  0.00  0.00    +0.086 C 
ATOM     12  C   UNL     1      29.254 -23.288 -15.680  0.00  0.00    +0.140 C 
BRANCH  10  14
ATOM     13  N   UNL     1      36.806 -23.433 -14.656  0.00  0.00    -0.242 NA
ATOM     14  C   UNL     1      34.166 -23.095 -15.522  0.00  0.00    +0.006 C 
ATOM     15  C   UNL     1      34.661 -24.370 -15.260  0.00  0.00    +0.021 C 
ATOM     16  C   UNL     1      34.995 -21.990 -15.350  0.00  0.00    +0.021 C 
ATOM     17  C   UNL     1      35.975 -24.483 -14.834  0.00  0.00    +0.099 C 
ATOM     18  C   UNL     1      36.293 -22.210 -14.920  0.00  0.00    +0.099 C 
ENDBRANCH  10  14
ENDBRANCH   1   9
BRANCH   4  19
ATOM     19  O   UNL     1      35.064 -19.805 -21.258  0.00  0.00    -0.468 OA
BRANCH  19  20
ATOM     20  C   UNL     1      35.784 -18.625 -20.925  0.00  0.00    +0.264 C 
BRANCH  20  22
ATOM     21  N   UNL     1      34.753 -16.438 -20.795  0.00  0.00    -0.406 NA
ATOM     22  C   UNL     1      35.149 -17.453 -21.597  0.00  0.00    +0.152 C 
ATOM     23  C   UNL     1      33.978 -15.277 -22.760  0.00  0.00    +0.026 C 
ATOM     24  C   UNL     1      34.176 -15.363 -21.366  0.00  0.00    +0.113 C 
ATOM     25  C   UNL     1      34.997 -17.459 -22.969  0.00  0.00    +0.031 C 
ATOM     26  C   UNL     1      34.402 -16.350 -23.554  0.00  0.00    +0.005 C 
ATOM     27  C   UNL     1      33.371 -14.141 -23.321  0.00  0.00    +0.002 C 
ATOM     28  C   UNL     1      33.754 -14.297 -20.577  0.00  0.00    +0.085 C 
ATOM     29  C   UNL     1      32.958 -13.088 -22.509  0.00  0.00    -0.004 C 
ATOM     30  C   UNL     1      33.150 -13.167 -21.136  0.00  0.00    -0.019 C 
ENDBRANCH  20  22
ENDBRANCH  19  20
ENDBRANCH   4  19
TORSDOF 5
ENDMDL
MODEL 2
REMARK VINA RESULT:     -14.2      0.903      1.331
REMARK  Name = 11581936
REMARK  5 active torsions:
REMARK  status: ('A' for Active; 'I' for Inactive)
REMARK    1  A    between atoms: C_1  and  C_9
REMARK    2  A    between atoms: C_4  and  O_19
REMARK    3  A    between atoms: C_10  and  C_14
REMARK    4  A    between atoms: O_19  and  C_20
REMARK    5  A    between atoms: C_20  and  C_22
REMARK                            x       y       z     vdW  Elec       q    Type
REMARK                         _______ _______ _______ _____ _____    ______ ____
ROOT
ATOM      1  C   UNL     1      33.444 -22.207 -17.364  0.00  0.00    +0.019 C 
ATOM      2  C   UNL     1      32.647 -21.740 -18.409  0.00  0.00    +0.005 C 
ATOM      3  C   UNL     1      34.828 -22.046 -17.415  0.00  0.00    +0.005 C 
ATOM      4  C   UNL     1      34.616 -20.954 -19.551  0.00  0.00    +0.139 C 
ATOM      5  C   UNL     1      33.236 -21.111 -19.506  0.00  0.00    +0.037 C 
ATOM      6  C   UNL     1      35.417 -21.416 -18.512  0.00  0.00    +0.037 C 
ENDROOT
BRANCH   1   9
ATOM      7  N   UNL     1      31.320 -23.615 -14.991  0.00  0.00    -0.208 N 
ATOM      8  N   UNL     1      31.506 -22.974 -16.157  0.00  0.00    -0.178 NA
ATOM      9  C   UNL     1      32.838 -22.854 -16.234  0.00  0.00    +0.100 C 
ATOM     10  C   UNL     1      33.492 -23.419 -15.118  0.00  0.00    +0.036 C 
ATOM     11  C   UNL     1      32.478 -23.905 -14.330  0.00  0.00    +0.086 C 
ATOM     12  C   UNL     1      29.982 -23.930 -14.553  0.00  0.00    +0.140 C 
BRANCH  10  14
ATOM     13  N   UNL     1      37.588 -23.723 -14.106  0.00  0.00    -0.242 NA
ATOM     14  C   UNL     1      34.878 -23.522 -14.775  0.00  0.00    +0.006 C 
ATOM     15  C   UNL     1      35.565 -24.715 -14.981  0.00  0.00    +0.021 C 
ATOM     16  C   UNL     1      35.550 -22.429 -14.234  0.00  0.00    +0.021 C 
ATOM     17  C   UNL     1      36.905 -24.763 -14.633  0.00  0.00    +0.099 C 
ATOM     18  C   UNL     1      36.891 -22.579 -13.919  0.00  0.00    +0.099 C 
ENDBRANCH  10  14
ENDBRANCH   1   9
BRANCH   4  19
ATOM     19  O   UNL     1      35.194 -20.335 -20.629  0.00  0.00    -0.468 OA
BRANCH  19  20
ATOM     20  C   UNL     1      35.894 -19.124 -20.373  0.00  0.00    +0.264 C 
BRANCH  20  22
ATOM     21  N   UNL     1      34.951 -16.904 -20.585  0.00  0.00    -0.406 NA
ATOM     22  C   UNL     1      35.326 -18.037 -21.224  0.00  0.00    +0.152 C 
ATOM     23  C   UNL     1      34.278 -16.006 -22.718  0.00  0.00    +0.026 C 
ATOM     24  C   UNL     1      34.435 -15.901 -21.321  0.00  0.00    +0.113 C 
ATOM     25  C   UNL     1      35.212 -18.232 -22.585  0.00  0.00    +0.031 C 
ATOM     26  C   UNL     1      34.679 -17.196 -23.339  0.00  0.00    +0.005 C 
ATOM     27  C   UNL     1      33.734 -14.939 -23.453  0.00  0.00    +0.002 C 
ATOM     28  C   UNL     1      34.037 -14.718 -20.704  0.00  0.00    +0.085 C 
ATOM     29  C   UNL     1      33.344 -13.767 -22.812  0.00  0.00    -0.004 C 
ATOM     30  C   UNL     1      33.495 -13.657 -21.435  0.00  0.00    -0.019 C 
ENDBRANCH  20  22
ENDBRANCH  19  20
ENDBRANCH   4  19
TORSDOF 5
ENDMDL
MODEL 3
REMARK VINA RESULT:     -13.8      1.093      3.350
REMARK  Name = 11581936
REMARK  5 active torsions:
REMARK  status: ('A' for Active; 'I' for Inactive)
REMARK    1  A    between atoms: C_1  and  C_9
REMARK    2  A    between atoms: C_4  and  O_19
REMARK    3  A    between atoms: C_10  and  C_14
REMARK    4  A    between atoms: O_19  and  C_20
REMARK    5  A    between atoms: C_20  and  C_22
REMARK                            x       y       z     vdW  Elec       q    Type
REMARK                         _______ _______ _______ _____ _____    ______ ____
ROOT
ATOM      1  C   UNL     1      34.548 -22.276 -17.118  0.00  0.00    +0.019 C 
ATOM      2  C   UNL     1      33.360 -22.129 -17.833  0.00  0.00    +0.005 C 
ATOM      3  C   UNL     1      35.716 -21.663 -17.573  0.00  0.00    +0.005 C 
ATOM      4  C   UNL     1      34.507 -20.760 -19.449  0.00  0.00    +0.139 C 
ATOM      5  C   UNL     1      33.339 -21.368 -19.002  0.00  0.00    +0.037 C 
ATOM      6  C   UNL     1      35.695 -20.902 -18.742  0.00  0.00    +0.037 C 
ENDROOT
BRANCH   1   9
ATOM      7  N   UNL     1      35.347 -24.251 -14.365  0.00  0.00    -0.208 N 
ATOM      8  N   UNL     1      35.713 -23.613 -15.490  0.00  0.00    -0.178 NA
ATOM      9  C   UNL     1      34.570 -23.058 -15.914  0.00  0.00    +0.100 C 
ATOM     10  C   UNL     1      33.485 -23.345 -15.059  0.00  0.00    +0.036 C 
ATOM     11  C   UNL     1      34.023 -24.120 -14.062  0.00  0.00    +0.086 C 
ATOM     12  C   UNL     1      36.331 -24.983 -13.605  0.00  0.00    +0.140 C 
BRANCH  10  14
ATOM     13  N   UNL     1      29.403 -22.244 -15.217  0.00  0.00    -0.242 NA
ATOM     14  C   UNL     1      32.103 -22.973 -15.113  0.00  0.00    +0.006 C 
ATOM     15  C   UNL     1      31.492 -22.386 -14.008  0.00  0.00    +0.021 C 
ATOM     16  C   UNL     1      31.361 -23.195 -16.269  0.00  0.00    +0.021 C 
ATOM     17  C   UNL     1      30.153 -22.044 -14.111  0.00  0.00    +0.099 C 
ATOM     18  C   UNL     1      30.028 -22.817 -16.270  0.00  0.00    +0.099 C 
ENDBRANCH  10  14
ENDBRANCH   1   9
BRANCH   4  19
ATOM     19  O   UNL     1      34.486 -20.013 -20.598  0.00  0.00    -0.468 OA
BRANCH  19  20
ATOM     20  C   UNL     1      35.571 -19.116 -20.797  0.00  0.00    +0.264 C 
BRANCH  20  22
ATOM     21  N   UNL     1      34.780 -16.828 -20.729  0.00  0.00    -0.406 NA
ATOM     22  C   UNL     1      35.080 -17.896 -21.504  0.00  0.00    +0.152 C 
ATOM     23  C   UNL     1      34.174 -15.631 -22.730  0.00  0.00    +0.026 C 
ATOM     24  C   UNL     1      34.334 -15.710 -21.331  0.00  0.00    +0.113 C 
ATOM     25  C   UNL     1      34.956 -17.913 -22.878  0.00  0.00    +0.031 C 
ATOM     26  C   UNL     1      34.496 -16.759 -23.496  0.00  0.00    +0.005 C 
ATOM     27  C   UNL     1      33.705 -14.447 -23.325  0.00  0.00    +0.002 C 
ATOM     28  C   UNL     1      34.015 -14.588 -20.571  0.00  0.00    +0.085 C 
ATOM     29  C   UNL     1      33.392 -13.340 -22.541  0.00  0.00    -0.004 C 
ATOM     30  C   UNL     1      33.547 -13.411 -21.163  0.00  0.00    -0.019 C 
ENDBRANCH  20  22
ENDBRANCH  19  20
ENDBRANCH   4  19
TORSDOF 5
ENDMDL
MODEL 4
REMARK VINA RESULT:     -12.9      1.851      2.894
REMARK  Name = 11581936
REMARK  5 active torsions:
REMARK  status: ('A' for Active; 'I' for Inactive)
REMARK    1  A    between atoms: C_1  and  C_9
REMARK    2  A    between atoms: C_4  and  O_19
REMARK    3  A    between atoms: C_10  and  C_14
REMARK    4  A    between atoms: O_19  and  C_20
REMARK    5  A    between atoms: C_20  and  C_22
REMARK                            x       y       z     vdW  Elec       q    Type
REMARK                         _______ _______ _______ _____ _____    ______ ____
ROOT
ATOM      1  C   UNL     1      34.053 -22.566 -16.261  0.00  0.00    +0.019 C 
ATOM      2  C   UNL     1      33.317 -22.428 -17.437  0.00  0.00    +0.005 C 
ATOM      3  C   UNL     1      35.368 -22.105 -16.202  0.00  0.00    +0.005 C 
ATOM      4  C   UNL     1      35.207 -21.370 -18.489  0.00  0.00    +0.139 C 
ATOM      5  C   UNL     1      33.896 -21.828 -18.555  0.00  0.00    +0.037 C 
ATOM      6  C   UNL     1      35.947 -21.504 -17.320  0.00  0.00    +0.037 C 
ENDROOT
BRANCH   1   9
ATOM      7  N   UNL     1      31.968 -23.725 -13.725  0.00  0.00    -0.208 N 
ATOM      8  N   UNL     1      32.153 -23.018 -14.853  0.00  0.00    -0.178 NA
ATOM      9  C   UNL     1      33.457 -23.184 -15.109  0.00  0.00    +0.100 C 
ATOM     10  C   UNL     1      34.094 -23.995 -14.146  0.00  0.00    +0.036 C 
ATOM     11  C   UNL     1      33.099 -24.330 -13.261  0.00  0.00    +0.086 C 
ATOM     12  C   UNL     1      30.656 -23.786 -13.126  0.00  0.00    +0.140 C 
BRANCH  10  14
ATOM     13  N   UNL     1      38.103 -25.290 -13.757  0.00  0.00    -0.242 NA
ATOM     14  C   UNL     1      35.450 -24.434 -14.014  0.00  0.00    +0.006 C 
ATOM     15  C   UNL     1      35.917 -25.508 -14.766  0.00  0.00    +0.021 C 
ATOM     16  C   UNL     1      36.314 -23.789 -13.133  0.00  0.00    +0.021 C 
ATOM     17  C   UNL     1      37.237 -25.893 -14.602  0.00  0.00    +0.099 C 
ATOM     18  C   UNL     1      37.617 -24.251 -13.042  0.00  0.00    +0.099 C 
ENDBRANCH  10  14
ENDBRANCH   1   9
BRANCH   4  19
ATOM     19  O   UNL     1      35.776 -20.780 -19.588  0.00  0.00    -0.468 OA
BRANCH  19  20
ATOM     20  C   UNL     1      35.031 -20.826 -20.798  0.00  0.00    +0.264 C 
BRANCH  20  22
ATOM     21  N   UNL     1      34.264 -19.329 -22.539  0.00  0.00    -0.406 NA
ATOM     22  C   UNL     1      34.902 -19.446 -21.351  0.00  0.00    +0.152 C 
ATOM     23  C   UNL     1      34.631 -16.950 -22.425  0.00  0.00    +0.026 C 
ATOM     24  C   UNL     1      34.128 -18.098 -23.070  0.00  0.00    +0.113 C 
ATOM     25  C   UNL     1      35.426 -18.381 -20.647  0.00  0.00    +0.031 C 
ATOM     26  C   UNL     1      35.285 -17.115 -21.197  0.00  0.00    +0.005 C 
ATOM     27  C   UNL     1      34.473 -15.682 -23.009  0.00  0.00    +0.002 C 
ATOM     28  C   UNL     1      33.477 -17.933 -24.289  0.00  0.00    +0.085 C 
ATOM     29  C   UNL     1      33.818 -15.544 -24.230  0.00  0.00    -0.004 C 
ATOM     30  C   UNL     1      33.320 -16.672 -24.871  0.00  0.00    -0.019 C 
ENDBRANCH  20  22
ENDBRANCH  19  20
ENDBRANCH   4  19
TORSDOF 5
ENDMDL
MODEL 5
REMARK VINA RESULT:     -12.5      1.971      4.159
REMARK  Name = 11581936
REMARK  5 active torsions:
REMARK  status: ('A' for Active; 'I' for Inactive)
REMARK    1  A    between atoms: C_1  and  C_9
REMARK    2  A    between atoms: C_4  and  O_19
REMARK    3  A    between atoms: C_10  and  C_14
REMARK    4  A    between atoms: O_19  and  C_20
REMARK    5  A    between atoms: C_20  and  C_22
REMARK                            x       y       z     vdW  Elec       q    Type
REMARK                         _______ _______ _______ _____ _____    ______ ____
ROOT
ATOM      1  C   UNL     1      34.433 -22.637 -15.810  0.00  0.00    +0.019 C 
ATOM      2  C   UNL     1      35.535 -21.969 -16.344  0.00  0.00    +0.005 C 
ATOM      3  C   UNL     1      33.283 -22.810 -16.579  0.00  0.00    +0.005 C 
ATOM      4  C   UNL     1      34.336 -21.652 -18.408  0.00  0.00    +0.139 C 
ATOM      5  C   UNL     1      35.486 -21.475 -17.647  0.00  0.00    +0.037 C 
ATOM      6  C   UNL     1      33.234 -22.317 -17.883  0.00  0.00    +0.037 C 
ENDROOT
BRANCH   1   9
ATOM      7  N   UNL     1      35.313 -23.783 -12.642  0.00  0.00    -0.208 N 
ATOM      8  N   UNL     1      35.660 -23.296 -13.846  0.00  0.00    -0.178 NA
ATOM      9  C   UNL     1      34.483 -23.146 -14.468  0.00  0.00    +0.100 C 
ATOM     10  C   UNL     1      33.395 -23.536 -13.659  0.00  0.00    +0.036 C 
ATOM     11  C   UNL     1      33.968 -23.944 -12.480  0.00  0.00    +0.086 C 
ATOM     12  C   UNL     1      36.335 -24.080 -11.669  0.00  0.00    +0.140 C 
BRANCH  10  14
ATOM     13  N   UNL     1      29.224 -23.579 -14.364  0.00  0.00    -0.242 NA
ATOM     14  C   UNL     1      31.984 -23.550 -13.899  0.00  0.00    +0.006 C 
ATOM     15  C   UNL     1      31.300 -24.759 -13.991  0.00  0.00    +0.021 C 
ATOM     16  C   UNL     1      31.283 -22.355 -14.039  0.00  0.00    +0.021 C 
ATOM     17  C   UNL     1      29.935 -24.720 -14.223  0.00  0.00    +0.099 C 
ATOM     18  C   UNL     1      29.919 -22.423 -14.269  0.00  0.00    +0.099 C 
ENDBRANCH  10  14
ENDBRANCH   1   9
BRANCH   4  19
ATOM     19  O   UNL     1      34.289 -21.166 -19.689  0.00  0.00    -0.468 OA
BRANCH  19  20
ATOM     20  C   UNL     1      35.501 -20.650 -20.224  0.00  0.00    +0.264 C 
BRANCH  20  22
ATOM     21  N   UNL     1      34.454 -19.595 -22.135  0.00  0.00    -0.406 NA
ATOM     22  C   UNL     1      35.205 -19.424 -21.023  0.00  0.00    +0.152 C 
ATOM     23  C   UNL     1      34.626 -17.225 -22.534  0.00  0.00    +0.026 C 
ATOM     24  C   UNL     1      34.166 -18.512 -22.882  0.00  0.00    +0.113 C 
ATOM     25  C   UNL     1      35.699 -18.206 -20.603  0.00  0.00    +0.031 C 
ATOM     26  C   UNL     1      35.402 -17.092 -21.375  0.00  0.00    +0.005 C 
ATOM     27  C   UNL     1      34.308 -16.117 -23.338  0.00  0.00    +0.002 C 
ATOM     28  C   UNL     1      33.396 -18.644 -24.034  0.00  0.00    +0.085 C 
ATOM     29  C   UNL     1      33.536 -16.276 -24.485  0.00  0.00    -0.004 C 
ATOM     30  C   UNL     1      33.080 -17.542 -24.834  0.00  0.00    -0.019 C 
ENDBRANCH  20  22
ENDBRANCH  19  20
ENDBRANCH   4  19
TORSDOF 5
ENDMDL
MODEL 6
REMARK VINA RESULT:     -12.3      7.755     14.887
REMARK  Name = 11581936
REMARK  5 active torsions:
REMARK  status: ('A' for Active; 'I' for Inactive)
REMARK    1  A    between atoms: C_1  and  C_9
REMARK    2  A    between atoms: C_4  and  O_19
REMARK    3  A    between atoms: C_10  and  C_14
REMARK    4  A    between atoms: O_19  and  C_20
REMARK    5  A    between atoms: C_20  and  C_22
REMARK                            x       y       z     vdW  Elec       q    Type
REMARK                         _______ _______ _______ _____ _____    ______ ____
ROOT
ATOM      1  C   UNL     1      31.137  -6.336 -21.949  0.00  0.00    +0.019 C 
ATOM      2  C   UNL     1      31.672  -6.640 -20.697  0.00  0.00    +0.005 C 
ATOM      3  C   UNL     1      30.736  -7.362 -22.805  0.00  0.00    +0.005 C 
ATOM      4  C   UNL     1      31.404  -8.988 -21.160  0.00  0.00    +0.139 C 
ATOM      5  C   UNL     1      31.806  -7.972 -20.302  0.00  0.00    +0.037 C 
ATOM      6  C   UNL     1      30.869  -8.693 -22.409  0.00  0.00    +0.037 C 
ENDROOT
BRANCH   1   9
ATOM      7  N   UNL     1      30.360  -2.961 -22.310  0.00  0.00    -0.208 N 
ATOM      8  N   UNL     1      30.254  -4.118 -21.634  0.00  0.00    -0.178 NA
ATOM      9  C   UNL     1      30.998  -4.966 -22.356  0.00  0.00    +0.100 C 
ATOM     10  C   UNL     1      31.574  -4.346 -23.485  0.00  0.00    +0.036 C 
ATOM     11  C   UNL     1      31.140  -3.044 -23.425  0.00  0.00    +0.086 C 
ATOM     12  C   UNL     1      29.677  -1.786 -21.827  0.00  0.00    +0.140 C 
BRANCH  10  14
ATOM     13  N   UNL     1      34.087  -5.829 -26.548  0.00  0.00    -0.242 NA
ATOM     14  C   UNL     1      32.424  -4.848 -24.521  0.00  0.00    +0.006 C 
ATOM     15  C   UNL     1      31.886  -5.234 -25.746  0.00  0.00    +0.021 C 
ATOM     16  C   UNL     1      33.797  -4.954 -24.313  0.00  0.00    +0.021 C 
ATOM     17  C   UNL     1      32.751  -5.713 -26.716  0.00  0.00    +0.099 C 
ATOM     18  C   UNL     1      34.577  -5.446 -25.347  0.00  0.00    +0.099 C 
ENDBRANCH  10  14
ENDBRANCH   1   9
BRANCH   4  19
ATOM     19  O   UNL     1      31.536 -10.296 -20.771  0.00  0.00    -0.468 OA
BRANCH  19  20
ATOM     20  C   UNL     1      31.003 -11.281 -21.648  0.00  0.00    +0.264 C 
BRANCH  20  22
ATOM     21  N   UNL     1      32.177 -12.954 -22.946  0.00  0.00    -0.406 NA
ATOM     22  C   UNL     1      31.942 -12.440 -21.717  0.00  0.00    +0.152 C 
ATOM     23  C   UNL     1      33.647 -14.563 -21.918  0.00  0.00    +0.026 C 
ATOM     24  C   UNL     1      33.019 -14.001 -23.048  0.00  0.00    +0.113 C 
ATOM     25  C   UNL     1      32.510 -12.923 -20.555  0.00  0.00    +0.031 C 
ATOM     26  C   UNL     1      33.376 -14.001 -20.663  0.00  0.00    +0.005 C 
ATOM     27  C   UNL     1      34.519 -15.656 -22.061  0.00  0.00    +0.002 C 
ATOM     28  C   UNL     1      33.289 -14.559 -24.294  0.00  0.00    +0.085 C 
ATOM     29  C   UNL     1      34.772 -16.196 -23.319  0.00  0.00    -0.004 C 
ATOM     30  C   UNL     1      34.156 -15.647 -24.437  0.00  0.00    -0.019 C 
ENDBRANCH  20  22
ENDBRANCH  19  20
ENDBRANCH   4  19
TORSDOF 5
ENDMDL
MODEL 7
REMARK VINA RESULT:     -12.1      6.484     14.128
REMARK  Name = 11581936
REMARK  5 active torsions:
REMARK  status: ('A' for Active; 'I' for Inactive)
REMARK    1  A    between atoms: C_1  and  C_9
REMARK    2  A    between atoms: C_4  and  O_19
REMARK    3  A    between atoms: C_10  and  C_14
REMARK    4  A    between atoms: O_19  and  C_20
REMARK    5  A    between atoms: C_20  and  C_22
REMARK                            x       y       z     vdW  Elec       q    Type
REMARK                         _______ _______ _______ _____ _____    ______ ____
ROOT
ATOM      1  C   UNL     1      32.276  -7.957 -22.961  0.00  0.00    +0.019 C 
ATOM      2  C   UNL     1      33.578  -8.205 -23.394  0.00  0.00    +0.005 C 
ATOM      3  C   UNL     1      31.406  -9.020 -22.719  0.00  0.00    +0.005 C 
ATOM      4  C   UNL     1      33.139 -10.572 -23.342  0.00  0.00    +0.139 C 
ATOM      5  C   UNL     1      34.010  -9.517 -23.585  0.00  0.00    +0.037 C 
ATOM      6  C   UNL     1      31.839 -10.333 -22.909  0.00  0.00    +0.037 C 
ENDROOT
BRANCH   1   9
ATOM      7  N   UNL     1      30.861  -4.974 -21.856  0.00  0.00    -0.208 N 
ATOM      8  N   UNL     1      31.076  -6.291 -21.703  0.00  0.00    -0.178 NA
ATOM      9  C   UNL     1      31.830  -6.606 -22.764  0.00  0.00    +0.100 C 
ATOM     10  C   UNL     1      32.091  -5.489 -23.586  0.00  0.00    +0.036 C 
ATOM     11  C   UNL     1      31.449  -4.445 -22.967  0.00  0.00    +0.086 C 
ATOM     12  C   UNL     1      30.068  -4.260 -20.884  0.00  0.00    +0.140 C 
BRANCH  10  14
ATOM     13  N   UNL     1      34.289  -5.079 -27.177  0.00  0.00    -0.242 NA
ATOM     14  C   UNL     1      32.836  -5.351 -24.801  0.00  0.00    +0.006 C 
ATOM     15  C   UNL     1      32.293  -5.782 -26.008  0.00  0.00    +0.021 C 
ATOM     16  C   UNL     1      34.106  -4.783 -24.785  0.00  0.00    +0.021 C 
ATOM     17  C   UNL     1      33.053  -5.625 -27.156  0.00  0.00    +0.099 C 
ATOM     18  C   UNL     1      34.785  -4.671 -25.987  0.00  0.00    +0.099 C 
ENDBRANCH  10  14
ENDBRANCH   1   9
BRANCH   4  19
ATOM     19  O   UNL     1      33.564 -11.862 -23.529  0.00  0.00    -0.468 OA
BRANCH  19  20
ATOM     20  C   UNL     1      33.650 -12.682 -22.371  0.00  0.00    +0.264 C 
BRANCH  20  22
ATOM     21  N   UNL     1      34.292 -14.963 -21.875  0.00  0.00    -0.406 NA
ATOM     22  C   UNL     1      33.767 -14.111 -22.785  0.00  0.00    +0.152 C 
ATOM     23  C   UNL     1      34.012 -16.741 -23.477  0.00  0.00    +0.026 C 
ATOM     24  C   UNL     1      34.413 -16.261 -22.213  0.00  0.00    +0.113 C 
ATOM     25  C   UNL     1      33.347 -14.488 -24.045  0.00  0.00    +0.031 C 
ATOM     26  C   UNL     1      33.473 -15.826 -24.390  0.00  0.00    +0.005 C 
ATOM     27  C   UNL     1      34.154 -18.102 -23.796  0.00  0.00    +0.002 C 
ATOM     28  C   UNL     1      34.948 -17.171 -21.305  0.00  0.00    +0.085 C 
ATOM     29  C   UNL     1      34.692 -18.992 -22.870  0.00  0.00    -0.004 C 
ATOM     30  C   UNL     1      35.089 -18.525 -21.623  0.00  0.00    -0.019 C 
ENDBRANCH  20  22
ENDBRANCH  19  20
ENDBRANCH   4  19
TORSDOF 5
ENDMDL
MODEL 8
REMARK VINA RESULT:     -11.8      2.417      9.864
REMARK  Name = 11581936
REMARK  5 active torsions:
REMARK  status: ('A' for Active; 'I' for Inactive)
REMARK    1  A    between atoms: C_1  and  C_9
REMARK    2  A    between atoms: C_4  and  O_19
REMARK    3  A    between atoms: C_10  and  C_14
REMARK    4  A    between atoms: O_19  and  C_20
REMARK    5  A    between atoms: C_20  and  C_22
REMARK                            x       y       z     vdW  Elec       q    Type
REMARK                         _______ _______ _______ _____ _____    ______ ____
ROOT
ATOM      1  C   UNL     1      33.720 -15.954 -23.851  0.00  0.00    +0.019 C 
ATOM      2  C   UNL     1      34.584 -15.949 -22.756  0.00  0.00    +0.005 C 
ATOM      3  C   UNL     1      33.227 -17.162 -24.345  0.00  0.00    +0.005 C 
ATOM      4  C   UNL     1      34.460 -18.351 -22.653  0.00  0.00    +0.139 C 
ATOM      5  C   UNL     1      34.955 -17.152 -22.156  0.00  0.00    +0.037 C 
ATOM      6  C   UNL     1      33.598 -18.365 -23.744  0.00  0.00    +0.037 C 
ENDROOT
BRANCH   1   9
ATOM      7  N   UNL     1      32.997 -13.311 -25.999  0.00  0.00    -0.208 N 
ATOM      8  N   UNL     1      33.431 -14.567 -25.797  0.00  0.00    -0.178 NA
ATOM      9  C   UNL     1      33.338 -14.716 -24.470  0.00  0.00    +0.100 C 
ATOM     10  C   UNL     1      32.845 -13.557 -23.833  0.00  0.00    +0.036 C 
ATOM     11  C   UNL     1      32.633 -12.663 -24.855  0.00  0.00    +0.086 C 
ATOM     12  C   UNL     1      32.952 -12.775 -27.338  0.00  0.00    +0.140 C 
BRANCH  10  14
ATOM     13  N   UNL     1      32.074 -12.681 -19.767  0.00  0.00    -0.242 NA
ATOM     14  C   UNL     1      32.585 -13.260 -22.457  0.00  0.00    +0.006 C 
ATOM     15  C   UNL     1      31.759 -12.193 -22.113  0.00  0.00    +0.021 C 
ATOM     16  C   UNL     1      33.154 -14.037 -21.452  0.00  0.00    +0.021 C 
ATOM     17  C   UNL     1      31.538 -11.948 -20.768  0.00  0.00    +0.099 C 
ATOM     18  C   UNL     1      32.871 -13.710 -20.136  0.00  0.00    +0.099 C 
ENDBRANCH  10  14
ENDBRANCH   1   9
BRANCH   4  19
ATOM     19  O   UNL     1      34.825 -19.534 -22.063  0.00  0.00    -0.468 OA
BRANCH  19  20
ATOM     20  C   UNL     1      35.654 -19.445 -20.911  0.00  0.00    +0.264 C 
BRANCH  20  22
ATOM     21  N   UNL     1      35.928 -20.632 -18.819  0.00  0.00    -0.406 NA
ATOM     22  C   UNL     1      35.089 -20.302 -19.828  0.00  0.00    +0.152 C 
ATOM     23  C   UNL     1      34.123 -21.871 -17.813  0.00  0.00    +0.026 C 
ATOM     24  C   UNL     1      35.454 -21.405 -17.824  0.00  0.00    +0.113 C 
ATOM     25  C   UNL     1      33.773 -20.710 -19.904  0.00  0.00    +0.031 C 
ATOM     26  C   UNL     1      33.287 -21.507 -18.876  0.00  0.00    +0.005 C 
ATOM     27  C   UNL     1      33.662 -22.677 -16.758  0.00  0.00    +0.002 C 
ATOM     28  C   UNL     1      36.284 -21.767 -16.766  0.00  0.00    +0.085 C 
ATOM     29  C   UNL     1      34.513 -23.025 -15.712  0.00  0.00    -0.004 C 
ATOM     30  C   UNL     1      35.826 -22.570 -15.717  0.00  0.00    -0.019 C 
ENDBRANCH  20  22
ENDBRANCH  19  20
ENDBRANCH   4  19
TORSDOF 5
ENDMDL
