MODEL 1
REMARK VINA RESULT:     -11.1      0.000      0.000
REMARK  Name = 68548
REMARK  3 active torsions:
REMARK  status: ('A' for Active; 'I' for Inactive)
REMARK    1  A    between atoms: C_5  and  C_15
REMARK    2  A    between atoms: C_10  and  S_21
REMARK    3  A    between atoms: S_21  and  N_24
REMARK                            x       y       z     vdW  Elec       q    Type
REMARK                         _______ _______ _______ _____ _____    ______ ____
ROOT
ATOM      1 CL   UNL     1      29.005 -22.923 -15.793  0.00  0.00    -0.081 Cl
ATOM      2  O   UNL     1      35.701 -22.580 -15.959  0.00  0.00    -0.270 OA
ATOM      3  N   UNL     1      32.912 -21.341 -18.662  0.00  0.00    -0.315 N 
ATOM      4  N   UNL     1      35.204 -21.694 -18.021  0.00  0.00    -0.283 N 
ATOM      5  C   UNL     1      34.270 -21.553 -19.131  0.00  0.00    +0.170 C 
ATOM      6  C   UNL     1      32.499 -21.998 -17.510  0.00  0.00    +0.051 C 
ATOM      7  C   UNL     1      33.426 -22.498 -16.583  0.00  0.00    +0.068 C 
ATOM      8  C   UNL     1      34.874 -22.281 -16.814  0.00  0.00    +0.248 C 
ATOM      9  C   UNL     1      33.000 -23.148 -15.418  0.00  0.00    +0.027 C 
ATOM     10  C   UNL     1      31.637 -23.292 -15.166  0.00  0.00    +0.132 C 
ATOM     11  C   UNL     1      31.133 -22.133 -17.225  0.00  0.00    +0.027 C 
ATOM     12  C   UNL     1      30.705 -22.782 -16.065  0.00  0.00    +0.077 C 
ATOM     13  H   UNL     1      32.298 -20.746 -19.149  0.00  0.00    +0.149 HD
ATOM     14  H   UNL     1      36.118 -21.352 -18.137  0.00  0.00    +0.152 HD
ENDROOT
BRANCH   5  15
ATOM     15  C   UNL     1      34.683 -20.434 -20.061  0.00  0.00    +0.014 C 
ATOM     16  C   UNL     1      33.764 -19.902 -20.965  0.00  0.00    -0.001 C 
ATOM     17  C   UNL     1      35.985 -19.932 -20.015  0.00  0.00    -0.001 C 
ATOM     18  C   UNL     1      34.145 -18.870 -21.823  0.00  0.00    -0.000 C 
ATOM     19  C   UNL     1      36.365 -18.901 -20.873  0.00  0.00    -0.000 C 
ATOM     20  C   UNL     1      35.446 -18.369 -21.776  0.00  0.00    -0.000 C 
ENDBRANCH   5  15
BRANCH  10  21
ATOM     21  S   UNL     1      31.156 -24.113 -13.694  0.00  0.00    +0.058 S 
ATOM     22  O   UNL     1      30.481 -23.111 -12.874  0.00  0.00    -0.153 OA
ATOM     23  O   UNL     1      30.444 -25.308 -14.135  0.00  0.00    -0.153 OA
BRANCH  21  24
ATOM     24  N   UNL     1      32.569 -24.611 -12.850  0.00  0.00    -0.203 NA
ATOM     25  H   UNL     1      33.187 -25.114 -13.487  0.00  0.00    +0.144 HD
ATOM     26  H   UNL     1      32.305 -25.224 -12.079  0.00  0.00    +0.144 HD
ENDBRANCH  21  24
ENDBRANCH  10  21
TORSDOF 3
ENDMDL
MODEL 2
REMARK VINA RESULT:     -11.1      1.262      1.451
REMARK  Name = 68548
REMARK  3 active torsions:
REMARK  status: ('A' for Active; 'I' for Inactive)
REMARK    1  A    between atoms: C_5  and  C_15
REMARK    2  A    between atoms: C_10  and  S_21
REMARK    3  A    between atoms: S_21  and  N_24
REMARK                            x       y       z     vdW  Elec       q    Type
REMARK                         _______ _______ _______ _____ _____    ______ ____
ROOT
ATOM      1 CL   UNL     1      30.212 -23.254 -15.784  0.00  0.00    -0.081 Cl
ATOM      2  O   UNL     1      36.706 -21.693 -16.386  0.00  0.00    -0.270 OA
ATOM      3  N   UNL     1      33.595 -21.141 -18.960  0.00  0.00    -0.315 N 
ATOM      4  N   UNL     1      35.943 -21.030 -18.450  0.00  0.00    -0.283 N 
ATOM      5  C   UNL     1      34.941 -21.125 -19.504  0.00  0.00    +0.170 C 
ATOM      6  C   UNL     1      33.374 -21.797 -17.757  0.00  0.00    +0.051 C 
ATOM      7  C   UNL     1      34.427 -22.067 -16.869  0.00  0.00    +0.068 C 
ATOM      8  C   UNL     1      35.794 -21.600 -17.200  0.00  0.00    +0.248 C 
ATOM      9  C   UNL     1      34.193 -22.718 -15.651  0.00  0.00    +0.027 C 
ATOM     10  C   UNL     1      32.896 -23.097 -15.308  0.00  0.00    +0.132 C 
ATOM     11  C   UNL     1      32.075 -22.166 -17.381  0.00  0.00    +0.027 C 
ATOM     12  C   UNL     1      31.838 -22.817 -16.169  0.00  0.00    +0.077 C 
ATOM     13  H   UNL     1      32.854 -20.697 -19.434  0.00  0.00    +0.149 HD
ATOM     14  H   UNL     1      36.770 -20.532 -18.638  0.00  0.00    +0.152 HD
ENDROOT
BRANCH   5  15
ATOM     15  C   UNL     1      35.087 -20.002 -20.507  0.00  0.00    +0.014 C 
ATOM     16  C   UNL     1      34.057 -19.731 -21.407  0.00  0.00    -0.001 C 
ATOM     17  C   UNL     1      36.253 -19.236 -20.532  0.00  0.00    -0.001 C 
ATOM     18  C   UNL     1      34.191 -18.696 -22.333  0.00  0.00    -0.000 C 
ATOM     19  C   UNL     1      36.388 -18.201 -21.458  0.00  0.00    -0.000 C 
ATOM     20  C   UNL     1      35.357 -17.931 -22.358  0.00  0.00    -0.000 C 
ENDBRANCH   5  15
BRANCH  10  21
ATOM     21  S   UNL     1      32.657 -23.909 -13.774  0.00  0.00    +0.058 S 
ATOM     22  O   UNL     1      31.797 -25.056 -14.052  0.00  0.00    -0.153 OA
ATOM     23  O   UNL     1      33.997 -24.106 -13.230  0.00  0.00    -0.153 OA
BRANCH  21  24
ATOM     24  N   UNL     1      31.798 -22.858 -12.718  0.00  0.00    -0.203 NA
ATOM     25  H   UNL     1      31.360 -23.405 -11.976  0.00  0.00    +0.144 HD
ATOM     26  H   UNL     1      31.079 -22.362 -13.243  0.00  0.00    +0.144 HD
ENDBRANCH  21  24
ENDBRANCH  10  21
TORSDOF 3
ENDMDL
MODEL 3
REMARK VINA RESULT:     -11.0      7.601     10.137
REMARK  Name = 68548
REMARK  3 active torsions:
REMARK  status: ('A' for Active; 'I' for Inactive)
REMARK    1  A    between atoms: C_5  and  C_15
REMARK    2  A    between atoms: C_10  and  S_21
REMARK    3  A    between atoms: S_21  and  N_24
REMARK                            x       y       z     vdW  Elec       q    Type
REMARK                         _______ _______ _______ _____ _____    ______ ____
ROOT
ATOM      1 CL   UNL     1      33.003 -11.770 -20.533  0.00  0.00    -0.081 Cl
ATOM      2  O   UNL     1      34.038 -16.853 -24.783  0.00  0.00    -0.270 OA
ATOM      3  N   UNL     1      34.446 -16.657 -20.732  0.00  0.00    -0.315 N 
ATOM      4  N   UNL     1      34.678 -17.845 -22.810  0.00  0.00    -0.283 N 
ATOM      5  C   UNL     1      35.150 -17.712 -21.437  0.00  0.00    +0.170 C 
ATOM      6  C   UNL     1      34.085 -15.515 -21.435  0.00  0.00    +0.051 C 
ATOM      7  C   UNL     1      33.995 -15.520 -22.836  0.00  0.00    +0.068 C 
ATOM      8  C   UNL     1      34.245 -16.780 -23.576  0.00  0.00    +0.248 C 
ATOM      9  C   UNL     1      33.617 -14.368 -23.537  0.00  0.00    +0.027 C 
ATOM     10  C   UNL     1      33.316 -13.201 -22.837  0.00  0.00    +0.132 C 
ATOM     11  C   UNL     1      33.754 -14.338 -20.751  0.00  0.00    +0.027 C 
ATOM     12  C   UNL     1      33.379 -13.186 -21.446  0.00  0.00    +0.077 C 
ATOM     13  H   UNL     1      34.230 -16.747 -19.775  0.00  0.00    +0.149 HD
ATOM     14  H   UNL     1      34.667 -18.742 -23.213  0.00  0.00    +0.152 HD
ENDROOT
BRANCH   5  15
ATOM     15  C   UNL     1      35.028 -19.017 -20.683  0.00  0.00    +0.014 C 
ATOM     16  C   UNL     1      33.783 -19.634 -20.551  0.00  0.00    -0.001 C 
ATOM     17  C   UNL     1      36.160 -19.606 -20.118  0.00  0.00    -0.001 C 
ATOM     18  C   UNL     1      33.670 -20.838 -19.856  0.00  0.00    -0.000 C 
ATOM     19  C   UNL     1      36.047 -20.810 -19.423  0.00  0.00    -0.000 C 
ATOM     20  C   UNL     1      34.803 -21.426 -19.292  0.00  0.00    -0.000 C 
ENDBRANCH   5  15
BRANCH  10  21
ATOM     21  S   UNL     1      32.849 -11.787 -23.761  0.00  0.00    +0.058 S 
ATOM     22  O   UNL     1      32.790 -12.215 -25.156  0.00  0.00    -0.153 OA
ATOM     23  O   UNL     1      31.657 -11.270 -23.097  0.00  0.00    -0.153 OA
BRANCH  21  24
ATOM     24  N   UNL     1      34.091 -10.604 -23.633  0.00  0.00    -0.203 NA
ATOM     25  H   UNL     1      34.748 -10.879 -22.902  0.00  0.00    +0.144 HD
ATOM     26  H   UNL     1      33.679  -9.702 -23.397  0.00  0.00    +0.144 HD
ENDBRANCH  21  24
ENDBRANCH  10  21
TORSDOF 3
ENDMDL
MODEL 4
REMARK VINA RESULT:     -10.5      2.731      3.247
REMARK  Name = 68548
REMARK  3 active torsions:
REMARK  status: ('A' for Active; 'I' for Inactive)
REMARK    1  A    between atoms: C_5  and  C_15
REMARK    2  A    between atoms: C_10  and  S_21
REMARK    3  A    between atoms: S_21  and  N_24
REMARK                            x       y       z     vdW  Elec       q    Type
REMARK                         _______ _______ _______ _____ _____    ______ ____
ROOT
ATOM      1 CL   UNL     1      32.606 -24.407 -13.175  0.00  0.00    -0.081 Cl
ATOM      2  O   UNL     1      37.787 -21.085 -15.840  0.00  0.00    -0.270 OA
ATOM      3  N   UNL     1      34.146 -22.025 -17.413  0.00  0.00    -0.315 N 
ATOM      4  N   UNL     1      36.356 -21.104 -17.639  0.00  0.00    -0.283 N 
ATOM      5  C   UNL     1      35.223 -21.706 -18.331  0.00  0.00    +0.170 C 
ATOM      6  C   UNL     1      34.471 -22.469 -16.138  0.00  0.00    +0.051 C 
ATOM      7  C   UNL     1      35.736 -22.225 -15.582  0.00  0.00    +0.068 C 
ATOM      8  C   UNL     1      36.728 -21.436 -16.351  0.00  0.00    +0.248 C 
ATOM      9  C   UNL     1      36.052 -22.664 -14.289  0.00  0.00    +0.027 C 
ATOM     10  C   UNL     1      35.096 -23.347 -13.540  0.00  0.00    +0.132 C 
ATOM     11  C   UNL     1      33.518 -23.136 -15.357  0.00  0.00    +0.027 C 
ATOM     12  C   UNL     1      33.829 -23.578 -14.069  0.00  0.00    +0.077 C 
ATOM     13  H   UNL     1      33.205 -21.931 -17.687  0.00  0.00    +0.149 HD
ATOM     14  H   UNL     1      36.884 -20.424 -18.115  0.00  0.00    +0.152 HD
ENDROOT
BRANCH   5  15
ATOM     15  C   UNL     1      34.717 -20.811 -19.441  0.00  0.00    +0.014 C 
ATOM     16  C   UNL     1      35.616 -20.060 -20.198  0.00  0.00    -0.001 C 
ATOM     17  C   UNL     1      33.349 -20.736 -19.709  0.00  0.00    -0.001 C 
ATOM     18  C   UNL     1      35.149 -19.235 -21.221  0.00  0.00    -0.000 C 
ATOM     19  C   UNL     1      32.882 -19.911 -20.732  0.00  0.00    -0.000 C 
ATOM     20  C   UNL     1      33.782 -19.161 -21.488  0.00  0.00    -0.000 C 
ENDBRANCH   5  15
BRANCH  10  21
ATOM     21  S   UNL     1      35.541 -23.876 -11.929  0.00  0.00    +0.058 S 
ATOM     22  O   UNL     1      34.448 -23.468 -11.052  0.00  0.00    -0.153 OA
ATOM     23  O   UNL     1      35.887 -25.287 -12.070  0.00  0.00    -0.153 OA
BRANCH  21  24
ATOM     24  N   UNL     1      36.950 -23.024 -11.434  0.00  0.00    -0.203 NA
ATOM     25  H   UNL     1      37.203 -22.341 -12.148  0.00  0.00    +0.144 HD
ATOM     26  H   UNL     1      37.719 -23.683 -11.308  0.00  0.00    +0.144 HD
ENDBRANCH  21  24
ENDBRANCH  10  21
TORSDOF 3
ENDMDL
MODEL 5
REMARK VINA RESULT:     -10.3      9.164     11.474
REMARK  Name = 68548
REMARK  3 active torsions:
REMARK  status: ('A' for Active; 'I' for Inactive)
REMARK    1  A    between atoms: C_5  and  C_15
REMARK    2  A    between atoms: C_10  and  S_21
REMARK    3  A    between atoms: S_21  and  N_24
REMARK                            x       y       z     vdW  Elec       q    Type
REMARK                         _______ _______ _______ _____ _____    ______ ____
ROOT
ATOM      1 CL   UNL     1      31.506 -10.448 -19.365  0.00  0.00    -0.081 Cl
ATOM      2  O   UNL     1      32.920 -13.220 -25.306  0.00  0.00    -0.270 OA
ATOM      3  N   UNL     1      33.573 -14.582 -21.520  0.00  0.00    -0.315 N 
ATOM      4  N   UNL     1      33.820 -14.802 -23.902  0.00  0.00    -0.283 N 
ATOM      5  C   UNL     1      34.362 -15.154 -22.595  0.00  0.00    +0.170 C 
ATOM      6  C   UNL     1      33.015 -13.324 -21.704  0.00  0.00    +0.051 C 
ATOM      7  C   UNL     1      32.832 -12.787 -22.987  0.00  0.00    +0.068 C 
ATOM      8  C   UNL     1      33.197 -13.599 -24.173  0.00  0.00    +0.248 C 
ATOM      9  C   UNL     1      32.256 -11.523 -23.164  0.00  0.00    +0.027 C 
ATOM     10  C   UNL     1      31.850 -10.787 -22.053  0.00  0.00    +0.132 C 
ATOM     11  C   UNL     1      32.578 -12.576 -20.601  0.00  0.00    +0.027 C 
ATOM     12  C   UNL     1      32.005 -11.314 -20.774  0.00  0.00    +0.077 C 
ATOM     13  H   UNL     1      33.436 -15.074 -20.678  0.00  0.00    +0.149 HD
ATOM     14  H   UNL     1      33.902 -15.458 -24.631  0.00  0.00    +0.152 HD
ENDROOT
BRANCH   5  15
ATOM     15  C   UNL     1      34.467 -16.653 -22.427  0.00  0.00    +0.014 C 
ATOM     16  C   UNL     1      34.043 -17.502 -23.449  0.00  0.00    -0.001 C 
ATOM     17  C   UNL     1      34.989 -17.189 -21.248  0.00  0.00    -0.001 C 
ATOM     18  C   UNL     1      34.139 -18.886 -23.294  0.00  0.00    -0.000 C 
ATOM     19  C   UNL     1      35.085 -18.572 -21.093  0.00  0.00    -0.000 C 
ATOM     20  C   UNL     1      34.662 -19.420 -22.116  0.00  0.00    -0.000 C 
ENDBRANCH   5  15
BRANCH  10  21
ATOM     21  S   UNL     1      31.137  -9.210 -22.328  0.00  0.00    +0.058 S 
ATOM     22  O   UNL     1      31.547  -8.809 -23.671  0.00  0.00    -0.153 OA
ATOM     23  O   UNL     1      29.722  -9.366 -22.004  0.00  0.00    -0.153 OA
BRANCH  21  24
ATOM     24  N   UNL     1      31.821  -8.089 -21.218  0.00  0.00    -0.203 NA
ATOM     25  H   UNL     1      32.572  -8.542 -20.697  0.00  0.00    +0.144 HD
ATOM     26  H   UNL     1      31.102  -7.771 -20.570  0.00  0.00    +0.144 HD
ENDBRANCH  21  24
ENDBRANCH  10  21
TORSDOF 3
ENDMDL
MODEL 6
REMARK VINA RESULT:      -9.9     12.533     14.821
REMARK  Name = 68548
REMARK  3 active torsions:
REMARK  status: ('A' for Active; 'I' for Inactive)
REMARK    1  A    between atoms: C_5  and  C_15
REMARK    2  A    between atoms: C_10  and  S_21
REMARK    3  A    between atoms: S_21  and  N_24
REMARK                            x       y       z     vdW  Elec       q    Type
REMARK                         _______ _______ _______ _____ _____    ______ ____
ROOT
ATOM      1 CL   UNL     1      32.323  -5.737 -24.663  0.00  0.00    -0.081 Cl
ATOM      2  O   UNL     1      30.785  -9.355 -19.230  0.00  0.00    -0.270 OA
ATOM      3  N   UNL     1      32.383 -10.486 -22.805  0.00  0.00    -0.315 N 
ATOM      4  N   UNL     1      31.499 -11.028 -20.636  0.00  0.00    -0.283 N 
ATOM      5  C   UNL     1      31.747 -11.504 -21.991  0.00  0.00    +0.170 C 
ATOM      6  C   UNL     1      32.020  -9.159 -22.611  0.00  0.00    +0.051 C 
ATOM      7  C   UNL     1      31.408  -8.738 -21.421  0.00  0.00    +0.068 C 
ATOM      8  C   UNL     1      31.186  -9.718 -20.331  0.00  0.00    +0.248 C 
ATOM      9  C   UNL     1      31.058  -7.395 -21.228  0.00  0.00    +0.027 C 
ATOM     10  C   UNL     1      31.328  -6.461 -22.225  0.00  0.00    +0.132 C 
ATOM     11  C   UNL     1      32.304  -8.198 -23.591  0.00  0.00    +0.027 C 
ATOM     12  C   UNL     1      31.954  -6.859 -23.403  0.00  0.00    +0.077 C 
ATOM     13  H   UNL     1      33.056 -10.729 -23.482  0.00  0.00    +0.149 HD
ATOM     14  H   UNL     1      31.558 -11.676 -19.897  0.00  0.00    +0.152 HD
ENDROOT
BRANCH   5  15
ATOM     15  C   UNL     1      32.578 -12.768 -21.988  0.00  0.00    +0.014 C 
ATOM     16  C   UNL     1      32.966 -13.347 -20.779  0.00  0.00    -0.001 C 
ATOM     17  C   UNL     1      32.959 -13.355 -23.195  0.00  0.00    -0.001 C 
ATOM     18  C   UNL     1      33.733 -14.511 -20.777  0.00  0.00    -0.000 C 
ATOM     19  C   UNL     1      33.727 -14.520 -23.192  0.00  0.00    -0.000 C 
ATOM     20  C   UNL     1      34.113 -15.099 -21.984  0.00  0.00    -0.000 C 
ENDBRANCH   5  15
BRANCH  10  21
ATOM     21  S   UNL     1      30.869  -4.794 -21.935  0.00  0.00    +0.058 S 
ATOM     22  O   UNL     1      32.077  -4.000 -22.138  0.00  0.00    -0.153 OA
ATOM     23  O   UNL     1      29.690  -4.569 -22.764  0.00  0.00    -0.153 OA
BRANCH  21  24
ATOM     24  N   UNL     1      30.406  -4.625 -20.287  0.00  0.00    -0.203 NA
ATOM     25  H   UNL     1      30.154  -3.654 -20.103  0.00  0.00    +0.144 HD
ATOM     26  H   UNL     1      31.185  -4.894 -19.686  0.00  0.00    +0.144 HD
ENDBRANCH  21  24
ENDBRANCH  10  21
TORSDOF 3
ENDMDL
MODEL 7
REMARK VINA RESULT:      -9.2      4.533      6.588
REMARK  Name = 68548
REMARK  3 active torsions:
REMARK  status: ('A' for Active; 'I' for Inactive)
REMARK    1  A    between atoms: C_5  and  C_15
REMARK    2  A    between atoms: C_10  and  S_21
REMARK    3  A    between atoms: S_21  and  N_24
REMARK                            x       y       z     vdW  Elec       q    Type
REMARK                         _______ _______ _______ _____ _____    ______ ____
ROOT
ATOM      1 CL   UNL     1      35.476 -24.307 -10.992  0.00  0.00    -0.081 Cl
ATOM      2  O   UNL     1      34.048 -22.509 -17.294  0.00  0.00    -0.270 OA
ATOM      3  N   UNL     1      31.593 -23.550 -14.210  0.00  0.00    -0.315 N 
ATOM      4  N   UNL     1      31.932 -22.962 -16.518  0.00  0.00    -0.283 N 
ATOM      5  C   UNL     1      31.068 -23.642 -15.561  0.00  0.00    +0.170 C 
ATOM      6  C   UNL     1      32.969 -23.596 -14.030  0.00  0.00    +0.051 C 
ATOM      7  C   UNL     1      33.853 -23.308 -15.081  0.00  0.00    +0.068 C 
ATOM      8  C   UNL     1      33.307 -22.902 -16.399  0.00  0.00    +0.248 C 
ATOM      9  C   UNL     1      35.239 -23.342 -14.887  0.00  0.00    +0.027 C 
ATOM     10  C   UNL     1      35.753 -23.658 -13.630  0.00  0.00    +0.132 C 
ATOM     11  C   UNL     1      33.507 -23.887 -12.769  0.00  0.00    +0.027 C 
ATOM     12  C   UNL     1      34.890 -23.924 -12.571  0.00  0.00    +0.077 C 
ATOM     13  H   UNL     1      30.988 -23.459 -13.439  0.00  0.00    +0.149 HD
ATOM     14  H   UNL     1      31.513 -22.522 -17.291  0.00  0.00    +0.152 HD
ENDROOT
BRANCH   5  15
ATOM     15  C   UNL     1      29.656 -23.102 -15.611  0.00  0.00    +0.014 C 
ATOM     16  C   UNL     1      28.784 -23.520 -16.616  0.00  0.00    -0.001 C 
ATOM     17  C   UNL     1      29.224 -22.185 -14.652  0.00  0.00    -0.001 C 
ATOM     18  C   UNL     1      27.482 -23.022 -16.664  0.00  0.00    -0.000 C 
ATOM     19  C   UNL     1      27.922 -21.687 -14.699  0.00  0.00    -0.000 C 
ATOM     20  C   UNL     1      27.051 -22.106 -15.704  0.00  0.00    -0.000 C 
ENDBRANCH   5  15
BRANCH  10  21
ATOM     21  S   UNL     1      37.495 -23.689 -13.440  0.00  0.00    +0.058 S 
ATOM     22  O   UNL     1      38.052 -23.414 -14.761  0.00  0.00    -0.153 OA
ATOM     23  O   UNL     1      37.775 -22.796 -12.320  0.00  0.00    -0.153 OA
BRANCH  21  24
ATOM     24  N   UNL     1      37.976 -25.278 -12.992  0.00  0.00    -0.203 NA
ATOM     25  H   UNL     1      37.293 -25.671 -12.346  0.00  0.00    +0.144 HD
ATOM     26  H   UNL     1      38.890 -25.241 -12.540  0.00  0.00    +0.144 HD
ENDBRANCH  21  24
ENDBRANCH  10  21
TORSDOF 3
ENDMDL
MODEL 8
REMARK VINA RESULT:      -9.0      8.357     10.948
REMARK  Name = 68548
REMARK  3 active torsions:
REMARK  status: ('A' for Active; 'I' for Inactive)
REMARK    1  A    between atoms: C_5  and  C_15
REMARK    2  A    between atoms: C_10  and  S_21
REMARK    3  A    between atoms: S_21  and  N_24
REMARK                            x       y       z     vdW  Elec       q    Type
REMARK                         _______ _______ _______ _____ _____    ______ ____
ROOT
ATOM      1 CL   UNL     1      34.961 -17.025 -20.349  0.00  0.00    -0.081 Cl
ATOM      2  O   UNL     1      33.002 -14.237 -26.126  0.00  0.00    -0.270 OA
ATOM      3  N   UNL     1      33.505 -12.601 -22.426  0.00  0.00    -0.315 N 
ATOM      4  N   UNL     1      32.815 -12.425 -24.723  0.00  0.00    -0.283 N 
ATOM      5  C   UNL     1      32.661 -11.897 -23.374  0.00  0.00    +0.170 C 
ATOM      6  C   UNL     1      33.701 -13.964 -22.600  0.00  0.00    +0.051 C 
ATOM      7  C   UNL     1      33.478 -14.582 -23.840  0.00  0.00    +0.068 C 
ATOM      8  C   UNL     1      33.068 -13.755 -25.000  0.00  0.00    +0.248 C 
ATOM      9  C   UNL     1      33.692 -15.956 -24.009  0.00  0.00    +0.027 C 
ATOM     10  C   UNL     1      34.142 -16.722 -22.936  0.00  0.00    +0.132 C 
ATOM     11  C   UNL     1      34.177 -14.750 -21.541  0.00  0.00    +0.027 C 
ATOM     12  C   UNL     1      34.390 -16.121 -21.705  0.00  0.00    +0.077 C 
ATOM     13  H   UNL     1      33.928 -12.123 -21.676  0.00  0.00    +0.149 HD
ATOM     14  H   UNL     1      32.735 -11.800 -25.479  0.00  0.00    +0.152 HD
ENDROOT
BRANCH   5  15
ATOM     15  C   UNL     1      32.946 -10.412 -23.326  0.00  0.00    +0.014 C 
ATOM     16  C   UNL     1      31.984  -9.532 -22.832  0.00  0.00    -0.001 C 
ATOM     17  C   UNL     1      34.172  -9.922 -23.778  0.00  0.00    -0.001 C 
ATOM     18  C   UNL     1      32.246  -8.162 -22.788  0.00  0.00    -0.000 C 
ATOM     19  C   UNL     1      34.434  -8.552 -23.734  0.00  0.00    -0.000 C 
ATOM     20  C   UNL     1      33.473  -7.673 -23.239  0.00  0.00    -0.000 C 
ENDBRANCH   5  15
BRANCH  10  21
ATOM     21  S   UNL     1      34.393 -18.436 -23.201  0.00  0.00    +0.058 S 
ATOM     22  O   UNL     1      33.703 -18.760 -24.446  0.00  0.00    -0.153 OA
ATOM     23  O   UNL     1      35.834 -18.637 -23.082  0.00  0.00    -0.153 OA
BRANCH  21  24
ATOM     24  N   UNL     1      33.624 -19.312 -21.936  0.00  0.00    -0.203 NA
ATOM     25  H   UNL     1      32.742 -18.858 -21.697  0.00  0.00    +0.144 HD
ATOM     26  H   UNL     1      34.231 -19.329 -21.117  0.00  0.00    +0.144 HD
ENDBRANCH  21  24
ENDBRANCH  10  21
TORSDOF 3
ENDMDL
MODEL 9
REMARK VINA RESULT:      -8.8     13.790     16.208
REMARK  Name = 68548
REMARK  3 active torsions:
REMARK  status: ('A' for Active; 'I' for Inactive)
REMARK    1  A    between atoms: C_5  and  C_15
REMARK    2  A    between atoms: C_10  and  S_21
REMARK    3  A    between atoms: S_21  and  N_24
REMARK                            x       y       z     vdW  Elec       q    Type
REMARK                         _______ _______ _______ _____ _____    ______ ____
ROOT
ATOM      1 CL   UNL     1      31.809  -5.323 -26.111  0.00  0.00    -0.081 Cl
ATOM      2  O   UNL     1      31.278  -7.356 -19.742  0.00  0.00    -0.270 OA
ATOM      3  N   UNL     1      31.864  -9.486 -23.168  0.00  0.00    -0.315 N 
ATOM      4  N   UNL     1      31.476  -9.390 -20.796  0.00  0.00    -0.283 N 
ATOM      5  C   UNL     1      31.348 -10.190 -22.007  0.00  0.00    +0.170 C 
ATOM      6  C   UNL     1      31.684  -8.112 -23.244  0.00  0.00    +0.051 C 
ATOM      7  C   UNL     1      31.416  -7.347 -22.098  0.00  0.00    +0.068 C 
ATOM      8  C   UNL     1      31.369  -8.012 -20.775  0.00  0.00    +0.248 C 
ATOM      9  C   UNL     1      31.249  -5.958 -22.182  0.00  0.00    +0.027 C 
ATOM     10  C   UNL     1      31.360  -5.323 -23.417  0.00  0.00    +0.132 C 
ATOM     11  C   UNL     1      31.815  -7.449 -24.471  0.00  0.00    +0.027 C 
ATOM     12  C   UNL     1      31.648  -6.065 -24.560  0.00  0.00    +0.077 C 
ATOM     13  H   UNL     1      32.331  -9.973 -23.886  0.00  0.00    +0.149 HD
ATOM     14  H   UNL     1      31.648  -9.856 -19.947  0.00  0.00    +0.152 HD
ENDROOT
BRANCH   5  15
ATOM     15  C   UNL     1      32.034 -11.529 -21.859  0.00  0.00    +0.014 C 
ATOM     16  C   UNL     1      32.923 -11.971 -22.839  0.00  0.00    -0.001 C 
ATOM     17  C   UNL     1      31.778 -12.325 -20.741  0.00  0.00    -0.001 C 
ATOM     18  C   UNL     1      33.555 -13.207 -22.703  0.00  0.00    -0.000 C 
ATOM     19  C   UNL     1      32.411 -13.561 -20.605  0.00  0.00    -0.000 C 
ATOM     20  C   UNL     1      33.299 -14.002 -21.584  0.00  0.00    -0.000 C 
ENDBRANCH   5  15
BRANCH  10  21
ATOM     21  S   UNL     1      31.143  -3.585 -23.468  0.00  0.00    +0.058 S 
ATOM     22  O   UNL     1      29.868  -3.355 -24.143  0.00  0.00    -0.153 OA
ATOM     23  O   UNL     1      31.343  -3.131 -22.096  0.00  0.00    -0.153 OA
BRANCH  21  24
ATOM     24  N   UNL     1      32.379  -2.899 -24.447  0.00  0.00    -0.203 NA
ATOM     25  H   UNL     1      33.291  -3.114 -24.043  0.00  0.00    +0.144 HD
ATOM     26  H   UNL     1      32.257  -1.887 -24.489  0.00  0.00    +0.144 HD
ENDBRANCH  21  24
ENDBRANCH  10  21
TORSDOF 3
ENDMDL
