MODEL 1
REMARK VINA RESULT:     -12.2      0.000      0.000
REMARK  Name = 46937074
REMARK  11 active torsions:
REMARK  status: ('A' for Active; 'I' for Inactive)
REMARK    1  A    between atoms: C_1  and  N_4
REMARK    2  A    between atoms: C_1  and  C_23
REMARK    3  A    between atoms: C_5  and  C_7
REMARK    4  A    between atoms: C_7  and  C_10
REMARK    5  A    between atoms: C_7  and  C_14
REMARK    6  A    between atoms: N_9  and  O_12
REMARK    7  A    between atoms: C_14  and  C_15
REMARK    8  A    between atoms: N_22  and  C_25
REMARK    9  A    between atoms: C_25  and  C_28
REMARK   10  A    between atoms: N_27  and  C_30
REMARK   11  A    between atoms: C_33  and  N_38
REMARK                            x       y       z     vdW  Elec       q    Type
REMARK                         _______ _______ _______ _____ _____    ______ ____
ROOT
ATOM      1  C   UNL     1      33.744 -21.558 -19.102  0.00  0.00    +0.149 C 
ATOM      2  C   UNL     1      32.682 -20.586 -19.591  0.00  0.00    +0.031 C 
ENDROOT
BRANCH   1   4
ATOM      3  O   UNL     1      33.036 -24.190 -18.134  0.00  0.00    -0.275 OA
ATOM      4  N   UNL     1      33.506 -21.950 -17.731  0.00  0.00    -0.298 N 
ATOM      5  C   UNL     1      33.169 -23.243 -17.360  0.00  0.00    +0.231 C 
ATOM      6  H   UNL     1      33.587 -21.266 -17.028  0.00  0.00    +0.150 HD
BRANCH   5   7
ATOM      7  C   UNL     1      32.983 -23.388 -15.850  0.00  0.00    +0.159 C 
BRANCH   7  10
ATOM      8  O   UNL     1      35.396 -23.250 -15.640  0.00  0.00    -0.273 OA
ATOM      9  N   UNL     1      34.093 -22.843 -13.778  0.00  0.00    -0.197 N 
ATOM     10  C   UNL     1      34.295 -23.147 -15.103  0.00  0.00    +0.253 C 
ATOM     11  H   UNL     1      33.192 -22.770 -13.389  0.00  0.00    +0.182 HD
BRANCH   9  12
ATOM     12  O   UNL     1      35.251 -22.644 -13.016  0.00  0.00    -0.295 OA
ATOM     13  H   UNL     1      35.676 -21.813 -13.282  0.00  0.00    +0.241 HD
ENDBRANCH   9  12
ENDBRANCH   7  10
BRANCH   7  14
ATOM     14  C   UNL     1      31.881 -22.414 -15.390  0.00  0.00    +0.045 C 
BRANCH  14  15
ATOM     15  C   UNL     1      30.507 -23.041 -15.384  0.00  0.00    -0.021 C 
ATOM     16  C   UNL     1      29.474 -22.462 -16.121  0.00  0.00    -0.004 C 
ATOM     17  C   UNL     1      30.270 -24.198 -14.643  0.00  0.00    -0.004 C 
ATOM     18  C   UNL     1      28.204 -23.040 -16.117  0.00  0.00    -0.000 C 
ATOM     19  C   UNL     1      29.001 -24.776 -14.637  0.00  0.00    -0.000 C 
ATOM     20  C   UNL     1      27.967 -24.197 -15.374  0.00  0.00    -0.000 C 
ENDBRANCH  14  15
ENDBRANCH   7  14
ENDBRANCH   5   7
ENDBRANCH   1   4
BRANCH   1  23
ATOM     21  O   UNL     1      36.078 -21.315 -18.493  0.00  0.00    -0.273 OA
ATOM     22  N   UNL     1      35.177 -19.871 -20.071  0.00  0.00    -0.295 N 
ATOM     23  C   UNL     1      35.131 -20.933 -19.178  0.00  0.00    +0.241 C 
ATOM     24  H   UNL     1      34.362 -19.643 -20.575  0.00  0.00    +0.150 HD
BRANCH  22  25
ATOM     25  C   UNL     1      36.369 -19.087 -20.290  0.00  0.00    +0.176 C 
BRANCH  25  28
ATOM     26  O   UNL     1      36.923 -18.091 -22.410  0.00  0.00    -0.273 OA
ATOM     27  N   UNL     1      35.039 -17.336 -21.225  0.00  0.00    -0.283 N 
ATOM     28  C   UNL     1      36.165 -18.124 -21.446  0.00  0.00    +0.246 C 
ATOM     29  H   UNL     1      34.550 -17.502 -20.388  0.00  0.00    +0.155 HD
BRANCH  27  30
ATOM     30  C   UNL     1      34.517 -16.324 -22.066  0.00  0.00    +0.050 C 
ATOM     31  C   UNL     1      34.192 -15.077 -21.534  0.00  0.00    +0.016 C 
ATOM     32  C   UNL     1      34.328 -16.575 -23.425  0.00  0.00    +0.016 C 
ATOM     33  C   UNL     1      33.487 -14.330 -23.722  0.00  0.00    +0.143 C 
ATOM     34  C   UNL     1      33.677 -14.079 -22.363  0.00  0.00    +0.025 C 
ATOM     35  C   UNL     1      33.813 -15.578 -24.253  0.00  0.00    +0.025 C 
BRANCH  33  38
ATOM     36  O   UNL     1      32.857 -12.147 -24.118  0.00  0.00    -0.126 OA
ATOM     37  O   UNL     1      32.621 -13.612 -25.736  0.00  0.00    -0.126 OA
ATOM     38  N   UNL     1      32.963 -13.314 -24.565  0.00  0.00    +0.058 N 
ENDBRANCH  33  38
ENDBRANCH  27  30
ENDBRANCH  25  28
ENDBRANCH  22  25
ENDBRANCH   1  23
TORSDOF 11
ENDMDL
MODEL 2
REMARK VINA RESULT:     -11.8      1.864      2.939
REMARK  Name = 46937074
REMARK  11 active torsions:
REMARK  status: ('A' for Active; 'I' for Inactive)
REMARK    1  A    between atoms: C_1  and  N_4
REMARK    2  A    between atoms: C_1  and  C_23
REMARK    3  A    between atoms: C_5  and  C_7
REMARK    4  A    between atoms: C_7  and  C_10
REMARK    5  A    between atoms: C_7  and  C_14
REMARK    6  A    between atoms: N_9  and  O_12
REMARK    7  A    between atoms: C_14  and  C_15
REMARK    8  A    between atoms: N_22  and  C_25
REMARK    9  A    between atoms: C_25  and  C_28
REMARK   10  A    between atoms: N_27  and  C_30
REMARK   11  A    between atoms: C_33  and  N_38
REMARK                            x       y       z     vdW  Elec       q    Type
REMARK                         _______ _______ _______ _____ _____    ______ ____
ROOT
ATOM      1  C   UNL     1      35.644 -21.538 -16.098  0.00  0.00    +0.149 C 
ATOM      2  C   UNL     1      37.089 -22.008 -16.027  0.00  0.00    +0.031 C 
ENDROOT
BRANCH   1   4
ATOM      3  O   UNL     1      35.684 -24.326 -15.330  0.00  0.00    -0.275 OA
ATOM      4  N   UNL     1      34.833 -22.178 -15.087  0.00  0.00    -0.298 N 
ATOM      5  C   UNL     1      34.922 -23.529 -14.787  0.00  0.00    +0.231 C 
ATOM      6  H   UNL     1      34.186 -21.628 -14.589  0.00  0.00    +0.150 HD
BRANCH   5   7
ATOM      7  C   UNL     1      33.960 -23.945 -13.674  0.00  0.00    +0.159 C 
BRANCH   7  10
ATOM      8  O   UNL     1      34.414 -23.456 -11.342  0.00  0.00    -0.273 OA
ATOM      9  N   UNL     1      35.698 -25.047 -12.413  0.00  0.00    -0.197 N 
ATOM     10  C   UNL     1      34.692 -24.114 -12.342  0.00  0.00    +0.253 C 
ATOM     11  H   UNL     1      35.885 -25.552 -13.237  0.00  0.00    +0.182 HD
BRANCH   9  12
ATOM     12  O   UNL     1      36.440 -25.233 -11.240  0.00  0.00    -0.295 OA
ATOM     13  H   UNL     1      36.197 -26.079 -10.834  0.00  0.00    +0.241 HD
ENDBRANCH   9  12
ENDBRANCH   7  10
BRANCH   7  14
ATOM     14  C   UNL     1      32.835 -22.897 -13.573  0.00  0.00    +0.045 C 
BRANCH  14  15
ATOM     15  C   UNL     1      31.524 -23.385 -14.143  0.00  0.00    -0.021 C 
ATOM     16  C   UNL     1      30.932 -24.543 -13.639  0.00  0.00    -0.004 C 
ATOM     17  C   UNL     1      30.904 -22.677 -15.173  0.00  0.00    -0.004 C 
ATOM     18  C   UNL     1      29.721 -24.994 -14.165  0.00  0.00    -0.000 C 
ATOM     19  C   UNL     1      29.694 -23.128 -15.699  0.00  0.00    -0.000 C 
ATOM     20  C   UNL     1      29.102 -24.286 -15.195  0.00  0.00    -0.000 C 
ENDBRANCH  14  15
ENDBRANCH   7  14
ENDBRANCH   5   7
ENDBRANCH   1   4
BRANCH   1  23
ATOM     21  O   UNL     1      34.095 -22.628 -17.609  0.00  0.00    -0.273 OA
ATOM     22  N   UNL     1      35.694 -21.195 -18.488  0.00  0.00    -0.295 N 
ATOM     23  C   UNL     1      35.036 -21.852 -17.458  0.00  0.00    +0.241 C 
ATOM     24  H   UNL     1      36.439 -20.591 -18.264  0.00  0.00    +0.150 HD
BRANCH  22  25
ATOM     25  C   UNL     1      35.332 -21.363 -19.876  0.00  0.00    +0.176 C 
BRANCH  25  28
ATOM     26  O   UNL     1      33.461 -19.848 -19.845  0.00  0.00    -0.273 OA
ATOM     27  N   UNL     1      35.171 -19.553 -21.429  0.00  0.00    -0.283 N 
ATOM     28  C   UNL     1      34.526 -20.171 -20.361  0.00  0.00    +0.246 C 
ATOM     29  H   UNL     1      36.024 -19.954 -21.713  0.00  0.00    +0.155 HD
BRANCH  27  30
ATOM     30  C   UNL     1      34.743 -18.416 -22.154  0.00  0.00    +0.050 C 
ATOM     31  C   UNL     1      34.086 -18.573 -23.373  0.00  0.00    +0.016 C 
ATOM     32  C   UNL     1      34.979 -17.137 -21.648  0.00  0.00    +0.016 C 
ATOM     33  C   UNL     1      33.900 -16.173 -23.582  0.00  0.00    +0.143 C 
ATOM     34  C   UNL     1      33.664 -17.452 -24.088  0.00  0.00    +0.025 C 
ATOM     35  C   UNL     1      34.558 -16.016 -22.362  0.00  0.00    +0.025 C 
BRANCH  33  38
ATOM     36  O   UNL     1      33.278 -13.955 -23.695  0.00  0.00    -0.126 OA
ATOM     37  O   UNL     1      33.297 -15.130 -25.550  0.00  0.00    -0.126 OA
ATOM     38  N   UNL     1      33.471 -15.031 -24.310  0.00  0.00    +0.058 N 
ENDBRANCH  33  38
ENDBRANCH  27  30
ENDBRANCH  25  28
ENDBRANCH  22  25
ENDBRANCH   1  23
TORSDOF 11
ENDMDL
MODEL 3
REMARK VINA RESULT:     -11.8      1.691      3.534
REMARK  Name = 46937074
REMARK  11 active torsions:
REMARK  status: ('A' for Active; 'I' for Inactive)
REMARK    1  A    between atoms: C_1  and  N_4
REMARK    2  A    between atoms: C_1  and  C_23
REMARK    3  A    between atoms: C_5  and  C_7
REMARK    4  A    between atoms: C_7  and  C_10
REMARK    5  A    between atoms: C_7  and  C_14
REMARK    6  A    between atoms: N_9  and  O_12
REMARK    7  A    between atoms: C_14  and  C_15
REMARK    8  A    between atoms: N_22  and  C_25
REMARK    9  A    between atoms: C_25  and  C_28
REMARK   10  A    between atoms: N_27  and  C_30
REMARK   11  A    between atoms: C_33  and  N_38
REMARK                            x       y       z     vdW  Elec       q    Type
REMARK                         _______ _______ _______ _____ _____    ______ ____
ROOT
ATOM      1  C   UNL     1      33.254 -21.468 -19.307  0.00  0.00    +0.149 C 
ATOM      2  C   UNL     1      32.387 -20.460 -20.046  0.00  0.00    +0.031 C 
ENDROOT
BRANCH   1   4
ATOM      3  O   UNL     1      33.055 -23.964 -17.860  0.00  0.00    -0.275 OA
ATOM      4  N   UNL     1      32.797 -21.657 -17.949  0.00  0.00    -0.298 N 
ATOM      5  C   UNL     1      32.736 -22.899 -17.336  0.00  0.00    +0.231 C 
ATOM      6  H   UNL     1      32.517 -20.865 -17.435  0.00  0.00    +0.150 HD
BRANCH   5   7
ATOM      7  C   UNL     1      32.227 -22.815 -15.897  0.00  0.00    +0.159 C 
BRANCH   7  10
ATOM      8  O   UNL     1      29.937 -22.343 -16.542  0.00  0.00    -0.273 OA
ATOM      9  N   UNL     1      30.325 -23.898 -14.880  0.00  0.00    -0.197 N 
ATOM     10  C   UNL     1      30.709 -22.985 -15.833  0.00  0.00    +0.253 C 
ATOM     11  H   UNL     1      30.979 -24.390 -14.334  0.00  0.00    +0.182 HD
BRANCH   9  12
ATOM     12  O   UNL     1      28.944 -24.081 -14.735  0.00  0.00    -0.295 OA
ATOM     13  H   UNL     1      28.485 -23.710 -15.505  0.00  0.00    +0.241 HD
ENDBRANCH   9  12
ENDBRANCH   7  10
BRANCH   7  14
ATOM     14  C   UNL     1      32.952 -23.880 -15.051  0.00  0.00    +0.045 C 
BRANCH  14  15
ATOM     15  C   UNL     1      34.442 -23.648 -14.963  0.00  0.00    -0.021 C 
ATOM     16  C   UNL     1      34.955 -22.358 -15.094  0.00  0.00    -0.004 C 
ATOM     17  C   UNL     1      35.305 -24.723 -14.749  0.00  0.00    -0.004 C 
ATOM     18  C   UNL     1      36.332 -22.142 -15.012  0.00  0.00    -0.000 C 
ATOM     19  C   UNL     1      36.680 -24.508 -14.668  0.00  0.00    -0.000 C 
ATOM     20  C   UNL     1      37.194 -23.217 -14.799  0.00  0.00    -0.000 C 
ENDBRANCH  14  15
ENDBRANCH   7  14
ENDBRANCH   5   7
ENDBRANCH   1   4
BRANCH   1  23
ATOM     21  O   UNL     1      35.524 -21.456 -18.460  0.00  0.00    -0.273 OA
ATOM     22  N   UNL     1      34.964 -19.999 -20.177  0.00  0.00    -0.295 N 
ATOM     23  C   UNL     1      34.704 -21.005 -19.256  0.00  0.00    +0.241 C 
ATOM     24  H   UNL     1      34.237 -19.706 -20.773  0.00  0.00    +0.150 HD
BRANCH  22  25
ATOM     25  C   UNL     1      36.255 -19.365 -20.294  0.00  0.00    +0.176 C 
BRANCH  25  28
ATOM     26  O   UNL     1      37.215 -17.918 -21.961  0.00  0.00    -0.273 OA
ATOM     27  N   UNL     1      34.921 -17.773 -21.476  0.00  0.00    -0.283 N 
ATOM     28  C   UNL     1      36.214 -18.271 -21.346  0.00  0.00    +0.246 C 
ATOM     29  H   UNL     1      34.239 -18.179 -20.895  0.00  0.00    +0.155 HD
BRANCH  27  30
ATOM     30  C   UNL     1      34.473 -16.752 -22.347  0.00  0.00    +0.050 C 
ATOM     31  C   UNL     1      34.362 -15.441 -21.885  0.00  0.00    +0.016 C 
ATOM     32  C   UNL     1      34.144 -17.056 -23.669  0.00  0.00    +0.016 C 
ATOM     33  C   UNL     1      33.591 -14.739 -24.065  0.00  0.00    +0.143 C 
ATOM     34  C   UNL     1      33.920 -14.434 -22.743  0.00  0.00    +0.025 C 
ATOM     35  C   UNL     1      33.703 -16.050 -24.527  0.00  0.00    +0.025 C 
BRANCH  33  38
ATOM     36  O   UNL     1      33.040 -13.960 -26.165  0.00  0.00    -0.126 OA
ATOM     37  O   UNL     1      32.857 -12.588 -24.461  0.00  0.00    -0.126 OA
ATOM     38  N   UNL     1      33.142 -13.713 -24.939  0.00  0.00    +0.058 N 
ENDBRANCH  33  38
ENDBRANCH  27  30
ENDBRANCH  25  28
ENDBRANCH  22  25
ENDBRANCH   1  23
TORSDOF 11
ENDMDL
MODEL 4
REMARK VINA RESULT:     -11.6      1.933      2.572
REMARK  Name = 46937074
REMARK  11 active torsions:
REMARK  status: ('A' for Active; 'I' for Inactive)
REMARK    1  A    between atoms: C_1  and  N_4
REMARK    2  A    between atoms: C_1  and  C_23
REMARK    3  A    between atoms: C_5  and  C_7
REMARK    4  A    between atoms: C_7  and  C_10
REMARK    5  A    between atoms: C_7  and  C_14
REMARK    6  A    between atoms: N_9  and  O_12
REMARK    7  A    between atoms: C_14  and  C_15
REMARK    8  A    between atoms: N_22  and  C_25
REMARK    9  A    between atoms: C_25  and  C_28
REMARK   10  A    between atoms: N_27  and  C_30
REMARK   11  A    between atoms: C_33  and  N_38
REMARK                            x       y       z     vdW  Elec       q    Type
REMARK                         _______ _______ _______ _____ _____    ______ ____
ROOT
ATOM      1  C   UNL     1      35.561 -21.284 -17.002  0.00  0.00    +0.149 C 
ATOM      2  C   UNL     1      37.055 -21.237 -16.723  0.00  0.00    +0.031 C 
ENDROOT
BRANCH   1   4
ATOM      3  O   UNL     1      36.278 -22.602 -14.530  0.00  0.00    -0.275 OA
ATOM      4  N   UNL     1      34.959 -22.471 -16.438  0.00  0.00    -0.298 N 
ATOM      5  C   UNL     1      35.372 -23.034 -15.240  0.00  0.00    +0.231 C 
ATOM      6  H   UNL     1      34.221 -22.900 -16.929  0.00  0.00    +0.150 HD
BRANCH   5   7
ATOM      7  C   UNL     1      34.562 -24.277 -14.869  0.00  0.00    +0.159 C 
BRANCH   7  10
ATOM      8  O   UNL     1      35.682 -26.324 -15.532  0.00  0.00    -0.273 OA
ATOM      9  N   UNL     1      35.978 -25.542 -13.380  0.00  0.00    -0.197 N 
ATOM     10  C   UNL     1      35.470 -25.488 -14.655  0.00  0.00    +0.253 C 
ATOM     11  H   UNL     1      35.781 -24.849 -12.709  0.00  0.00    +0.182 HD
BRANCH   9  12
ATOM     12  O   UNL     1      36.791 -26.646 -13.094  0.00  0.00    -0.295 OA
ATOM     13  H   UNL     1      37.431 -26.407 -12.405  0.00  0.00    +0.241 HD
ENDBRANCH   9  12
ENDBRANCH   7  10
BRANCH   7  14
ATOM     14  C   UNL     1      33.726 -23.967 -13.613  0.00  0.00    +0.045 C 
BRANCH  14  15
ATOM     15  C   UNL     1      32.251 -23.822 -13.909  0.00  0.00    -0.021 C 
ATOM     16  C   UNL     1      31.801 -22.771 -14.709  0.00  0.00    -0.004 C 
ATOM     17  C   UNL     1      31.340 -24.738 -13.384  0.00  0.00    -0.004 C 
ATOM     18  C   UNL     1      30.440 -22.637 -14.983  0.00  0.00    -0.000 C 
ATOM     19  C   UNL     1      29.979 -24.603 -13.656  0.00  0.00    -0.000 C 
ATOM     20  C   UNL     1      29.529 -23.552 -14.456  0.00  0.00    -0.000 C 
ENDBRANCH  14  15
ENDBRANCH   7  14
ENDBRANCH   5   7
ENDBRANCH   1   4
BRANCH   1  23
ATOM     21  O   UNL     1      34.636 -22.162 -19.063  0.00  0.00    -0.273 OA
ATOM     22  N   UNL     1      35.889 -20.210 -19.141  0.00  0.00    -0.295 N 
ATOM     23  C   UNL     1      35.287 -21.284 -18.501  0.00  0.00    +0.241 C 
ATOM     24  H   UNL     1      36.391 -19.558 -18.600  0.00  0.00    +0.150 HD
BRANCH  22  25
ATOM     25  C   UNL     1      35.812 -20.011 -20.569  0.00  0.00    +0.176 C 
BRANCH  25  28
ATOM     26  O   UNL     1      33.574 -19.193 -20.914  0.00  0.00    -0.273 OA
ATOM     27  N   UNL     1      35.399 -17.736 -21.173  0.00  0.00    -0.283 N 
ATOM     28  C   UNL     1      34.777 -18.951 -20.901  0.00  0.00    +0.246 C 
ATOM     29  H   UNL     1      36.381 -17.729 -21.115  0.00  0.00    +0.155 HD
BRANCH  27  30
ATOM     30  C   UNL     1      34.784 -16.511 -21.521  0.00  0.00    +0.050 C 
ATOM     31  C   UNL     1      34.236 -15.699 -20.529  0.00  0.00    +0.016 C 
ATOM     32  C   UNL     1      34.725 -16.115 -22.858  0.00  0.00    +0.016 C 
ATOM     33  C   UNL     1      33.570 -14.095 -22.209  0.00  0.00    +0.143 C 
ATOM     34  C   UNL     1      33.629 -14.491 -20.872  0.00  0.00    +0.025 C 
ATOM     35  C   UNL     1      34.118 -14.907 -23.202  0.00  0.00    +0.025 C 
BRANCH  33  38
ATOM     36  O   UNL     1      33.206 -12.352 -23.675  0.00  0.00    -0.126 OA
ATOM     37  O   UNL     1      32.167 -12.325 -21.741  0.00  0.00    -0.126 OA
ATOM     38  N   UNL     1      32.952 -12.865 -22.558  0.00  0.00    +0.058 N 
ENDBRANCH  33  38
ENDBRANCH  27  30
ENDBRANCH  25  28
ENDBRANCH  22  25
ENDBRANCH   1  23
TORSDOF 11
ENDMDL
MODEL 5
REMARK VINA RESULT:     -11.1      2.070      3.418
REMARK  Name = 46937074
REMARK  11 active torsions:
REMARK  status: ('A' for Active; 'I' for Inactive)
REMARK    1  A    between atoms: C_1  and  N_4
REMARK    2  A    between atoms: C_1  and  C_23
REMARK    3  A    between atoms: C_5  and  C_7
REMARK    4  A    between atoms: C_7  and  C_10
REMARK    5  A    between atoms: C_7  and  C_14
REMARK    6  A    between atoms: N_9  and  O_12
REMARK    7  A    between atoms: C_14  and  C_15
REMARK    8  A    between atoms: N_22  and  C_25
REMARK    9  A    between atoms: C_25  and  C_28
REMARK   10  A    between atoms: N_27  and  C_30
REMARK   11  A    between atoms: C_33  and  N_38
REMARK                            x       y       z     vdW  Elec       q    Type
REMARK                         _______ _______ _______ _____ _____    ______ ____
ROOT
ATOM      1  C   UNL     1      35.802 -22.536 -15.232  0.00  0.00    +0.149 C 
ATOM      2  C   UNL     1      36.230 -23.972 -14.970  0.00  0.00    +0.031 C 
ENDROOT
BRANCH   1   4
ATOM      3  O   UNL     1      33.378 -23.136 -13.774  0.00  0.00    -0.275 OA
ATOM      4  N   UNL     1      34.446 -22.474 -15.728  0.00  0.00    -0.298 N 
ATOM      5  C   UNL     1      33.340 -22.782 -14.951  0.00  0.00    +0.231 C 
ATOM      6  H   UNL     1      34.301 -22.200 -16.663  0.00  0.00    +0.150 HD
BRANCH   5   7
ATOM      7  C   UNL     1      32.026 -22.626 -15.716  0.00  0.00    +0.159 C 
BRANCH   7  10
ATOM      8  O   UNL     1      32.813 -23.733 -17.726  0.00  0.00    -0.273 OA
ATOM      9  N   UNL     1      31.755 -21.691 -17.924  0.00  0.00    -0.197 N 
ATOM     10  C   UNL     1      32.240 -22.768 -17.223  0.00  0.00    +0.253 C 
ATOM     11  H   UNL     1      31.302 -20.938 -17.480  0.00  0.00    +0.182 HD
BRANCH   9  12
ATOM     12  O   UNL     1      31.947 -21.730 -19.311  0.00  0.00    -0.295 OA
ATOM     13  H   UNL     1      32.602 -21.061 -19.566  0.00  0.00    +0.241 HD
ENDBRANCH   9  12
ENDBRANCH   7  10
BRANCH   7  14
ATOM     14  C   UNL     1      31.016 -23.662 -15.187  0.00  0.00    +0.045 C 
BRANCH  14  15
ATOM     15  C   UNL     1      29.580 -23.264 -15.433  0.00  0.00    -0.021 C 
ATOM     16  C   UNL     1      29.051 -22.137 -14.803  0.00  0.00    -0.004 C 
ATOM     17  C   UNL     1      28.782 -24.022 -16.290  0.00  0.00    -0.004 C 
ATOM     18  C   UNL     1      27.725 -21.769 -15.031  0.00  0.00    -0.000 C 
ATOM     19  C   UNL     1      27.456 -23.655 -16.516  0.00  0.00    -0.000 C 
ATOM     20  C   UNL     1      26.927 -22.528 -15.887  0.00  0.00    -0.000 C 
ENDBRANCH  14  15
ENDBRANCH   7  14
ENDBRANCH   5   7
ENDBRANCH   1   4
BRANCH   1  23
ATOM     21  O   UNL     1      37.927 -21.785 -16.122  0.00  0.00    -0.273 OA
ATOM     22  N   UNL     1      35.995 -21.366 -17.337  0.00  0.00    -0.295 N 
ATOM     23  C   UNL     1      36.710 -21.877 -16.263  0.00  0.00    +0.241 C 
ATOM     24  H   UNL     1      35.019 -21.492 -17.358  0.00  0.00    +0.150 HD
BRANCH  22  25
ATOM     25  C   UNL     1      36.625 -20.656 -18.425  0.00  0.00    +0.176 C 
BRANCH  25  28
ATOM     26  O   UNL     1      34.535 -20.900 -19.595  0.00  0.00    -0.273 OA
ATOM     27  N   UNL     1      36.066 -19.255 -20.278  0.00  0.00    -0.283 N 
ATOM     28  C   UNL     1      35.602 -20.304 -19.491  0.00  0.00    +0.246 C 
ATOM     29  H   UNL     1      36.954 -18.898 -20.048  0.00  0.00    +0.155 HD
BRANCH  27  30
ATOM     30  C   UNL     1      35.409 -18.640 -21.371  0.00  0.00    +0.050 C 
ATOM     31  C   UNL     1      35.323 -17.250 -21.439  0.00  0.00    +0.016 C 
ATOM     32  C   UNL     1      34.848 -19.425 -22.379  0.00  0.00    +0.016 C 
ATOM     33  C   UNL     1      34.114 -17.429 -23.524  0.00  0.00    +0.143 C 
ATOM     34  C   UNL     1      34.675 -16.644 -22.516  0.00  0.00    +0.025 C 
ATOM     35  C   UNL     1      34.201 -18.820 -23.455  0.00  0.00    +0.025 C 
BRANCH  33  38
ATOM     36  O   UNL     1      33.969 -15.796 -25.147  0.00  0.00    -0.126 OA
ATOM     37  O   UNL     1      32.374 -17.301 -25.033  0.00  0.00    -0.126 OA
ATOM     38  N   UNL     1      33.454 -16.812 -24.620  0.00  0.00    +0.058 N 
ENDBRANCH  33  38
ENDBRANCH  27  30
ENDBRANCH  25  28
ENDBRANCH  22  25
ENDBRANCH   1  23
TORSDOF 11
ENDMDL
MODEL 6
REMARK VINA RESULT:     -11.1      4.417     12.698
REMARK  Name = 46937074
REMARK  11 active torsions:
REMARK  status: ('A' for Active; 'I' for Inactive)
REMARK    1  A    between atoms: C_1  and  N_4
REMARK    2  A    between atoms: C_1  and  C_23
REMARK    3  A    between atoms: C_5  and  C_7
REMARK    4  A    between atoms: C_7  and  C_10
REMARK    5  A    between atoms: C_7  and  C_14
REMARK    6  A    between atoms: N_9  and  O_12
REMARK    7  A    between atoms: C_14  and  C_15
REMARK    8  A    between atoms: N_22  and  C_25
REMARK    9  A    between atoms: C_25  and  C_28
REMARK   10  A    between atoms: N_27  and  C_30
REMARK   11  A    between atoms: C_33  and  N_38
REMARK                            x       y       z     vdW  Elec       q    Type
REMARK                         _______ _______ _______ _____ _____    ______ ____
ROOT
ATOM      1  C   UNL     1      33.726 -12.809 -22.383  0.00  0.00    +0.149 C 
ATOM      2  C   UNL     1      33.736 -13.583 -21.074  0.00  0.00    +0.031 C 
ENDROOT
BRANCH   1   4
ATOM      3  O   UNL     1      34.019 -10.228 -23.654  0.00  0.00    -0.275 OA
ATOM      4  N   UNL     1      32.802 -11.698 -22.328  0.00  0.00    -0.298 N 
ATOM      5  C   UNL     1      33.029 -10.492 -22.974  0.00  0.00    +0.231 C 
ATOM      6  H   UNL     1      31.973 -11.804 -21.809  0.00  0.00    +0.150 HD
BRANCH   5   7
ATOM      7  C   UNL     1      31.891  -9.493 -22.761  0.00  0.00    +0.159 C 
BRANCH   7  10
ATOM      8  O   UNL     1      30.125 -10.780 -21.710  0.00  0.00    -0.273 OA
ATOM      9  N   UNL     1      31.242  -9.196 -20.457  0.00  0.00    -0.197 N 
ATOM     10  C   UNL     1      30.991  -9.915 -21.600  0.00  0.00    +0.253 C 
ATOM     11  H   UNL     1      31.947  -8.510 -20.414  0.00  0.00    +0.182 HD
BRANCH   9  12
ATOM     12  O   UNL     1      30.430  -9.499 -19.356  0.00  0.00    -0.295 OA
ATOM     13  H   UNL     1      30.269 -10.455 -19.326  0.00  0.00    +0.241 HD
ENDBRANCH   9  12
ENDBRANCH   7  10
BRANCH   7  14
ATOM     14  C   UNL     1      32.495  -8.095 -22.531  0.00  0.00    +0.045 C 
BRANCH  14  15
ATOM     15  C   UNL     1      32.538  -7.257 -23.788  0.00  0.00    -0.021 C 
ATOM     16  C   UNL     1      31.374  -7.054 -24.530  0.00  0.00    -0.004 C 
ATOM     17  C   UNL     1      33.739  -6.685 -24.205  0.00  0.00    -0.004 C 
ATOM     18  C   UNL     1      31.413  -6.280 -25.691  0.00  0.00    -0.000 C 
ATOM     19  C   UNL     1      33.779  -5.913 -25.366  0.00  0.00    -0.000 C 
ATOM     20  C   UNL     1      32.615  -5.710 -26.108  0.00  0.00    -0.000 C 
ENDBRANCH  14  15
ENDBRANCH   7  14
ENDBRANCH   5   7
ENDBRANCH   1   4
BRANCH   1  23
ATOM     21  O   UNL     1      32.395 -13.431 -24.310  0.00  0.00    -0.273 OA
ATOM     22  N   UNL     1      34.069 -14.870 -23.595  0.00  0.00    -0.295 N 
ATOM     23  C   UNL     1      33.315 -13.706 -23.543  0.00  0.00    +0.241 C 
ATOM     24  H   UNL     1      34.787 -14.997 -22.933  0.00  0.00    +0.150 HD
BRANCH  22  25
ATOM     25  C   UNL     1      33.843 -15.902 -24.579  0.00  0.00    +0.176 C 
BRANCH  25  28
ATOM     26  O   UNL     1      33.510 -18.285 -24.507  0.00  0.00    -0.273 OA
ATOM     27  N   UNL     1      34.424 -17.180 -22.645  0.00  0.00    -0.283 N 
ATOM     28  C   UNL     1      33.896 -17.273 -23.930  0.00  0.00    +0.246 C 
ATOM     29  H   UNL     1      34.681 -16.279 -22.345  0.00  0.00    +0.155 HD
BRANCH  27  30
ATOM     30  C   UNL     1      34.636 -18.232 -21.722  0.00  0.00    +0.050 C 
ATOM     31  C   UNL     1      33.565 -19.025 -21.312  0.00  0.00    +0.016 C 
ATOM     32  C   UNL     1      35.916 -18.474 -21.221  0.00  0.00    +0.016 C 
ATOM     33  C   UNL     1      35.054 -20.303 -19.901  0.00  0.00    +0.143 C 
ATOM     34  C   UNL     1      33.774 -20.061 -20.401  0.00  0.00    +0.025 C 
ATOM     35  C   UNL     1      36.125 -19.509 -20.311  0.00  0.00    +0.025 C 
BRANCH  33  38
ATOM     36  O   UNL     1      34.525 -22.369 -19.022  0.00  0.00    -0.126 OA
ATOM     37  O   UNL     1      36.190 -21.250 -18.131  0.00  0.00    -0.126 OA
ATOM     38  N   UNL     1      35.266 -21.358 -18.974  0.00  0.00    +0.058 N 
ENDBRANCH  33  38
ENDBRANCH  27  30
ENDBRANCH  25  28
ENDBRANCH  22  25
ENDBRANCH   1  23
TORSDOF 11
ENDMDL
MODEL 7
REMARK VINA RESULT:     -10.9      2.564      4.856
REMARK  Name = 46937074
REMARK  11 active torsions:
REMARK  status: ('A' for Active; 'I' for Inactive)
REMARK    1  A    between atoms: C_1  and  N_4
REMARK    2  A    between atoms: C_1  and  C_23
REMARK    3  A    between atoms: C_5  and  C_7
REMARK    4  A    between atoms: C_7  and  C_10
REMARK    5  A    between atoms: C_7  and  C_14
REMARK    6  A    between atoms: N_9  and  O_12
REMARK    7  A    between atoms: C_14  and  C_15
REMARK    8  A    between atoms: N_22  and  C_25
REMARK    9  A    between atoms: C_25  and  C_28
REMARK   10  A    between atoms: N_27  and  C_30
REMARK   11  A    between atoms: C_33  and  N_38
REMARK                            x       y       z     vdW  Elec       q    Type
REMARK                         _______ _______ _______ _____ _____    ______ ____
ROOT
ATOM      1  C   UNL     1      32.716 -23.233 -17.265  0.00  0.00    +0.149 C 
ATOM      2  C   UNL     1      31.748 -22.142 -16.835  0.00  0.00    +0.031 C 
ENDROOT
BRANCH   1   4
ATOM      3  O   UNL     1      32.497 -22.650 -14.441  0.00  0.00    -0.275 OA
ATOM      4  N   UNL     1      33.700 -23.496 -16.239  0.00  0.00    -0.298 N 
ATOM      5  C   UNL     1      33.505 -23.180 -14.903  0.00  0.00    +0.231 C 
ATOM      6  H   UNL     1      34.548 -23.920 -16.503  0.00  0.00    +0.150 HD
BRANCH   5   7
ATOM      7  C   UNL     1      34.697 -23.573 -14.030  0.00  0.00    +0.159 C 
BRANCH   7  10
ATOM      8  O   UNL     1      33.174 -24.301 -12.288  0.00  0.00    -0.273 OA
ATOM      9  N   UNL     1      35.221 -23.427 -11.679  0.00  0.00    -0.197 N 
ATOM     10  C   UNL     1      34.267 -23.825 -12.584  0.00  0.00    +0.253 C 
ATOM     11  H   UNL     1      36.086 -23.050 -11.962  0.00  0.00    +0.182 HD
BRANCH   9  12
ATOM     12  O   UNL     1      34.886 -23.591 -10.329  0.00  0.00    -0.295 OA
ATOM     13  H   UNL     1      35.406 -24.317  -9.952  0.00  0.00    +0.241 HD
ENDBRANCH   9  12
ENDBRANCH   7  10
BRANCH   7  14
ATOM     14  C   UNL     1      35.374 -24.814 -14.644  0.00  0.00    +0.045 C 
BRANCH  14  15
ATOM     15  C   UNL     1      36.883 -24.746 -14.594  0.00  0.00    -0.021 C 
ATOM     16  C   UNL     1      37.611 -25.815 -14.074  0.00  0.00    -0.004 C 
ATOM     17  C   UNL     1      37.547 -23.616 -15.069  0.00  0.00    -0.004 C 
ATOM     18  C   UNL     1      39.005 -25.754 -14.028  0.00  0.00    -0.000 C 
ATOM     19  C   UNL     1      38.939 -23.553 -15.023  0.00  0.00    -0.000 C 
ATOM     20  C   UNL     1      39.669 -24.623 -14.502  0.00  0.00    -0.000 C 
ENDBRANCH  14  15
ENDBRANCH   7  14
ENDBRANCH   5   7
ENDBRANCH   1   4
BRANCH   1  23
ATOM     21  O   UNL     1      33.455 -23.518 -19.556  0.00  0.00    -0.273 OA
ATOM     22  N   UNL     1      34.153 -21.643 -18.380  0.00  0.00    -0.295 N 
ATOM     23  C   UNL     1      33.457 -22.833 -18.535  0.00  0.00    +0.241 C 
ATOM     24  H   UNL     1      34.090 -21.167 -17.521  0.00  0.00    +0.150 HD
BRANCH  22  25
ATOM     25  C   UNL     1      34.968 -21.075 -19.429  0.00  0.00    +0.176 C 
BRANCH  25  28
ATOM     26  O   UNL     1      32.941 -20.043 -20.217  0.00  0.00    -0.273 OA
ATOM     27  N   UNL     1      35.021 -19.233 -20.950  0.00  0.00    -0.283 N 
ATOM     28  C   UNL     1      34.167 -20.067 -20.234  0.00  0.00    +0.246 C 
ATOM     29  H   UNL     1      35.985 -19.402 -20.843  0.00  0.00    +0.155 HD
BRANCH  27  30
ATOM     30  C   UNL     1      34.665 -18.171 -21.815  0.00  0.00    +0.050 C 
ATOM     31  C   UNL     1      34.169 -18.446 -23.089  0.00  0.00    +0.016 C 
ATOM     32  C   UNL     1      34.809 -16.849 -21.393  0.00  0.00    +0.016 C 
ATOM     33  C   UNL     1      33.962 -16.077 -23.519  0.00  0.00    +0.143 C 
ATOM     34  C   UNL     1      33.818 -17.399 -23.941  0.00  0.00    +0.025 C 
ATOM     35  C   UNL     1      34.458 -15.802 -22.244  0.00  0.00    +0.025 C 
BRANCH  33  38
ATOM     36  O   UNL     1      33.529 -13.848 -23.923  0.00  0.00    -0.126 OA
ATOM     37  O   UNL     1      33.375 -15.262 -25.595  0.00  0.00    -0.126 OA
ATOM     38  N   UNL     1      33.604 -15.011 -24.387  0.00  0.00    +0.058 N 
ENDBRANCH  33  38
ENDBRANCH  27  30
ENDBRANCH  25  28
ENDBRANCH  22  25
ENDBRANCH   1  23
TORSDOF 11
ENDMDL
MODEL 8
REMARK VINA RESULT:     -10.8      2.420      4.148
REMARK  Name = 46937074
REMARK  11 active torsions:
REMARK  status: ('A' for Active; 'I' for Inactive)
REMARK    1  A    between atoms: C_1  and  N_4
REMARK    2  A    between atoms: C_1  and  C_23
REMARK    3  A    between atoms: C_5  and  C_7
REMARK    4  A    between atoms: C_7  and  C_10
REMARK    5  A    between atoms: C_7  and  C_14
REMARK    6  A    between atoms: N_9  and  O_12
REMARK    7  A    between atoms: C_14  and  C_15
REMARK    8  A    between atoms: N_22  and  C_25
REMARK    9  A    between atoms: C_25  and  C_28
REMARK   10  A    between atoms: N_27  and  C_30
REMARK   11  A    between atoms: C_33  and  N_38
REMARK                            x       y       z     vdW  Elec       q    Type
REMARK                         _______ _______ _______ _____ _____    ______ ____
ROOT
ATOM      1  C   UNL     1      35.282 -22.800 -13.973  0.00  0.00    +0.149 C 
ATOM      2  C   UNL     1      35.479 -24.243 -13.538  0.00  0.00    +0.031 C 
ENDROOT
BRANCH   1   4
ATOM      3  O   UNL     1      32.684 -23.556 -12.951  0.00  0.00    -0.275 OA
ATOM      4  N   UNL     1      34.002 -22.616 -14.618  0.00  0.00    -0.298 N 
ATOM      5  C   UNL     1      32.802 -23.013 -14.048  0.00  0.00    +0.231 C 
ATOM      6  H   UNL     1      33.982 -22.188 -15.504  0.00  0.00    +0.150 HD
BRANCH   5   7
ATOM      7  C   UNL     1      31.599 -22.693 -14.935  0.00  0.00    +0.159 C 
BRANCH   7  10
ATOM      8  O   UNL     1      32.653 -23.711 -16.869  0.00  0.00    -0.273 OA
ATOM      9  N   UNL     1      31.445 -21.765 -17.157  0.00  0.00    -0.197 N 
ATOM     10  C   UNL     1      31.957 -22.803 -16.418  0.00  0.00    +0.253 C 
ATOM     11  H   UNL     1      30.892 -21.058 -16.754  0.00  0.00    +0.182 HD
BRANCH   9  12
ATOM     12  O   UNL     1      31.763 -21.775 -18.522  0.00  0.00    -0.295 OA
ATOM     13  H   UNL     1      31.742 -20.868 -18.865  0.00  0.00    +0.241 HD
ENDBRANCH   9  12
ENDBRANCH   7  10
BRANCH   7  14
ATOM     14  C   UNL     1      30.440 -23.637 -14.561  0.00  0.00    +0.045 C 
BRANCH  14  15
ATOM     15  C   UNL     1      29.136 -23.261 -15.225  0.00  0.00    -0.021 C 
ATOM     16  C   UNL     1      28.577 -24.102 -16.187  0.00  0.00    -0.004 C 
ATOM     17  C   UNL     1      28.491 -22.075 -14.876  0.00  0.00    -0.004 C 
ATOM     18  C   UNL     1      27.372 -23.756 -16.801  0.00  0.00    -0.000 C 
ATOM     19  C   UNL     1      27.288 -21.728 -15.490  0.00  0.00    -0.000 C 
ATOM     20  C   UNL     1      26.728 -22.569 -16.452  0.00  0.00    -0.000 C 
ENDBRANCH  14  15
ENDBRANCH   7  14
ENDBRANCH   5   7
ENDBRANCH   1   4
BRANCH   1  23
ATOM     21  O   UNL     1      37.564 -22.375 -14.670  0.00  0.00    -0.273 OA
ATOM     22  N   UNL     1      35.840 -21.949 -16.164  0.00  0.00    -0.295 N 
ATOM     23  C   UNL     1      36.368 -22.373 -14.952  0.00  0.00    +0.241 C 
ATOM     24  H   UNL     1      34.865 -21.986 -16.293  0.00  0.00    +0.150 HD
BRANCH  22  25
ATOM     25  C   UNL     1      36.664 -21.454 -17.242  0.00  0.00    +0.176 C 
BRANCH  25  28
ATOM     26  O   UNL     1      34.939 -21.973 -18.840  0.00  0.00    -0.273 OA
ATOM     27  N   UNL     1      36.205 -20.009 -19.089  0.00  0.00    -0.283 N 
ATOM     28  C   UNL     1      35.820 -21.199 -18.478  0.00  0.00    +0.246 C 
ATOM     29  H   UNL     1      36.938 -19.516 -18.656  0.00  0.00    +0.155 HD
BRANCH  27  30
ATOM     30  C   UNL     1      35.664 -19.426 -20.259  0.00  0.00    +0.050 C 
ATOM     31  C   UNL     1      36.449 -18.581 -21.044  0.00  0.00    +0.016 C 
ATOM     32  C   UNL     1      34.346 -19.696 -20.628  0.00  0.00    +0.016 C 
ATOM     33  C   UNL     1      34.597 -18.276 -22.566  0.00  0.00    +0.143 C 
ATOM     34  C   UNL     1      35.915 -18.006 -22.197  0.00  0.00    +0.025 C 
ATOM     35  C   UNL     1      33.812 -19.122 -21.781  0.00  0.00    +0.025 C 
BRANCH  33  38
ATOM     36  O   UNL     1      34.185 -16.456 -23.921  0.00  0.00    -0.126 OA
ATOM     37  O   UNL     1      33.460 -18.425 -24.567  0.00  0.00    -0.126 OA
ATOM     38  N   UNL     1      34.054 -17.691 -23.741  0.00  0.00    +0.058 N 
ENDBRANCH  33  38
ENDBRANCH  27  30
ENDBRANCH  25  28
ENDBRANCH  22  25
ENDBRANCH   1  23
TORSDOF 11
ENDMDL
MODEL 9
REMARK VINA RESULT:     -10.7      2.555      3.790
REMARK  Name = 46937074
REMARK  11 active torsions:
REMARK  status: ('A' for Active; 'I' for Inactive)
REMARK    1  A    between atoms: C_1  and  N_4
REMARK    2  A    between atoms: C_1  and  C_23
REMARK    3  A    between atoms: C_5  and  C_7
REMARK    4  A    between atoms: C_7  and  C_10
REMARK    5  A    between atoms: C_7  and  C_14
REMARK    6  A    between atoms: N_9  and  O_12
REMARK    7  A    between atoms: C_14  and  C_15
REMARK    8  A    between atoms: N_22  and  C_25
REMARK    9  A    between atoms: C_25  and  C_28
REMARK   10  A    between atoms: N_27  and  C_30
REMARK   11  A    between atoms: C_33  and  N_38
REMARK                            x       y       z     vdW  Elec       q    Type
REMARK                         _______ _______ _______ _____ _____    ______ ____
ROOT
ATOM      1  C   UNL     1      36.019 -21.400 -16.470  0.00  0.00    +0.149 C 
ATOM      2  C   UNL     1      37.326 -20.624 -16.520  0.00  0.00    +0.031 C 
ENDROOT
BRANCH   1   4
ATOM      3  O   UNL     1      37.273 -22.187 -13.985  0.00  0.00    -0.275 OA
ATOM      4  N   UNL     1      36.226 -22.745 -15.983  0.00  0.00    -0.298 N 
ATOM      5  C   UNL     1      36.841 -23.027 -14.773  0.00  0.00    +0.231 C 
ATOM      6  H   UNL     1      35.915 -23.496 -16.538  0.00  0.00    +0.150 HD
BRANCH   5   7
ATOM      7  C   UNL     1      36.923 -24.528 -14.495  0.00  0.00    +0.159 C 
BRANCH   7  10
ATOM      8  O   UNL     1      38.569 -25.592 -13.066  0.00  0.00    -0.273 OA
ATOM      9  N   UNL     1      39.293 -24.469 -14.948  0.00  0.00    -0.197 N 
ATOM     10  C   UNL     1      38.336 -24.940 -14.081  0.00  0.00    +0.253 C 
ATOM     11  H   UNL     1      39.060 -23.949 -15.751  0.00  0.00    +0.182 HD
BRANCH   9  12
ATOM     12  O   UNL     1      40.619 -24.774 -14.616  0.00  0.00    -0.295 OA
ATOM     13  H   UNL     1      41.153 -24.819 -15.424  0.00  0.00    +0.241 HD
ENDBRANCH   9  12
ENDBRANCH   7  10
BRANCH   7  14
ATOM     14  C   UNL     1      35.888 -24.891 -13.414  0.00  0.00    +0.045 C 
BRANCH  14  15
ATOM     15  C   UNL     1      34.534 -24.269 -13.662  0.00  0.00    -0.021 C 
ATOM     16  C   UNL     1      33.837 -23.674 -12.610  0.00  0.00    -0.004 C 
ATOM     17  C   UNL     1      33.981 -24.288 -14.942  0.00  0.00    -0.004 C 
ATOM     18  C   UNL     1      32.586 -23.098 -12.839  0.00  0.00    -0.000 C 
ATOM     19  C   UNL     1      32.731 -23.714 -15.171  0.00  0.00    -0.000 C 
ATOM     20  C   UNL     1      32.033 -23.118 -14.119  0.00  0.00    -0.000 C 
ENDBRANCH  14  15
ENDBRANCH   7  14
ENDBRANCH   5   7
ENDBRANCH   1   4
BRANCH   1  23
ATOM     21  O   UNL     1      34.398 -22.181 -18.093  0.00  0.00    -0.273 OA
ATOM     22  N   UNL     1      36.081 -20.745 -18.794  0.00  0.00    -0.295 N 
ATOM     23  C   UNL     1      35.387 -21.491 -17.852  0.00  0.00    +0.241 C 
ATOM     24  H   UNL     1      36.863 -20.224 -18.501  0.00  0.00    +0.150 HD
BRANCH  22  25
ATOM     25  C   UNL     1      35.704 -20.704 -20.187  0.00  0.00    +0.176 C 
BRANCH  25  28
ATOM     26  O   UNL     1      36.360 -18.387 -20.192  0.00  0.00    -0.273 OA
ATOM     27  N   UNL     1      34.742 -19.143 -21.720  0.00  0.00    -0.283 N 
ATOM     28  C   UNL     1      35.661 -19.269 -20.682  0.00  0.00    +0.246 C 
ATOM     29  H   UNL     1      34.266 -19.963 -21.981  0.00  0.00    +0.155 HD
BRANCH  27  30
ATOM     30  C   UNL     1      34.413 -17.971 -22.443  0.00  0.00    +0.050 C 
ATOM     31  C   UNL     1      33.906 -18.071 -23.738  0.00  0.00    +0.016 C 
ATOM     32  C   UNL     1      34.596 -16.717 -21.860  0.00  0.00    +0.016 C 
ATOM     33  C   UNL     1      33.765 -15.662 -23.868  0.00  0.00    +0.143 C 
ATOM     34  C   UNL     1      33.582 -16.917 -24.451  0.00  0.00    +0.025 C 
ATOM     35  C   UNL     1      34.273 -15.563 -22.572  0.00  0.00    +0.025 C 
BRANCH  33  38
ATOM     36  O   UNL     1      33.197 -14.577 -25.822  0.00  0.00    -0.126 OA
ATOM     37  O   UNL     1      33.390 -13.390 -23.986  0.00  0.00    -0.126 OA
ATOM     38  N   UNL     1      33.436 -14.487 -24.594  0.00  0.00    +0.058 N 
ENDBRANCH  33  38
ENDBRANCH  27  30
ENDBRANCH  25  28
ENDBRANCH  22  25
ENDBRANCH   1  23
TORSDOF 11
ENDMDL
