MODEL 1
REMARK VINA RESULT:     -13.4      0.000      0.000
REMARK  Name = 24812719
REMARK  3 active torsions:
REMARK  status: ('A' for Active; 'I' for Inactive)
REMARK    1  A    between atoms: N_2  and  C_22
REMARK    2  A    between atoms: C_3  and  C_12
REMARK    3  A    between atoms: C_25  and  C_31
REMARK                            x       y       z     vdW  Elec       q    Type
REMARK                         _______ _______ _______ _____ _____    ______ ____
ROOT
ATOM      1  O   UNL     1      33.981 -15.064 -20.963  0.00  0.00    -0.269 OA
ATOM      2  N   UNL     1      34.299 -16.599 -22.721  0.00  0.00    -0.233 N 
ATOM      3  C   UNL     1      33.315 -14.334 -23.101  0.00  0.00    +0.046 C 
ATOM      4  C   UNL     1      33.290 -14.575 -24.428  0.00  0.00    -0.016 C 
ATOM      5  C   UNL     1      33.881 -15.371 -22.152  0.00  0.00    +0.256 C 
ATOM      6  C   UNL     1      34.255 -16.770 -24.100  0.00  0.00    +0.072 C 
ATOM      7  C   UNL     1      33.791 -15.833 -24.930  0.00  0.00    +0.012 C 
ATOM      8  C   UNL     1      32.768 -13.645 -25.490  0.00  0.00    +0.031 C 
ENDROOT
BRANCH   3  12
ATOM      9  N   UNL     1      31.393  -9.499 -20.916  0.00  0.00    -0.342 NA
ATOM     10  N   UNL     1      32.413  -8.248 -22.704  0.00  0.00    -0.170 NA
ATOM     11  N   UNL     1      31.207  -7.162 -21.014  0.00  0.00    -0.293 N 
ATOM     12  C   UNL     1      32.816 -13.067 -22.535  0.00  0.00    -0.017 C 
ATOM     13  C   UNL     1      33.095 -11.859 -23.167  0.00  0.00    +0.056 C 
ATOM     14  C   UNL     1      32.063 -13.071 -21.366  0.00  0.00    -0.022 C 
ATOM     15  C   UNL     1      32.617 -10.655 -22.624  0.00  0.00    +0.029 C 
ATOM     16  C   UNL     1      31.855 -10.646 -21.444  0.00  0.00    +0.124 C 
ATOM     17  C   UNL     1      31.591 -11.869 -20.832  0.00  0.00    +0.085 C 
ATOM     18  C   UNL     1      32.860  -9.414 -23.207  0.00  0.00    +0.110 C 
ATOM     19  C   UNL     1      31.697  -8.363 -21.575  0.00  0.00    +0.141 C 
ATOM     20  H   UNL     1      30.675  -7.187 -20.187  0.00  0.00    +0.155 HD
ATOM     21  H   UNL     1      31.397  -6.301 -21.453  0.00  0.00    +0.155 HD
ENDBRANCH   3  12
BRANCH   2  22
ATOM     22  C   UNL     1      34.796 -17.661 -21.866  0.00  0.00    +0.058 C 
ATOM     23  C   UNL     1      33.914 -18.603 -21.341  0.00  0.00    +0.019 C 
ATOM     24  C   UNL     1      36.156 -17.736 -21.568  0.00  0.00    +0.015 C 
ATOM     25  C   UNL     1      34.391 -19.623 -20.519  0.00  0.00    +0.073 C 
ATOM     26  C   UNL     1      36.634 -18.756 -20.745  0.00  0.00    +0.001 C 
ATOM     27  C   UNL     1      35.751 -19.700 -20.220  0.00  0.00    +0.004 C 
BRANCH  25  31
ATOM     28  F   UNL     1      33.214 -20.477 -18.618  0.00  0.00    -0.166 F 
ATOM     29  F   UNL     1      32.211 -20.609 -20.537  0.00  0.00    -0.166 F 
ATOM     30  F   UNL     1      33.897 -21.912 -20.103  0.00  0.00    -0.166 F 
ATOM     31  C   UNL     1      33.447 -20.632 -19.955  0.00  0.00    +0.419 C 
ENDBRANCH  25  31
ENDBRANCH   2  22
TORSDOF 3
ENDMDL
MODEL 2
REMARK VINA RESULT:     -12.9      2.894      5.098
REMARK  Name = 24812719
REMARK  3 active torsions:
REMARK  status: ('A' for Active; 'I' for Inactive)
REMARK    1  A    between atoms: N_2  and  C_22
REMARK    2  A    between atoms: C_3  and  C_12
REMARK    3  A    between atoms: C_25  and  C_31
REMARK                            x       y       z     vdW  Elec       q    Type
REMARK                         _______ _______ _______ _____ _____    ______ ____
ROOT
ATOM      1  O   UNL     1      32.639 -11.176 -23.936  0.00  0.00    -0.269 OA
ATOM      2  N   UNL     1      32.496 -12.617 -22.079  0.00  0.00    -0.233 N 
ATOM      3  C   UNL     1      31.842 -10.210 -21.942  0.00  0.00    +0.046 C 
ATOM      4  C   UNL     1      31.435 -10.400 -20.670  0.00  0.00    -0.016 C 
ATOM      5  C   UNL     1      32.380 -11.375 -22.748  0.00  0.00    +0.256 C 
ATOM      6  C   UNL     1      32.044 -12.740 -20.770  0.00  0.00    +0.072 C 
ATOM      7  C   UNL     1      31.533 -11.716 -20.082  0.00  0.00    +0.012 C 
ATOM      8  C   UNL     1      30.875  -9.348 -19.750  0.00  0.00    +0.031 C 
ENDROOT
BRANCH   3  12
ATOM      9  N   UNL     1      31.514  -5.155 -24.430  0.00  0.00    -0.342 NA
ATOM     10  N   UNL     1      33.863  -4.780 -24.049  0.00  0.00    -0.170 NA
ATOM     11  N   UNL     1      32.549  -3.170 -25.132  0.00  0.00    -0.293 N 
ATOM     12  C   UNL     1      31.763  -8.887 -22.590  0.00  0.00    -0.017 C 
ATOM     13  C   UNL     1      32.899  -8.092 -22.699  0.00  0.00    +0.056 C 
ATOM     14  C   UNL     1      30.553  -8.428 -23.097  0.00  0.00    -0.022 C 
ATOM     15  C   UNL     1      32.819  -6.833 -23.319  0.00  0.00    +0.029 C 
ATOM     16  C   UNL     1      31.602  -6.358 -23.835  0.00  0.00    +0.124 C 
ATOM     17  C   UNL     1      30.481  -7.175 -23.713  0.00  0.00    +0.085 C 
ATOM     18  C   UNL     1      33.917  -5.989 -23.460  0.00  0.00    +0.110 C 
ATOM     19  C   UNL     1      32.649  -4.432 -24.504  0.00  0.00    +0.141 C 
ATOM     20  H   UNL     1      31.683  -2.864 -25.485  0.00  0.00    +0.155 HD
ATOM     21  H   UNL     1      33.346  -2.598 -25.216  0.00  0.00    +0.155 HD
ENDBRANCH   3  12
BRANCH   2  22
ATOM     22  C   UNL     1      33.059 -13.762 -22.771  0.00  0.00    +0.058 C 
ATOM     23  C   UNL     1      33.681 -14.777 -22.046  0.00  0.00    +0.019 C 
ATOM     24  C   UNL     1      32.981 -13.844 -24.161  0.00  0.00    +0.015 C 
ATOM     25  C   UNL     1      34.224 -15.877 -22.710  0.00  0.00    +0.073 C 
ATOM     26  C   UNL     1      33.523 -14.944 -24.826  0.00  0.00    +0.001 C 
ATOM     27  C   UNL     1      34.145 -15.960 -24.101  0.00  0.00    +0.004 C 
BRANCH  25  31
ATOM     28  F   UNL     1      36.169 -17.221 -22.343  0.00  0.00    -0.166 F 
ATOM     29  F   UNL     1      34.989 -16.700 -20.599  0.00  0.00    -0.166 F 
ATOM     30  F   UNL     1      34.230 -18.154 -22.026  0.00  0.00    -0.166 F 
ATOM     31  C   UNL     1      34.891 -16.963 -21.936  0.00  0.00    +0.419 C 
ENDBRANCH  25  31
ENDBRANCH   2  22
TORSDOF 3
ENDMDL
MODEL 3
REMARK VINA RESULT:     -12.4      0.666      1.621
REMARK  Name = 24812719
REMARK  3 active torsions:
REMARK  status: ('A' for Active; 'I' for Inactive)
REMARK    1  A    between atoms: N_2  and  C_22
REMARK    2  A    between atoms: C_3  and  C_12
REMARK    3  A    between atoms: C_25  and  C_31
REMARK                            x       y       z     vdW  Elec       q    Type
REMARK                         _______ _______ _______ _____ _____    ______ ____
ROOT
ATOM      1  O   UNL     1      34.199 -15.100 -21.213  0.00  0.00    -0.269 OA
ATOM      2  N   UNL     1      34.275 -16.833 -22.806  0.00  0.00    -0.233 N 
ATOM      3  C   UNL     1      33.454 -14.543 -23.378  0.00  0.00    +0.046 C 
ATOM      4  C   UNL     1      33.323 -14.919 -24.666  0.00  0.00    -0.016 C 
ATOM      5  C   UNL     1      33.996 -15.520 -22.354  0.00  0.00    +0.256 C 
ATOM      6  C   UNL     1      34.126 -17.143 -24.154  0.00  0.00    +0.072 C 
ATOM      7  C   UNL     1      33.686 -16.261 -25.055  0.00  0.00    +0.012 C 
ATOM      8  C   UNL     1      32.809 -14.063 -25.793  0.00  0.00    +0.031 C 
ENDROOT
BRANCH   3  12
ATOM      9  N   UNL     1      32.106  -9.334 -21.676  0.00  0.00    -0.342 NA
ATOM     10  N   UNL     1      31.120 -10.212 -19.661  0.00  0.00    -0.170 NA
ATOM     11  N   UNL     1      31.144  -7.908 -20.081  0.00  0.00    -0.293 N 
ATOM     12  C   UNL     1      33.098 -13.185 -22.927  0.00  0.00    -0.017 C 
ATOM     13  C   UNL     1      32.443 -12.998 -21.714  0.00  0.00    +0.056 C 
ATOM     14  C   UNL     1      33.417 -12.082 -23.712  0.00  0.00    -0.022 C 
ATOM     15  C   UNL     1      32.108 -11.701 -21.290  0.00  0.00    +0.029 C 
ATOM     16  C   UNL     1      32.423 -10.579 -22.073  0.00  0.00    +0.124 C 
ATOM     17  C   UNL     1      33.079 -10.795 -23.282  0.00  0.00    +0.085 C 
ATOM     18  C   UNL     1      31.452 -11.445 -20.088  0.00  0.00    +0.110 C 
ATOM     19  C   UNL     1      31.472  -9.219 -20.492  0.00  0.00    +0.141 C 
ATOM     20  H   UNL     1      31.378  -7.141 -20.651  0.00  0.00    +0.155 HD
ATOM     21  H   UNL     1      30.681  -7.762 -19.225  0.00  0.00    +0.155 HD
ENDBRANCH   3  12
BRANCH   2  22
ATOM     22  C   UNL     1      34.739 -17.838 -21.869  0.00  0.00    +0.058 C 
ATOM     23  C   UNL     1      33.844 -18.770 -21.345  0.00  0.00    +0.019 C 
ATOM     24  C   UNL     1      36.081 -17.871 -21.491  0.00  0.00    +0.015 C 
ATOM     25  C   UNL     1      34.290 -19.735 -20.444  0.00  0.00    +0.073 C 
ATOM     26  C   UNL     1      36.528 -18.838 -20.590  0.00  0.00    +0.001 C 
ATOM     27  C   UNL     1      35.632 -19.769 -20.065  0.00  0.00    +0.004 C 
BRANCH  25  31
ATOM     28  F   UNL     1      33.767 -22.023 -19.977  0.00  0.00    -0.166 F 
ATOM     29  F   UNL     1      33.064 -20.543 -18.555  0.00  0.00    -0.166 F 
ATOM     30  F   UNL     1      32.120 -20.705 -20.507  0.00  0.00    -0.166 F 
ATOM     31  C   UNL     1      33.333 -20.731 -19.882  0.00  0.00    +0.419 C 
ENDBRANCH  25  31
ENDBRANCH   2  22
TORSDOF 3
ENDMDL
MODEL 4
REMARK VINA RESULT:     -12.2      3.935      8.586
REMARK  Name = 24812719
REMARK  3 active torsions:
REMARK  status: ('A' for Active; 'I' for Inactive)
REMARK    1  A    between atoms: N_2  and  C_22
REMARK    2  A    between atoms: C_3  and  C_12
REMARK    3  A    between atoms: C_25  and  C_31
REMARK                            x       y       z     vdW  Elec       q    Type
REMARK                         _______ _______ _______ _____ _____    ______ ____
ROOT
ATOM      1  O   UNL     1      34.067 -15.284 -21.411  0.00  0.00    -0.269 OA
ATOM      2  N   UNL     1      33.374 -14.813 -23.612  0.00  0.00    -0.233 N 
ATOM      3  C   UNL     1      34.127 -17.093 -22.919  0.00  0.00    +0.046 C 
ATOM      4  C   UNL     1      33.820 -17.560 -24.146  0.00  0.00    -0.016 C 
ATOM      5  C   UNL     1      33.870 -15.639 -22.574  0.00  0.00    +0.256 C 
ATOM      6  C   UNL     1      33.069 -15.370 -24.849  0.00  0.00    +0.072 C 
ATOM      7  C   UNL     1      33.262 -16.661 -25.129  0.00  0.00    +0.012 C 
ATOM      8  C   UNL     1      34.010 -18.972 -24.632  0.00  0.00    +0.031 C 
ENDROOT
BRANCH   3  12
ATOM      9  N   UNL     1      36.340 -20.429 -18.941  0.00  0.00    -0.342 NA
ATOM     10  N   UNL     1      34.212 -21.514 -18.622  0.00  0.00    -0.170 NA
ATOM     11  N   UNL     1      36.086 -22.152 -17.368  0.00  0.00    -0.293 N 
ATOM     12  C   UNL     1      34.699 -17.967 -21.878  0.00  0.00    -0.017 C 
ATOM     13  C   UNL     1      33.900 -18.912 -21.240  0.00  0.00    +0.056 C 
ATOM     14  C   UNL     1      36.040 -17.854 -21.528  0.00  0.00    -0.022 C 
ATOM     15  C   UNL     1      34.451 -19.743 -20.250  0.00  0.00    +0.029 C 
ATOM     16  C   UNL     1      35.804 -19.639 -19.888  0.00  0.00    +0.124 C 
ATOM     17  C   UNL     1      36.579 -18.685 -20.542  0.00  0.00    +0.085 C 
ATOM     18  C   UNL     1      33.707 -20.707 -19.574  0.00  0.00    +0.110 C 
ATOM     19  C   UNL     1      35.515 -21.323 -18.361  0.00  0.00    +0.141 C 
ATOM     20  H   UNL     1      37.037 -22.056 -17.136  0.00  0.00    +0.155 HD
ATOM     21  H   UNL     1      35.532 -22.824 -16.910  0.00  0.00    +0.155 HD
ENDBRANCH   3  12
BRANCH   2  22
ATOM     22  C   UNL     1      33.161 -13.398 -23.372  0.00  0.00    +0.058 C 
ATOM     23  C   UNL     1      32.415 -12.983 -22.270  0.00  0.00    +0.019 C 
ATOM     24  C   UNL     1      33.701 -12.455 -24.245  0.00  0.00    +0.015 C 
ATOM     25  C   UNL     1      32.209 -11.623 -22.040  0.00  0.00    +0.073 C 
ATOM     26  C   UNL     1      33.496 -11.094 -24.015  0.00  0.00    +0.001 C 
ATOM     27  C   UNL     1      32.749 -10.678 -22.913  0.00  0.00    +0.004 C 
BRANCH  25  31
ATOM     28  F   UNL     1      31.731  -9.924 -20.425  0.00  0.00    -0.166 F 
ATOM     29  F   UNL     1      30.065 -11.138 -21.098  0.00  0.00    -0.166 F 
ATOM     30  F   UNL     1      31.567 -11.995 -19.781  0.00  0.00    -0.166 F 
ATOM     31  C   UNL     1      31.410 -11.177 -20.862  0.00  0.00    +0.419 C 
ENDBRANCH  25  31
ENDBRANCH   2  22
TORSDOF 3
ENDMDL
MODEL 5
REMARK VINA RESULT:     -11.6      6.475     11.388
REMARK  Name = 24812719
REMARK  3 active torsions:
REMARK  status: ('A' for Active; 'I' for Inactive)
REMARK    1  A    between atoms: N_2  and  C_22
REMARK    2  A    between atoms: C_3  and  C_12
REMARK    3  A    between atoms: C_25  and  C_31
REMARK                            x       y       z     vdW  Elec       q    Type
REMARK                         _______ _______ _______ _____ _____    ______ ____
ROOT
ATOM      1  O   UNL     1      36.189 -20.626 -18.445  0.00  0.00    -0.269 OA
ATOM      2  N   UNL     1      34.141 -20.466 -19.597  0.00  0.00    -0.233 N 
ATOM      3  C   UNL     1      34.393 -21.844 -17.528  0.00  0.00    +0.046 C 
ATOM      4  C   UNL     1      33.073 -22.118 -17.558  0.00  0.00    -0.016 C 
ATOM      5  C   UNL     1      35.003 -20.933 -18.575  0.00  0.00    +0.256 C 
ATOM      6  C   UNL     1      32.788 -20.782 -19.555  0.00  0.00    +0.072 C 
ATOM      7  C   UNL     1      32.254 -21.552 -18.604  0.00  0.00    +0.012 C 
ATOM      8  C   UNL     1      32.326 -22.994 -16.588  0.00  0.00    +0.031 C 
ENDROOT
BRANCH   3  12
ATOM      9  N   UNL     1      37.784 -23.930 -13.528  0.00  0.00    -0.342 NA
ATOM     10  N   UNL     1      36.528 -25.985 -13.490  0.00  0.00    -0.170 NA
ATOM     11  N   UNL     1      38.378 -25.682 -12.085  0.00  0.00    -0.293 N 
ATOM     12  C   UNL     1      35.275 -22.395 -16.482  0.00  0.00    -0.017 C 
ATOM     13  C   UNL     1      35.054 -23.674 -15.982  0.00  0.00    +0.056 C 
ATOM     14  C   UNL     1      36.334 -21.639 -15.990  0.00  0.00    -0.022 C 
ATOM     15  C   UNL     1      35.899 -24.195 -14.986  0.00  0.00    +0.029 C 
ATOM     16  C   UNL     1      36.971 -23.441 -14.481  0.00  0.00    +0.124 C 
ATOM     17  C   UNL     1      37.169 -22.164 -15.000  0.00  0.00    +0.085 C 
ATOM     18  C   UNL     1      35.732 -25.466 -14.444  0.00  0.00    +0.110 C 
ATOM     19  C   UNL     1      37.518 -25.175 -13.085  0.00  0.00    +0.141 C 
ATOM     20  H   UNL     1      39.121 -25.131 -11.751  0.00  0.00    +0.155 HD
ATOM     21  H   UNL     1      38.232 -26.586 -11.723  0.00  0.00    +0.155 HD
ENDBRANCH   3  12
BRANCH   2  22
ATOM     22  C   UNL     1      34.668 -19.640 -20.667  0.00  0.00    +0.058 C 
ATOM     23  C   UNL     1      33.938 -19.472 -21.843  0.00  0.00    +0.019 C 
ATOM     24  C   UNL     1      35.907 -19.016 -20.520  0.00  0.00    +0.015 C 
ATOM     25  C   UNL     1      34.445 -18.679 -22.871  0.00  0.00    +0.073 C 
ATOM     26  C   UNL     1      36.414 -18.222 -21.548  0.00  0.00    +0.001 C 
ATOM     27  C   UNL     1      35.684 -18.054 -22.725  0.00  0.00    +0.004 C 
BRANCH  25  31
ATOM     28  F   UNL     1      32.313 -18.573 -23.952  0.00  0.00    -0.166 F 
ATOM     29  F   UNL     1      33.879 -17.295 -24.738  0.00  0.00    -0.166 F 
ATOM     30  F   UNL     1      33.963 -19.442 -25.071  0.00  0.00    -0.166 F 
ATOM     31  C   UNL     1      33.665 -18.499 -24.130  0.00  0.00    +0.419 C 
ENDBRANCH  25  31
ENDBRANCH   2  22
TORSDOF 3
ENDMDL
MODEL 6
REMARK VINA RESULT:     -11.6      7.125     10.806
REMARK  Name = 24812719
REMARK  3 active torsions:
REMARK  status: ('A' for Active; 'I' for Inactive)
REMARK    1  A    between atoms: N_2  and  C_22
REMARK    2  A    between atoms: C_3  and  C_12
REMARK    3  A    between atoms: C_25  and  C_31
REMARK                            x       y       z     vdW  Elec       q    Type
REMARK                         _______ _______ _______ _____ _____    ______ ____
ROOT
ATOM      1  O   UNL     1      35.873 -22.968 -16.261  0.00  0.00    -0.269 OA
ATOM      2  N   UNL     1      34.774 -23.921 -14.409  0.00  0.00    -0.233 N 
ATOM      3  C   UNL     1      33.526 -22.771 -16.243  0.00  0.00    +0.046 C 
ATOM      4  C   UNL     1      32.361 -23.115 -15.657  0.00  0.00    -0.016 C 
ATOM      5  C   UNL     1      34.841 -23.213 -15.634  0.00  0.00    +0.256 C 
ATOM      6  C   UNL     1      33.535 -24.249 -13.870  0.00  0.00    +0.072 C 
ATOM      7  C   UNL     1      32.381 -23.889 -14.438  0.00  0.00    +0.012 C 
ATOM      8  C   UNL     1      30.982 -22.758 -16.144  0.00  0.00    +0.031 C 
ENDROOT
BRANCH   3  12
ATOM      9  N   UNL     1      33.639 -19.755 -21.011  0.00  0.00    -0.342 NA
ATOM     10  N   UNL     1      36.032 -19.525 -20.847  0.00  0.00    -0.170 NA
ATOM     11  N   UNL     1      34.852 -18.568 -22.631  0.00  0.00    -0.293 N 
ATOM     12  C   UNL     1      33.562 -21.982 -17.488  0.00  0.00    -0.017 C 
ATOM     13  C   UNL     1      34.773 -21.504 -17.979  0.00  0.00    +0.056 C 
ATOM     14  C   UNL     1      32.387 -21.711 -18.180  0.00  0.00    -0.022 C 
ATOM     15  C   UNL     1      34.802 -20.753 -19.167  0.00  0.00    +0.029 C 
ATOM     16  C   UNL     1      33.622 -20.473 -19.874  0.00  0.00    +0.124 C 
ATOM     17  C   UNL     1      32.424 -20.963 -19.360  0.00  0.00    +0.085 C 
ATOM     18  C   UNL     1      35.980 -20.246 -19.712  0.00  0.00    +0.110 C 
ATOM     19  C   UNL     1      34.843 -19.320 -21.435  0.00  0.00    +0.141 C 
ATOM     20  H   UNL     1      34.009 -18.388 -23.105  0.00  0.00    +0.155 HD
ATOM     21  H   UNL     1      35.703 -18.225 -22.990  0.00  0.00    +0.155 HD
ENDBRANCH   3  12
BRANCH   2  22
ATOM     22  C   UNL     1      35.995 -24.323 -13.737  0.00  0.00    +0.058 C 
ATOM     23  C   UNL     1      37.173 -24.478 -14.465  0.00  0.00    +0.019 C 
ATOM     24  C   UNL     1      35.989 -24.557 -12.362  0.00  0.00    +0.015 C 
ATOM     25  C   UNL     1      38.347 -24.865 -13.820  0.00  0.00    +0.073 C 
ATOM     26  C   UNL     1      37.163 -24.944 -11.716  0.00  0.00    +0.001 C 
ATOM     27  C   UNL     1      38.342 -25.100 -12.445  0.00  0.00    +0.004 C 
BRANCH  25  31
ATOM     28  F   UNL     1      40.269 -26.197 -14.327  0.00  0.00    -0.166 F 
ATOM     29  F   UNL     1      39.418 -25.039 -15.952  0.00  0.00    -0.166 F 
ATOM     30  F   UNL     1      40.508 -24.035 -14.361  0.00  0.00    -0.166 F 
ATOM     31  C   UNL     1      39.608 -25.033 -14.599  0.00  0.00    +0.419 C 
ENDBRANCH  25  31
ENDBRANCH   2  22
TORSDOF 3
ENDMDL
MODEL 7
REMARK VINA RESULT:     -11.3      3.668      6.055
REMARK  Name = 24812719
REMARK  3 active torsions:
REMARK  status: ('A' for Active; 'I' for Inactive)
REMARK    1  A    between atoms: N_2  and  C_22
REMARK    2  A    between atoms: C_3  and  C_12
REMARK    3  A    between atoms: C_25  and  C_31
REMARK                            x       y       z     vdW  Elec       q    Type
REMARK                         _______ _______ _______ _____ _____    ______ ____
ROOT
ATOM      1  O   UNL     1      32.782 -10.830 -23.537  0.00  0.00    -0.269 OA
ATOM      2  N   UNL     1      32.423 -11.760 -21.403  0.00  0.00    -0.233 N 
ATOM      3  C   UNL     1      31.854  -9.384 -21.925  0.00  0.00    +0.046 C 
ATOM      4  C   UNL     1      31.332  -9.245 -20.690  0.00  0.00    -0.016 C 
ATOM      5  C   UNL     1      32.414 -10.722 -22.366  0.00  0.00    +0.256 C 
ATOM      6  C   UNL     1      31.856 -11.545 -20.152  0.00  0.00    +0.072 C 
ATOM      7  C   UNL     1      31.328 -10.374 -19.789  0.00  0.00    +0.012 C 
ATOM      8  C   UNL     1      30.735  -7.988 -20.114  0.00  0.00    +0.031 C 
ENDROOT
BRANCH   3  12
ATOM      9  N   UNL     1      31.940  -5.108 -25.607  0.00  0.00    -0.342 NA
ATOM     10  N   UNL     1      34.101  -4.414 -24.799  0.00  0.00    -0.170 NA
ATOM     11  N   UNL     1      33.031  -3.244 -26.524  0.00  0.00    -0.293 N 
ATOM     12  C   UNL     1      31.883  -8.264 -22.885  0.00  0.00    -0.017 C 
ATOM     13  C   UNL     1      32.974  -7.402 -22.923  0.00  0.00    +0.056 C 
ATOM     14  C   UNL     1      30.819  -8.063 -23.757  0.00  0.00    -0.022 C 
ATOM     15  C   UNL     1      32.997  -6.338 -23.840  0.00  0.00    +0.029 C 
ATOM     16  C   UNL     1      31.929  -6.124 -24.726  0.00  0.00    +0.124 C 
ATOM     17  C   UNL     1      30.849  -7.002 -24.666  0.00  0.00    +0.085 C 
ATOM     18  C   UNL     1      34.058  -5.440 -23.929  0.00  0.00    +0.110 C 
ATOM     19  C   UNL     1      33.026  -4.309 -25.595  0.00  0.00    +0.141 C 
ATOM     20  H   UNL     1      32.269  -3.120 -27.134  0.00  0.00    +0.155 HD
ATOM     21  H   UNL     1      33.798  -2.628 -26.562  0.00  0.00    +0.155 HD
ENDBRANCH   3  12
BRANCH   2  22
ATOM     22  C   UNL     1      32.999 -13.050 -21.735  0.00  0.00    +0.058 C 
ATOM     23  C   UNL     1      32.965 -13.512 -23.050  0.00  0.00    +0.019 C 
ATOM     24  C   UNL     1      33.586 -13.828 -20.737  0.00  0.00    +0.015 C 
ATOM     25  C   UNL     1      33.517 -14.752 -23.368  0.00  0.00    +0.073 C 
ATOM     26  C   UNL     1      34.139 -15.069 -21.056  0.00  0.00    +0.001 C 
ATOM     27  C   UNL     1      34.104 -15.531 -22.371  0.00  0.00    +0.004 C 
BRANCH  25  31
ATOM     28  F   UNL     1      34.695 -15.655 -25.245  0.00  0.00    -0.166 F 
ATOM     29  F   UNL     1      32.651 -16.318 -24.955  0.00  0.00    -0.166 F 
ATOM     30  F   UNL     1      33.046 -14.298 -25.654  0.00  0.00    -0.166 F 
ATOM     31  C   UNL     1      33.480 -15.247 -24.775  0.00  0.00    +0.419 C 
ENDBRANCH  25  31
ENDBRANCH   2  22
TORSDOF 3
ENDMDL
MODEL 8
REMARK VINA RESULT:     -11.2      4.557      9.197
REMARK  Name = 24812719
REMARK  3 active torsions:
REMARK  status: ('A' for Active; 'I' for Inactive)
REMARK    1  A    between atoms: N_2  and  C_22
REMARK    2  A    between atoms: C_3  and  C_12
REMARK    3  A    between atoms: C_25  and  C_31
REMARK                            x       y       z     vdW  Elec       q    Type
REMARK                         _______ _______ _______ _____ _____    ______ ____
ROOT
ATOM      1  O   UNL     1      33.983 -16.776 -20.287  0.00  0.00    -0.269 OA
ATOM      2  N   UNL     1      34.068 -16.116 -22.546  0.00  0.00    -0.233 N 
ATOM      3  C   UNL     1      34.405 -18.491 -21.846  0.00  0.00    +0.046 C 
ATOM      4  C   UNL     1      34.478 -18.856 -23.142  0.00  0.00    -0.016 C 
ATOM      5  C   UNL     1      34.148 -17.043 -21.478  0.00  0.00    +0.256 C 
ATOM      6  C   UNL     1      34.140 -16.569 -23.858  0.00  0.00    +0.072 C 
ATOM      7  C   UNL     1      34.326 -17.854 -24.171  0.00  0.00    +0.012 C 
ATOM      8  C   UNL     1      34.720 -20.248 -23.661  0.00  0.00    +0.031 C 
ENDROOT
BRANCH   3  12
ATOM      9  N   UNL     1      34.996 -22.249 -17.678  0.00  0.00    -0.342 NA
ATOM     10  N   UNL     1      32.604 -22.486 -17.508  0.00  0.00    -0.170 NA
ATOM     11  N   UNL     1      34.034 -23.707 -16.110  0.00  0.00    -0.293 N 
ATOM     12  C   UNL     1      34.552 -19.473 -20.755  0.00  0.00    -0.017 C 
ATOM     13  C   UNL     1      33.426 -20.044 -20.169  0.00  0.00    +0.056 C 
ATOM     14  C   UNL     1      35.817 -19.836 -20.307  0.00  0.00    -0.022 C 
ATOM     15  C   UNL     1      33.573 -20.980 -19.132  0.00  0.00    +0.029 C 
ATOM     16  C   UNL     1      34.845 -21.355 -18.670  0.00  0.00    +0.124 C 
ATOM     17  C   UNL     1      35.954 -20.768 -19.274  0.00  0.00    +0.085 C 
ATOM     18  C   UNL     1      32.488 -21.587 -18.504  0.00  0.00    +0.110 C 
ATOM     19  C   UNL     1      33.867 -22.766 -17.151  0.00  0.00    +0.141 C 
ATOM     20  H   UNL     1      34.938 -23.950 -15.807  0.00  0.00    +0.155 HD
ATOM     21  H   UNL     1      33.246 -24.118 -15.688  0.00  0.00    +0.155 HD
ENDBRANCH   3  12
BRANCH   2  22
ATOM     22  C   UNL     1      33.883 -14.705 -22.266  0.00  0.00    +0.058 C 
ATOM     23  C   UNL     1      33.610 -13.818 -23.306  0.00  0.00    +0.019 C 
ATOM     24  C   UNL     1      33.983 -14.235 -20.957  0.00  0.00    +0.015 C 
ATOM     25  C   UNL     1      33.434 -12.461 -23.038  0.00  0.00    +0.073 C 
ATOM     26  C   UNL     1      33.806 -12.877 -20.688  0.00  0.00    +0.001 C 
ATOM     27  C   UNL     1      33.533 -11.990 -21.729  0.00  0.00    +0.004 C 
BRANCH  25  31
ATOM     28  F   UNL     1      32.173 -10.596 -23.850  0.00  0.00    -0.166 F 
ATOM     29  F   UNL     1      34.224 -10.771 -24.536  0.00  0.00    -0.166 F 
ATOM     30  F   UNL     1      32.711 -12.143 -25.281  0.00  0.00    -0.166 F 
ATOM     31  C   UNL     1      33.142 -11.511 -24.151  0.00  0.00    +0.419 C 
ENDBRANCH  25  31
ENDBRANCH   2  22
TORSDOF 3
ENDMDL
MODEL 9
REMARK VINA RESULT:     -11.1      5.718     10.953
REMARK  Name = 24812719
REMARK  3 active torsions:
REMARK  status: ('A' for Active; 'I' for Inactive)
REMARK    1  A    between atoms: N_2  and  C_22
REMARK    2  A    between atoms: C_3  and  C_12
REMARK    3  A    between atoms: C_25  and  C_31
REMARK                            x       y       z     vdW  Elec       q    Type
REMARK                         _______ _______ _______ _____ _____    ______ ____
ROOT
ATOM      1  O   UNL     1      35.870 -20.177 -19.181  0.00  0.00    -0.269 OA
ATOM      2  N   UNL     1      33.727 -20.081 -20.152  0.00  0.00    -0.233 N 
ATOM      3  C   UNL     1      34.196 -21.439 -18.108  0.00  0.00    +0.046 C 
ATOM      4  C   UNL     1      32.886 -21.751 -18.023  0.00  0.00    -0.016 C 
ATOM      5  C   UNL     1      34.687 -20.518 -19.207  0.00  0.00    +0.256 C 
ATOM      6  C   UNL     1      32.392 -20.435 -19.993  0.00  0.00    +0.072 C 
ATOM      7  C   UNL     1      31.964 -21.214 -18.996  0.00  0.00    +0.012 C 
ATOM      8  C   UNL     1      32.251 -22.642 -16.990  0.00  0.00    +0.031 C 
ENDROOT
BRANCH   3  12
ATOM      9  N   UNL     1      37.981 -23.414 -14.418  0.00  0.00    -0.342 NA
ATOM     10  N   UNL     1      36.338 -24.908 -13.483  0.00  0.00    -0.170 NA
ATOM     11  N   UNL     1      38.525 -24.852 -12.645  0.00  0.00    -0.293 N 
ATOM     12  C   UNL     1      35.180 -21.959 -17.140  0.00  0.00    -0.017 C 
ATOM     13  C   UNL     1      34.813 -22.944 -16.229  0.00  0.00    +0.056 C 
ATOM     14  C   UNL     1      36.481 -21.468 -17.134  0.00  0.00    -0.022 C 
ATOM     15  C   UNL     1      35.755 -23.437 -15.310  0.00  0.00    +0.029 C 
ATOM     16  C   UNL     1      37.072 -22.950 -15.293  0.00  0.00    +0.124 C 
ATOM     17  C   UNL     1      37.412 -21.964 -16.216  0.00  0.00    +0.085 C 
ATOM     18  C   UNL     1      35.453 -24.421 -14.373  0.00  0.00    +0.110 C 
ATOM     19  C   UNL     1      37.564 -24.368 -13.561  0.00  0.00    +0.141 C 
ATOM     20  H   UNL     1      39.441 -24.491 -12.657  0.00  0.00    +0.155 HD
ATOM     21  H   UNL     1      38.278 -25.549 -11.996  0.00  0.00    +0.155 HD
ENDBRANCH   3  12
BRANCH   2  22
ATOM     22  C   UNL     1      34.136 -19.247 -21.266  0.00  0.00    +0.058 C 
ATOM     23  C   UNL     1      34.024 -17.860 -21.177  0.00  0.00    +0.019 C 
ATOM     24  C   UNL     1      34.640 -19.832 -22.428  0.00  0.00    +0.015 C 
ATOM     25  C   UNL     1      34.416 -17.058 -22.248  0.00  0.00    +0.073 C 
ATOM     26  C   UNL     1      35.032 -19.030 -23.499  0.00  0.00    +0.001 C 
ATOM     27  C   UNL     1      34.920 -17.642 -23.410  0.00  0.00    +0.004 C 
BRANCH  25  31
ATOM     28  F   UNL     1      35.145 -14.901 -22.984  0.00  0.00    -0.166 F 
ATOM     29  F   UNL     1      33.049 -15.107 -22.465  0.00  0.00    -0.166 F 
ATOM     30  F   UNL     1      34.558 -15.105 -20.899  0.00  0.00    -0.166 F 
ATOM     31  C   UNL     1      34.295 -15.574 -22.153  0.00  0.00    +0.419 C 
ENDBRANCH  25  31
ENDBRANCH   2  22
TORSDOF 3
ENDMDL
