MODEL 1
REMARK VINA RESULT:     -11.3      0.000      0.000
REMARK  Name = 448953
REMARK  10 active torsions:
REMARK  status: ('A' for Active; 'I' for Inactive)
REMARK    1  A    between atoms: C_1  and  C_9
REMARK    2  A    between atoms: C_1  and  N_11
REMARK    3  A    between atoms: C_1  and  C_26
REMARK    4  A    between atoms: C_12  and  C_14
REMARK    5  A    between atoms: C_14  and  N_15
REMARK    6  A    between atoms: N_15  and  S_17
REMARK    7  A    between atoms: S_17  and  C_20
REMARK    8  A    between atoms: C_26  and  C_27
REMARK    9  A    between atoms: C_27  and  N_28
REMARK   10  A    between atoms: N_28  and  C_31
REMARK                            x       y       z     vdW  Elec       q    Type
REMARK                         _______ _______ _______ _____ _____    ______ ____
ROOT
ATOM      1  C   UNL     1      35.091 -22.479 -16.833  0.00  0.00    +0.150 C 
ENDROOT
BRANCH   1   9
ATOM      2  O   UNL     1      36.783 -21.400 -15.574  0.00  0.00    -0.273 OA
ATOM      3  N   UNL     1      36.124 -23.503 -14.837  0.00  0.00    -0.278 N 
ATOM      4  C   UNL     1      37.058 -23.506 -13.708  0.00  0.00    +0.093 C 
ATOM      5  C   UNL     1      35.266 -24.691 -14.929  0.00  0.00    +0.093 C 
ATOM      6  C   UNL     1      37.933 -24.757 -13.728  0.00  0.00    +0.022 C 
ATOM      7  C   UNL     1      36.107 -25.965 -14.971  0.00  0.00    +0.022 C 
ATOM      8  C   UNL     1      37.084 -26.024 -13.798  0.00  0.00    +0.004 C 
ATOM      9  C   UNL     1      36.077 -22.404 -15.694  0.00  0.00    +0.244 C 
ENDBRANCH   1   9
BRANCH   1  11
ATOM     10  O   UNL     1      33.975 -21.817 -19.423  0.00  0.00    -0.274 OA
ATOM     11  N   UNL     1      35.654 -21.612 -17.827  0.00  0.00    -0.297 N 
ATOM     12  C   UNL     1      35.048 -21.346 -19.054  0.00  0.00    +0.241 C 
ATOM     13  H   UNL     1      36.516 -21.179 -17.632  0.00  0.00    +0.150 HD
BRANCH  12  14
ATOM     14  C   UNL     1      35.866 -20.396 -19.890  0.00  0.00    +0.176 C 
BRANCH  14  15
ATOM     15  N   UNL     1      34.984 -19.404 -20.519  0.00  0.00    -0.174 NA
ATOM     16  H   UNL     1      34.553 -19.857 -21.326  0.00  0.00    +0.149 HD
BRANCH  15  17
ATOM     17  S   UNL     1      35.643 -17.928 -21.071  0.00  0.00    +0.039 S 
ATOM     18  O   UNL     1      37.089 -18.027 -21.127  0.00  0.00    -0.158 OA
ATOM     19  O   UNL     1      35.002 -16.839 -20.358  0.00  0.00    -0.158 OA
BRANCH  17  20
ATOM     20  C   UNL     1      35.033 -17.903 -22.735  0.00  0.00    +0.146 C 
ATOM     21  C   UNL     1      33.975 -18.989 -22.933  0.00  0.00    +0.025 C 
ATOM     22  C   UNL     1      34.487 -16.518 -23.083  0.00  0.00    +0.025 C 
ATOM     23  C   UNL     1      33.391 -18.951 -24.342  0.00  0.00    +0.002 C 
ATOM     24  C   UNL     1      33.903 -16.484 -24.493  0.00  0.00    +0.002 C 
ATOM     25  C   UNL     1      32.848 -17.568 -24.691  0.00  0.00    +0.000 C 
ENDBRANCH  17  20
ENDBRANCH  15  17
ENDBRANCH  14  15
ENDBRANCH  12  14
ENDBRANCH   1  11
BRANCH   1  26
ATOM     26  C   UNL     1      33.711 -22.034 -16.367  0.00  0.00    +0.050 C 
BRANCH  26  27
ATOM     27  C   UNL     1      32.604 -23.024 -16.727  0.00  0.00    +0.089 C 
BRANCH  27  28
ATOM     28  N   UNL     1      31.358 -22.648 -16.104  0.00  0.00    -0.333 N 
ATOM     29  H   UNL     1      30.978 -21.765 -16.320  0.00  0.00    +0.147 HD
BRANCH  28  31
ATOM     30  N   UNL     1      29.300 -25.052 -13.472  0.00  0.00    -0.328 N 
ATOM     31  C   UNL     1      30.665 -23.458 -15.217  0.00  0.00    +0.043 C 
ATOM     32  C   UNL     1      31.253 -23.836 -14.015  0.00  0.00    +0.009 C 
ATOM     33  C   UNL     1      29.381 -23.893 -15.529  0.00  0.00    +0.030 C 
ATOM     34  C   UNL     1      30.535 -24.647 -13.146  0.00  0.00    +0.115 C 
ATOM     35  C   UNL     1      28.711 -24.702 -14.623  0.00  0.00    +0.059 C 
ATOM     36  H   UNL     1      28.809 -25.628 -12.842  0.00  0.00    +0.147 HD
ENDBRANCH  28  31
ENDBRANCH  27  28
ENDBRANCH  26  27
ENDBRANCH   1  26
TORSDOF 10
ENDMDL
MODEL 2
REMARK VINA RESULT:     -10.9      2.581      3.804
REMARK  Name = 448953
REMARK  10 active torsions:
REMARK  status: ('A' for Active; 'I' for Inactive)
REMARK    1  A    between atoms: C_1  and  C_9
REMARK    2  A    between atoms: C_1  and  N_11
REMARK    3  A    between atoms: C_1  and  C_26
REMARK    4  A    between atoms: C_12  and  C_14
REMARK    5  A    between atoms: C_14  and  N_15
REMARK    6  A    between atoms: N_15  and  S_17
REMARK    7  A    between atoms: S_17  and  C_20
REMARK    8  A    between atoms: C_26  and  C_27
REMARK    9  A    between atoms: C_27  and  N_28
REMARK   10  A    between atoms: N_28  and  C_31
REMARK                            x       y       z     vdW  Elec       q    Type
REMARK                         _______ _______ _______ _____ _____    ______ ____
ROOT
ATOM      1  C   UNL     1      33.701 -23.819 -13.401  0.00  0.00    +0.150 C 
ENDROOT
BRANCH   1   9
ATOM      2  O   UNL     1      34.460 -23.176 -11.251  0.00  0.00    -0.273 OA
ATOM      3  N   UNL     1      35.911 -24.480 -12.516  0.00  0.00    -0.278 N 
ATOM      4  C   UNL     1      36.949 -24.498 -11.483  0.00  0.00    +0.093 C 
ATOM      5  C   UNL     1      36.227 -25.258 -13.720  0.00  0.00    +0.093 C 
ATOM      6  C   UNL     1      38.287 -24.027 -12.047  0.00  0.00    +0.022 C 
ATOM      7  C   UNL     1      37.552 -24.801 -14.327  0.00  0.00    +0.022 C 
ATOM      8  C   UNL     1      38.674 -24.825 -13.290  0.00  0.00    +0.004 C 
ATOM      9  C   UNL     1      34.719 -23.792 -12.288  0.00  0.00    +0.244 C 
ENDBRANCH   1   9
BRANCH   1  11
ATOM     10  O   UNL     1      33.859 -24.011 -16.287  0.00  0.00    -0.274 OA
ATOM     11  N   UNL     1      34.171 -22.819 -14.315  0.00  0.00    -0.297 N 
ATOM     12  C   UNL     1      34.213 -22.993 -15.697  0.00  0.00    +0.241 C 
ATOM     13  H   UNL     1      34.479 -21.960 -13.946  0.00  0.00    +0.150 HD
BRANCH  12  14
ATOM     14  C   UNL     1      34.748 -21.772 -16.400  0.00  0.00    +0.176 C 
BRANCH  14  15
ATOM     15  N   UNL     1      35.020 -22.092 -17.809  0.00  0.00    -0.174 NA
ATOM     16  H   UNL     1      35.746 -21.450 -18.125  0.00  0.00    +0.149 HD
BRANCH  15  17
ATOM     17  S   UNL     1      33.749 -22.005 -18.947  0.00  0.00    +0.039 S 
ATOM     18  O   UNL     1      32.609 -21.327 -18.359  0.00  0.00    -0.158 OA
ATOM     19  O   UNL     1      33.596 -23.305 -19.571  0.00  0.00    -0.158 OA
BRANCH  17  20
ATOM     20  C   UNL     1      34.466 -20.921 -20.152  0.00  0.00    +0.146 C 
ATOM     21  C   UNL     1      33.455 -19.859 -20.586  0.00  0.00    +0.025 C 
ATOM     22  C   UNL     1      35.744 -20.285 -19.604  0.00  0.00    +0.025 C 
ATOM     23  C   UNL     1      34.066 -18.876 -21.580  0.00  0.00    +0.002 C 
ATOM     24  C   UNL     1      36.353 -19.302 -20.600  0.00  0.00    +0.002 C 
ATOM     25  C   UNL     1      35.343 -18.244 -21.035  0.00  0.00    +0.000 C 
ENDBRANCH  17  20
ENDBRANCH  15  17
ENDBRANCH  14  15
ENDBRANCH  12  14
ENDBRANCH   1  11
BRANCH   1  26
ATOM     26  C   UNL     1      32.311 -23.519 -12.853  0.00  0.00    +0.050 C 
BRANCH  26  27
ATOM     27  C   UNL     1      31.295 -24.621 -13.152  0.00  0.00    +0.089 C 
BRANCH  27  28
ATOM     28  N   UNL     1      31.060 -24.728 -14.572  0.00  0.00    -0.333 N 
ATOM     29  H   UNL     1      31.586 -25.386 -15.082  0.00  0.00    +0.147 HD
BRANCH  28  31
ATOM     30  N   UNL     1      28.315 -22.437 -16.611  0.00  0.00    -0.328 N 
ATOM     31  C   UNL     1      30.136 -23.956 -15.259  0.00  0.00    +0.043 C 
ATOM     32  C   UNL     1      30.544 -22.798 -15.913  0.00  0.00    +0.009 C 
ATOM     33  C   UNL     1      28.798 -24.338 -15.294  0.00  0.00    +0.030 C 
ATOM     34  C   UNL     1      29.596 -22.045 -16.593  0.00  0.00    +0.115 C 
ATOM     35  C   UNL     1      27.895 -23.546 -15.990  0.00  0.00    +0.059 C 
ATOM     36  H   UNL     1      27.659 -21.887 -17.099  0.00  0.00    +0.147 HD
ENDBRANCH  28  31
ENDBRANCH  27  28
ENDBRANCH  26  27
ENDBRANCH   1  26
TORSDOF 10
ENDMDL
MODEL 3
REMARK VINA RESULT:     -10.8      1.421      5.030
REMARK  Name = 448953
REMARK  10 active torsions:
REMARK  status: ('A' for Active; 'I' for Inactive)
REMARK    1  A    between atoms: C_1  and  C_9
REMARK    2  A    between atoms: C_1  and  N_11
REMARK    3  A    between atoms: C_1  and  C_26
REMARK    4  A    between atoms: C_12  and  C_14
REMARK    5  A    between atoms: C_14  and  N_15
REMARK    6  A    between atoms: N_15  and  S_17
REMARK    7  A    between atoms: S_17  and  C_20
REMARK    8  A    between atoms: C_26  and  C_27
REMARK    9  A    between atoms: C_27  and  N_28
REMARK   10  A    between atoms: N_28  and  C_31
REMARK                            x       y       z     vdW  Elec       q    Type
REMARK                         _______ _______ _______ _____ _____    ______ ____
ROOT
ATOM      1  C   UNL     1      33.961 -21.943 -17.075  0.00  0.00    +0.150 C 
ENDROOT
BRANCH   1   9
ATOM      2  O   UNL     1      32.045 -22.352 -18.408  0.00  0.00    -0.273 OA
ATOM      3  N   UNL     1      31.870 -22.878 -16.151  0.00  0.00    -0.278 N 
ATOM      4  C   UNL     1      30.486 -23.345 -16.268  0.00  0.00    +0.093 C 
ATOM      5  C   UNL     1      32.448 -22.998 -14.806  0.00  0.00    +0.093 C 
ATOM      6  C   UNL     1      29.583 -22.629 -15.268  0.00  0.00    +0.022 C 
ATOM      7  C   UNL     1      31.581 -22.275 -13.777  0.00  0.00    +0.022 C 
ATOM      8  C   UNL     1      30.129 -22.746 -13.846  0.00  0.00    +0.004 C 
ATOM      9  C   UNL     1      32.541 -22.408 -17.279  0.00  0.00    +0.244 C 
ENDBRANCH   1   9
BRANCH   1  11
ATOM     10  O   UNL     1      36.369 -20.505 -17.799  0.00  0.00    -0.274 OA
ATOM     11  N   UNL     1      34.389 -21.571 -18.392  0.00  0.00    -0.297 N 
ATOM     12  C   UNL     1      35.569 -20.876 -18.654  0.00  0.00    +0.241 C 
ATOM     13  H   UNL     1      33.818 -21.821 -19.154  0.00  0.00    +0.150 HD
BRANCH  12  14
ATOM     14  C   UNL     1      35.758 -20.629 -20.128  0.00  0.00    +0.176 C 
BRANCH  14  15
ATOM     15  N   UNL     1      34.925 -19.494 -20.551  0.00  0.00    -0.174 NA
ATOM     16  H   UNL     1      34.355 -19.818 -21.333  0.00  0.00    +0.149 HD
BRANCH  15  17
ATOM     17  S   UNL     1      35.677 -18.044 -21.050  0.00  0.00    +0.039 S 
ATOM     18  O   UNL     1      37.114 -18.229 -21.102  0.00  0.00    -0.158 OA
ATOM     19  O   UNL     1      35.098 -16.942 -20.305  0.00  0.00    -0.158 OA
BRANCH  17  20
ATOM     20  C   UNL     1      35.081 -17.927 -22.716  0.00  0.00    +0.146 C 
ATOM     21  C   UNL     1      33.976 -18.955 -22.961  0.00  0.00    +0.025 C 
ATOM     22  C   UNL     1      34.601 -16.507 -23.012  0.00  0.00    +0.025 C 
ATOM     23  C   UNL     1      33.405 -18.837 -24.371  0.00  0.00    +0.002 C 
ATOM     24  C   UNL     1      34.029 -16.391 -24.423  0.00  0.00    +0.002 C 
ATOM     25  C   UNL     1      32.928 -17.418 -24.669  0.00  0.00    +0.000 C 
ENDBRANCH  17  20
ENDBRANCH  15  17
ENDBRANCH  14  15
ENDBRANCH  12  14
ENDBRANCH   1  11
BRANCH   1  26
ATOM     26  C   UNL     1      34.801 -23.062 -16.470  0.00  0.00    +0.050 C 
BRANCH  26  27
ATOM     27  C   UNL     1      35.669 -22.598 -15.301  0.00  0.00    +0.089 C 
BRANCH  27  28
ATOM     28  N   UNL     1      37.050 -22.958 -15.516  0.00  0.00    -0.333 N 
ATOM     29  H   UNL     1      37.536 -22.518 -16.252  0.00  0.00    +0.147 HD
BRANCH  28  31
ATOM     30  N   UNL     1      39.077 -25.718 -13.234  0.00  0.00    -0.328 N 
ATOM     31  C   UNL     1      37.733 -23.887 -14.747  0.00  0.00    +0.043 C 
ATOM     32  C   UNL     1      37.109 -24.479 -13.653  0.00  0.00    +0.009 C 
ATOM     33  C   UNL     1      39.042 -24.231 -15.069  0.00  0.00    +0.030 C 
ATOM     34  C   UNL     1      37.817 -25.406 -12.901  0.00  0.00    +0.115 C 
ATOM     35  C   UNL     1      39.701 -25.165 -14.281  0.00  0.00    +0.059 C 
ATOM     36  H   UNL     1      39.561 -26.379 -12.686  0.00  0.00    +0.147 HD
ENDBRANCH  28  31
ENDBRANCH  27  28
ENDBRANCH  26  27
ENDBRANCH   1  26
TORSDOF 10
ENDMDL
MODEL 4
REMARK VINA RESULT:     -10.5      3.056      9.021
REMARK  Name = 448953
REMARK  10 active torsions:
REMARK  status: ('A' for Active; 'I' for Inactive)
REMARK    1  A    between atoms: C_1  and  C_9
REMARK    2  A    between atoms: C_1  and  N_11
REMARK    3  A    between atoms: C_1  and  C_26
REMARK    4  A    between atoms: C_12  and  C_14
REMARK    5  A    between atoms: C_14  and  N_15
REMARK    6  A    between atoms: N_15  and  S_17
REMARK    7  A    between atoms: S_17  and  C_20
REMARK    8  A    between atoms: C_26  and  C_27
REMARK    9  A    between atoms: C_27  and  N_28
REMARK   10  A    between atoms: N_28  and  C_31
REMARK                            x       y       z     vdW  Elec       q    Type
REMARK                         _______ _______ _______ _____ _____    ______ ____
ROOT
ATOM      1  C   UNL     1      33.300 -22.961 -17.479  0.00  0.00    +0.150 C 
ENDROOT
BRANCH   1   9
ATOM      2  O   UNL     1      31.486 -21.541 -18.036  0.00  0.00    -0.273 OA
ATOM      3  N   UNL     1      31.164 -22.979 -16.238  0.00  0.00    -0.278 N 
ATOM      4  C   UNL     1      29.801 -22.509 -15.982  0.00  0.00    +0.093 C 
ATOM      5  C   UNL     1      31.618 -24.062 -15.355  0.00  0.00    +0.093 C 
ATOM      6  C   UNL     1      29.638 -22.073 -14.528  0.00  0.00    +0.022 C 
ATOM      7  C   UNL     1      31.489 -23.655 -13.889  0.00  0.00    +0.022 C 
ATOM      8  C   UNL     1      30.074 -23.177 -13.568  0.00  0.00    +0.004 C 
ATOM      9  C   UNL     1      31.904 -22.425 -17.283  0.00  0.00    +0.244 C 
ENDBRANCH   1   9
BRANCH   1  11
ATOM     10  O   UNL     1      35.133 -24.255 -15.648  0.00  0.00    -0.274 OA
ATOM     11  N   UNL     1      34.051 -22.348 -16.422  0.00  0.00    -0.297 N 
ATOM     12  C   UNL     1      34.916 -23.047 -15.583  0.00  0.00    +0.241 C 
ATOM     13  H   UNL     1      33.951 -21.379 -16.283  0.00  0.00    +0.150 HD
BRANCH  12  14
ATOM     14  C   UNL     1      35.569 -22.142 -14.571  0.00  0.00    +0.176 C 
BRANCH  14  15
ATOM     15  N   UNL     1      35.262 -22.614 -13.213  0.00  0.00    -0.174 NA
ATOM     16  H   UNL     1      34.552 -21.989 -12.833  0.00  0.00    +0.149 HD
BRANCH  15  17
ATOM     17  S   UNL     1      36.516 -22.705 -12.056  0.00  0.00    +0.039 S 
ATOM     18  O   UNL     1      35.949 -22.881 -10.732  0.00  0.00    -0.158 OA
ATOM     19  O   UNL     1      37.467 -21.643 -12.319  0.00  0.00    -0.158 OA
BRANCH  17  20
ATOM     20  C   UNL     1      37.282 -24.232 -12.528  0.00  0.00    +0.146 C 
ATOM     21  C   UNL     1      36.222 -25.291 -12.833  0.00  0.00    +0.025 C 
ATOM     22  C   UNL     1      38.216 -24.014 -13.719  0.00  0.00    +0.025 C 
ATOM     23  C   UNL     1      36.854 -26.599 -13.300  0.00  0.00    +0.002 C 
ATOM     24  C   UNL     1      38.847 -25.325 -14.183  0.00  0.00    +0.002 C 
ATOM     25  C   UNL     1      37.789 -26.382 -14.486  0.00  0.00    +0.000 C 
ENDBRANCH  17  20
ENDBRANCH  15  17
ENDBRANCH  14  15
ENDBRANCH  12  14
ENDBRANCH   1  11
BRANCH   1  26
ATOM     26  C   UNL     1      33.815 -22.594 -18.866  0.00  0.00    +0.050 C 
BRANCH  26  27
ATOM     27  C   UNL     1      34.647 -21.312 -18.880  0.00  0.00    +0.089 C 
BRANCH  27  28
ATOM     28  N   UNL     1      33.999 -20.291 -19.668  0.00  0.00    -0.333 N 
ATOM     29  H   UNL     1      33.036 -20.136 -19.527  0.00  0.00    +0.147 HD
BRANCH  28  31
ATOM     30  N   UNL     1      35.945 -17.993 -22.474  0.00  0.00    -0.328 N 
ATOM     31  C   UNL     1      34.654 -19.517 -20.613  0.00  0.00    +0.043 C 
ATOM     32  C   UNL     1      33.993 -19.127 -21.773  0.00  0.00    +0.009 C 
ATOM     33  C   UNL     1      35.974 -19.130 -20.403  0.00  0.00    +0.030 C 
ATOM     34  C   UNL     1      34.674 -18.352 -22.702  0.00  0.00    +0.115 C 
ATOM     35  C   UNL     1      36.604 -18.354 -21.366  0.00  0.00    +0.059 C 
ATOM     36  H   UNL     1      36.410 -17.443 -23.146  0.00  0.00    +0.147 HD
ENDBRANCH  28  31
ENDBRANCH  27  28
ENDBRANCH  26  27
ENDBRANCH   1  26
TORSDOF 10
ENDMDL
MODEL 5
REMARK VINA RESULT:     -10.2      3.819      7.595
REMARK  Name = 448953
REMARK  10 active torsions:
REMARK  status: ('A' for Active; 'I' for Inactive)
REMARK    1  A    between atoms: C_1  and  C_9
REMARK    2  A    between atoms: C_1  and  N_11
REMARK    3  A    between atoms: C_1  and  C_26
REMARK    4  A    between atoms: C_12  and  C_14
REMARK    5  A    between atoms: C_14  and  N_15
REMARK    6  A    between atoms: N_15  and  S_17
REMARK    7  A    between atoms: S_17  and  C_20
REMARK    8  A    between atoms: C_26  and  C_27
REMARK    9  A    between atoms: C_27  and  N_28
REMARK   10  A    between atoms: N_28  and  C_31
REMARK                            x       y       z     vdW  Elec       q    Type
REMARK                         _______ _______ _______ _____ _____    ______ ____
ROOT
ATOM      1  C   UNL     1      36.246 -22.388 -15.178  0.00  0.00    +0.150 C 
ENDROOT
BRANCH   1   9
ATOM      2  O   UNL     1      36.676 -24.707 -15.401  0.00  0.00    -0.273 OA
ATOM      3  N   UNL     1      37.042 -23.782 -13.301  0.00  0.00    -0.278 N 
ATOM      4  C   UNL     1      37.467 -25.053 -12.709  0.00  0.00    +0.093 C 
ATOM      5  C   UNL     1      37.092 -22.631 -12.389  0.00  0.00    +0.093 C 
ATOM      6  C   UNL     1      36.653 -25.370 -11.457  0.00  0.00    +0.022 C 
ATOM      7  C   UNL     1      36.271 -22.903 -11.130  0.00  0.00    +0.022 C 
ATOM      8  C   UNL     1      36.694 -24.210 -10.463  0.00  0.00    +0.004 C 
ATOM      9  C   UNL     1      36.673 -23.732 -14.645  0.00  0.00    +0.244 C 
ENDBRANCH   1   9
BRANCH   1  11
ATOM     10  O   UNL     1      33.935 -22.980 -13.535  0.00  0.00    -0.274 OA
ATOM     11  N   UNL     1      34.899 -22.609 -15.618  0.00  0.00    -0.297 N 
ATOM     12  C   UNL     1      33.840 -22.890 -14.757  0.00  0.00    +0.241 C 
ATOM     13  H   UNL     1      34.712 -22.558 -16.584  0.00  0.00    +0.150 HD
BRANCH  12  14
ATOM     14  C   UNL     1      32.543 -23.069 -15.503  0.00  0.00    +0.176 C 
BRANCH  14  15
ATOM     15  N   UNL     1      31.429 -22.571 -14.684  0.00  0.00    -0.174 NA
ATOM     16  H   UNL     1      31.822 -21.903 -14.021  0.00  0.00    +0.149 HD
BRANCH  15  17
ATOM     17  S   UNL     1      30.495 -23.680 -13.780  0.00  0.00    +0.039 S 
ATOM     18  O   UNL     1      30.347 -23.200 -12.419  0.00  0.00    -0.158 OA
ATOM     19  O   UNL     1      30.982 -25.020 -14.044  0.00  0.00    -0.158 OA
BRANCH  17  20
ATOM     20  C   UNL     1      28.926 -23.517 -14.589  0.00  0.00    +0.146 C 
ATOM     21  C   UNL     1      28.555 -22.042 -14.743  0.00  0.00    +0.025 C 
ATOM     22  C   UNL     1      28.946 -24.234 -15.939  0.00  0.00    +0.025 C 
ATOM     23  C   UNL     1      27.235 -21.871 -15.490  0.00  0.00    +0.002 C 
ATOM     24  C   UNL     1      27.624 -24.061 -16.684  0.00  0.00    +0.002 C 
ATOM     25  C   UNL     1      27.253 -22.589 -16.837  0.00  0.00    +0.000 C 
ENDBRANCH  17  20
ENDBRANCH  15  17
ENDBRANCH  14  15
ENDBRANCH  12  14
ENDBRANCH   1  11
BRANCH   1  26
ATOM     26  C   UNL     1      37.175 -21.947 -16.303  0.00  0.00    +0.050 C 
BRANCH  26  27
ATOM     27  C   UNL     1      36.573 -20.856 -17.189  0.00  0.00    +0.089 C 
BRANCH  27  28
ATOM     28  N   UNL     1      36.122 -21.409 -18.444  0.00  0.00    -0.333 N 
ATOM     29  H   UNL     1      36.653 -22.133 -18.850  0.00  0.00    +0.147 HD
BRANCH  28  31
ATOM     30  N   UNL     1      32.744 -20.134 -20.420  0.00  0.00    -0.328 N 
ATOM     31  C   UNL     1      34.985 -20.979 -19.109  0.00  0.00    +0.043 C 
ATOM     32  C   UNL     1      35.091 -20.062 -20.150  0.00  0.00    +0.009 C 
ATOM     33  C   UNL     1      33.735 -21.465 -18.738  0.00  0.00    +0.030 C 
ATOM     34  C   UNL     1      33.935 -19.650 -20.798  0.00  0.00    +0.115 C 
ATOM     35  C   UNL     1      32.613 -21.018 -19.423  0.00  0.00    +0.059 C 
ATOM     36  H   UNL     1      31.936 -19.828 -20.893  0.00  0.00    +0.147 HD
ENDBRANCH  28  31
ENDBRANCH  27  28
ENDBRANCH  26  27
ENDBRANCH   1  26
TORSDOF 10
ENDMDL
MODEL 6
REMARK VINA RESULT:     -10.1      3.244      8.007
REMARK  Name = 448953
REMARK  10 active torsions:
REMARK  status: ('A' for Active; 'I' for Inactive)
REMARK    1  A    between atoms: C_1  and  C_9
REMARK    2  A    between atoms: C_1  and  N_11
REMARK    3  A    between atoms: C_1  and  C_26
REMARK    4  A    between atoms: C_12  and  C_14
REMARK    5  A    between atoms: C_14  and  N_15
REMARK    6  A    between atoms: N_15  and  S_17
REMARK    7  A    between atoms: S_17  and  C_20
REMARK    8  A    between atoms: C_26  and  C_27
REMARK    9  A    between atoms: C_27  and  N_28
REMARK   10  A    between atoms: N_28  and  C_31
REMARK                            x       y       z     vdW  Elec       q    Type
REMARK                         _______ _______ _______ _____ _____    ______ ____
ROOT
ATOM      1  C   UNL     1      36.026 -21.931 -16.973  0.00  0.00    +0.150 C 
ENDROOT
BRANCH   1   9
ATOM      2  O   UNL     1      36.844 -20.014 -18.100  0.00  0.00    -0.273 OA
ATOM      3  N   UNL     1      35.006 -21.071 -19.052  0.00  0.00    -0.278 N 
ATOM      4  C   UNL     1      34.916 -20.124 -20.166  0.00  0.00    +0.093 C 
ATOM      5  C   UNL     1      34.020 -22.160 -19.088  0.00  0.00    +0.093 C 
ATOM      6  C   UNL     1      33.514 -19.528 -20.263  0.00  0.00    +0.022 C 
ATOM      7  C   UNL     1      32.600 -21.602 -19.165  0.00  0.00    +0.022 C 
ATOM      8  C   UNL     1      32.451 -20.623 -20.329  0.00  0.00    +0.004 C 
ATOM      9  C   UNL     1      36.002 -20.916 -18.089  0.00  0.00    +0.244 C 
ENDBRANCH   1   9
BRANCH   1  11
ATOM     10  O   UNL     1      34.416 -24.032 -15.796  0.00  0.00    -0.274 OA
ATOM     11  N   UNL     1      34.733 -21.800 -16.367  0.00  0.00    -0.297 N 
ATOM     12  C   UNL     1      34.023 -22.868 -15.821  0.00  0.00    +0.241 C 
ATOM     13  H   UNL     1      34.324 -20.905 -16.333  0.00  0.00    +0.150 HD
BRANCH  12  14
ATOM     14  C   UNL     1      32.698 -22.429 -15.252  0.00  0.00    +0.176 C 
BRANCH  14  15
ATOM     15  N   UNL     1      32.569 -22.913 -13.871  0.00  0.00    -0.174 NA
ATOM     16  H   UNL     1      33.368 -23.521 -13.691  0.00  0.00    +0.149 HD
BRANCH  15  17
ATOM     17  S   UNL     1      31.171 -23.784 -13.417  0.00  0.00    +0.039 S 
ATOM     18  O   UNL     1      30.582 -23.185 -12.234  0.00  0.00    -0.158 OA
ATOM     19  O   UNL     1      31.476 -25.202 -13.456  0.00  0.00    -0.158 OA
BRANCH  17  20
ATOM     20  C   UNL     1      30.110 -23.433 -14.792  0.00  0.00    +0.146 C 
ATOM     21  C   UNL     1      29.201 -24.627 -15.086  0.00  0.00    +0.025 C 
ATOM     22  C   UNL     1      29.299 -22.164 -14.531  0.00  0.00    +0.025 C 
ATOM     23  C   UNL     1      28.236 -24.330 -16.229  0.00  0.00    +0.002 C 
ATOM     24  C   UNL     1      28.334 -21.868 -15.676  0.00  0.00    +0.002 C 
ATOM     25  C   UNL     1      27.429 -23.061 -15.970  0.00  0.00    +0.000 C 
ENDBRANCH  17  20
ENDBRANCH  15  17
ENDBRANCH  14  15
ENDBRANCH  12  14
ENDBRANCH   1  11
BRANCH   1  26
ATOM     26  C   UNL     1      37.168 -21.629 -16.010  0.00  0.00    +0.050 C 
BRANCH  26  27
ATOM     27  C   UNL     1      38.022 -22.855 -15.685  0.00  0.00    +0.089 C 
BRANCH  27  28
ATOM     28  N   UNL     1      37.258 -23.827 -14.939  0.00  0.00    -0.333 N 
ATOM     29  H   UNL     1      36.825 -24.559 -15.437  0.00  0.00    +0.147 HD
BRANCH  28  31
ATOM     30  N   UNL     1      36.784 -23.709 -10.852  0.00  0.00    -0.328 N 
ATOM     31  C   UNL     1      37.098 -23.788 -13.563  0.00  0.00    +0.043 C 
ATOM     32  C   UNL     1      37.710 -24.747 -12.763  0.00  0.00    +0.009 C 
ATOM     33  C   UNL     1      36.327 -22.787 -12.979  0.00  0.00    +0.030 C 
ATOM     34  C   UNL     1      37.532 -24.683 -11.388  0.00  0.00    +0.115 C 
ATOM     35  C   UNL     1      36.185 -22.772 -11.599  0.00  0.00    +0.059 C 
ATOM     36  H   UNL     1      36.671 -23.682  -9.874  0.00  0.00    +0.147 HD
ENDBRANCH  28  31
ENDBRANCH  27  28
ENDBRANCH  26  27
ENDBRANCH   1  26
TORSDOF 10
ENDMDL
MODEL 7
REMARK VINA RESULT:     -10.1      2.081      5.628
REMARK  Name = 448953
REMARK  10 active torsions:
REMARK  status: ('A' for Active; 'I' for Inactive)
REMARK    1  A    between atoms: C_1  and  C_9
REMARK    2  A    between atoms: C_1  and  N_11
REMARK    3  A    between atoms: C_1  and  C_26
REMARK    4  A    between atoms: C_12  and  C_14
REMARK    5  A    between atoms: C_14  and  N_15
REMARK    6  A    between atoms: N_15  and  S_17
REMARK    7  A    between atoms: S_17  and  C_20
REMARK    8  A    between atoms: C_26  and  C_27
REMARK    9  A    between atoms: C_27  and  N_28
REMARK   10  A    between atoms: N_28  and  C_31
REMARK                            x       y       z     vdW  Elec       q    Type
REMARK                         _______ _______ _______ _____ _____    ______ ____
ROOT
ATOM      1  C   UNL     1      33.537 -22.784 -15.582  0.00  0.00    +0.150 C 
ENDROOT
BRANCH   1   9
ATOM      2  O   UNL     1      32.413 -23.344 -17.592  0.00  0.00    -0.273 OA
ATOM      3  N   UNL     1      31.095 -23.143 -15.688  0.00  0.00    -0.278 N 
ATOM      4  C   UNL     1      29.853 -23.457 -16.398  0.00  0.00    +0.093 C 
ATOM      5  C   UNL     1      30.940 -22.922 -14.245  0.00  0.00    +0.093 C 
ATOM      6  C   UNL     1      28.805 -22.371 -16.168  0.00  0.00    +0.022 C 
ATOM      7  C   UNL     1      29.911 -21.826 -13.973  0.00  0.00    +0.022 C 
ATOM      8  C   UNL     1      28.588 -22.120 -14.677  0.00  0.00    +0.004 C 
ATOM      9  C   UNL     1      32.303 -23.117 -16.384  0.00  0.00    +0.244 C 
ENDBRANCH   1   9
BRANCH   1  11
ATOM     10  O   UNL     1      36.172 -21.666 -15.142  0.00  0.00    -0.274 OA
ATOM     11  N   UNL     1      34.493 -22.393 -16.577  0.00  0.00    -0.297 N 
ATOM     12  C   UNL     1      35.746 -21.861 -16.277  0.00  0.00    +0.241 C 
ATOM     13  H   UNL     1      34.252 -22.508 -17.524  0.00  0.00    +0.150 HD
BRANCH  12  14
ATOM     14  C   UNL     1      36.535 -21.548 -17.523  0.00  0.00    +0.176 C 
BRANCH  14  15
ATOM     15  N   UNL     1      35.827 -20.533 -18.315  0.00  0.00    -0.174 NA
ATOM     16  H   UNL     1      35.370 -19.905 -17.654  0.00  0.00    +0.149 HD
BRANCH  15  17
ATOM     17  S   UNL     1      34.637 -21.028 -19.437  0.00  0.00    +0.039 S 
ATOM     18  O   UNL     1      33.329 -20.589 -18.989  0.00  0.00    -0.158 OA
ATOM     19  O   UNL     1      34.874 -22.416 -19.782  0.00  0.00    -0.158 OA
BRANCH  17  20
ATOM     20  C   UNL     1      35.090 -20.047 -20.842  0.00  0.00    +0.146 C 
ATOM     21  C   UNL     1      33.861 -19.346 -21.423  0.00  0.00    +0.025 C 
ATOM     22  C   UNL     1      36.181 -19.045 -20.465  0.00  0.00    +0.025 C 
ATOM     23  C   UNL     1      34.232 -18.448 -22.600  0.00  0.00    +0.002 C 
ATOM     24  C   UNL     1      36.550 -18.148 -21.644  0.00  0.00    +0.002 C 
ATOM     25  C   UNL     1      35.324 -17.450 -22.225  0.00  0.00    +0.000 C 
ENDBRANCH  17  20
ENDBRANCH  15  17
ENDBRANCH  14  15
ENDBRANCH  12  14
ENDBRANCH   1  11
BRANCH   1  26
ATOM     26  C   UNL     1      33.982 -23.995 -14.772  0.00  0.00    +0.050 C 
BRANCH  26  27
ATOM     27  C   UNL     1      34.308 -23.659 -13.316  0.00  0.00    +0.089 C 
BRANCH  27  28
ATOM     28  N   UNL     1      35.092 -24.710 -12.713  0.00  0.00    -0.333 N 
ATOM     29  H   UNL     1      34.685 -25.234 -11.985  0.00  0.00    +0.147 HD
BRANCH  28  31
ATOM     30  N   UNL     1      38.936 -25.637 -13.857  0.00  0.00    -0.328 N 
ATOM     31  C   UNL     1      36.387 -25.021 -13.098  0.00  0.00    +0.043 C 
ATOM     32  C   UNL     1      37.448 -24.222 -12.685  0.00  0.00    +0.009 C 
ATOM     33  C   UNL     1      36.626 -26.134 -13.898  0.00  0.00    +0.030 C 
ATOM     34  C   UNL     1      38.734 -24.559 -13.087  0.00  0.00    +0.115 C 
ATOM     35  C   UNL     1      37.933 -26.423 -14.268  0.00  0.00    +0.059 C 
ATOM     36  H   UNL     1      39.856 -25.857 -14.131  0.00  0.00    +0.147 HD
ENDBRANCH  28  31
ENDBRANCH  27  28
ENDBRANCH  26  27
ENDBRANCH   1  26
TORSDOF 10
ENDMDL
MODEL 8
REMARK VINA RESULT:     -10.1      2.636      6.255
REMARK  Name = 448953
REMARK  10 active torsions:
REMARK  status: ('A' for Active; 'I' for Inactive)
REMARK    1  A    between atoms: C_1  and  C_9
REMARK    2  A    between atoms: C_1  and  N_11
REMARK    3  A    between atoms: C_1  and  C_26
REMARK    4  A    between atoms: C_12  and  C_14
REMARK    5  A    between atoms: C_14  and  N_15
REMARK    6  A    between atoms: N_15  and  S_17
REMARK    7  A    between atoms: S_17  and  C_20
REMARK    8  A    between atoms: C_26  and  C_27
REMARK    9  A    between atoms: C_27  and  N_28
REMARK   10  A    between atoms: N_28  and  C_31
REMARK                            x       y       z     vdW  Elec       q    Type
REMARK                         _______ _______ _______ _____ _____    ______ ____
ROOT
ATOM      1  C   UNL     1      33.035 -23.444 -13.334  0.00  0.00    +0.150 C 
ENDROOT
BRANCH   1   9
ATOM      2  O   UNL     1      31.548 -25.141 -12.610  0.00  0.00    -0.273 OA
ATOM      3  N   UNL     1      30.643 -23.471 -13.949  0.00  0.00    -0.278 N 
ATOM      4  C   UNL     1      29.297 -24.049 -13.927  0.00  0.00    +0.093 C 
ATOM      5  C   UNL     1      30.758 -22.209 -14.692  0.00  0.00    +0.093 C 
ATOM      6  C   UNL     1      28.767 -24.251 -15.343  0.00  0.00    +0.022 C 
ATOM      7  C   UNL     1      30.255 -22.376 -16.124  0.00  0.00    +0.022 C 
ATOM      8  C   UNL     1      28.842 -22.957 -16.152  0.00  0.00    +0.004 C 
ATOM      9  C   UNL     1      31.679 -24.100 -13.260  0.00  0.00    +0.244 C 
ENDBRANCH   1   9
BRANCH   1  11
ATOM     10  O   UNL     1      34.742 -21.713 -14.908  0.00  0.00    -0.274 OA
ATOM     11  N   UNL     1      33.421 -23.615 -14.704  0.00  0.00    -0.297 N 
ATOM     12  C   UNL     1      34.251 -22.730 -15.390  0.00  0.00    +0.241 C 
ATOM     13  H   UNL     1      33.081 -24.403 -15.188  0.00  0.00    +0.150 HD
BRANCH  12  14
ATOM     14  C   UNL     1      34.486 -23.169 -16.812  0.00  0.00    +0.176 C 
BRANCH  14  15
ATOM     15  N   UNL     1      34.437 -22.002 -17.704  0.00  0.00    -0.174 NA
ATOM     16  H   UNL     1      34.150 -21.205 -17.137  0.00  0.00    +0.149 HD
BRANCH  15  17
ATOM     17  S   UNL     1      33.412 -22.036 -19.071  0.00  0.00    +0.039 S 
ATOM     18  O   UNL     1      32.154 -21.386 -18.755  0.00  0.00    -0.158 OA
ATOM     19  O   UNL     1      33.434 -23.372 -19.634  0.00  0.00    -0.158 OA
BRANCH  17  20
ATOM     20  C   UNL     1      34.309 -20.979 -20.175  0.00  0.00    +0.146 C 
ATOM     21  C   UNL     1      33.423 -19.828 -20.651  0.00  0.00    +0.025 C 
ATOM     22  C   UNL     1      35.584 -20.466 -19.505  0.00  0.00    +0.025 C 
ATOM     23  C   UNL     1      34.190 -18.869 -21.558  0.00  0.00    +0.002 C 
ATOM     24  C   UNL     1      36.348 -19.507 -20.414  0.00  0.00    +0.002 C 
ATOM     25  C   UNL     1      35.464 -18.359 -20.891  0.00  0.00    +0.000 C 
ENDBRANCH  17  20
ENDBRANCH  15  17
ENDBRANCH  14  15
ENDBRANCH  12  14
ENDBRANCH   1  11
BRANCH   1  26
ATOM     26  C   UNL     1      33.997 -24.110 -12.357  0.00  0.00    +0.050 C 
BRANCH  26  27
ATOM     27  C   UNL     1      34.906 -23.115 -11.636  0.00  0.00    +0.089 C 
BRANCH  27  28
ATOM     28  N   UNL     1      36.055 -22.791 -12.447  0.00  0.00    -0.333 N 
ATOM     29  H   UNL     1      36.183 -21.852 -12.717  0.00  0.00    +0.147 HD
BRANCH  28  31
ATOM     30  N   UNL     1      38.823 -25.568 -13.701  0.00  0.00    -0.328 N 
ATOM     31  C   UNL     1      36.987 -23.726 -12.870  0.00  0.00    +0.043 C 
ATOM     32  C   UNL     1      37.499 -23.665 -14.162  0.00  0.00    +0.009 C 
ATOM     33  C   UNL     1      37.412 -24.727 -12.002  0.00  0.00    +0.030 C 
ATOM     34  C   UNL     1      38.431 -24.615 -14.557  0.00  0.00    +0.115 C 
ATOM     35  C   UNL     1      38.347 -25.649 -12.451  0.00  0.00    +0.059 C 
ATOM     36  H   UNL     1      39.485 -26.232 -14.002  0.00  0.00    +0.147 HD
ENDBRANCH  28  31
ENDBRANCH  27  28
ENDBRANCH  26  27
ENDBRANCH   1  26
TORSDOF 10
ENDMDL
MODEL 9
REMARK VINA RESULT:      -9.8      3.475      7.875
REMARK  Name = 448953
REMARK  10 active torsions:
REMARK  status: ('A' for Active; 'I' for Inactive)
REMARK    1  A    between atoms: C_1  and  C_9
REMARK    2  A    between atoms: C_1  and  N_11
REMARK    3  A    between atoms: C_1  and  C_26
REMARK    4  A    between atoms: C_12  and  C_14
REMARK    5  A    between atoms: C_14  and  N_15
REMARK    6  A    between atoms: N_15  and  S_17
REMARK    7  A    between atoms: S_17  and  C_20
REMARK    8  A    between atoms: C_26  and  C_27
REMARK    9  A    between atoms: C_27  and  N_28
REMARK   10  A    between atoms: N_28  and  C_31
REMARK                            x       y       z     vdW  Elec       q    Type
REMARK                         _______ _______ _______ _____ _____    ______ ____
ROOT
ATOM      1  C   UNL     1      36.362 -22.022 -15.401  0.00  0.00    +0.150 C 
ENDROOT
BRANCH   1   9
ATOM      2  O   UNL     1      38.475 -23.032 -15.760  0.00  0.00    -0.273 OA
ATOM      3  N   UNL     1      37.474 -23.427 -13.700  0.00  0.00    -0.278 N 
ATOM      4  C   UNL     1      38.574 -24.265 -13.217  0.00  0.00    +0.093 C 
ATOM      5  C   UNL     1      36.391 -23.216 -12.731  0.00  0.00    +0.093 C 
ATOM      6  C   UNL     1      38.059 -25.619 -12.738  0.00  0.00    +0.022 C 
ATOM      7  C   UNL     1      35.834 -24.551 -12.242  0.00  0.00    +0.022 C 
ATOM      8  C   UNL     1      36.945 -25.453 -11.707  0.00  0.00    +0.004 C 
ATOM      9  C   UNL     1      37.535 -22.870 -14.977  0.00  0.00    +0.244 C 
ENDBRANCH   1   9
BRANCH   1  11
ATOM     10  O   UNL     1      33.650 -21.679 -14.443  0.00  0.00    -0.274 OA
ATOM     11  N   UNL     1      35.281 -22.960 -15.494  0.00  0.00    -0.297 N 
ATOM     12  C   UNL     1      34.000 -22.714 -15.005  0.00  0.00    +0.241 C 
ATOM     13  H   UNL     1      35.454 -23.826 -15.930  0.00  0.00    +0.150 HD
BRANCH  12  14
ATOM     14  C   UNL     1      33.073 -23.877 -15.250  0.00  0.00    +0.176 C 
BRANCH  14  15
ATOM     15  N   UNL     1      32.659 -24.459 -13.965  0.00  0.00    -0.174 NA
ATOM     16  H   UNL     1      32.600 -25.468 -14.100  0.00  0.00    +0.149 HD
BRANCH  15  17
ATOM     17  S   UNL     1      31.184 -23.963 -13.259  0.00  0.00    +0.039 S 
ATOM     18  O   UNL     1      31.363 -22.687 -12.594  0.00  0.00    -0.158 OA
ATOM     19  O   UNL     1      30.607 -25.092 -12.553  0.00  0.00    -0.158 OA
BRANCH  17  20
ATOM     20  C   UNL     1      30.206 -23.690 -14.711  0.00  0.00    +0.146 C 
ATOM     21  C   UNL     1      29.056 -24.696 -14.778  0.00  0.00    +0.025 C 
ATOM     22  C   UNL     1      29.693 -22.250 -14.746  0.00  0.00    +0.025 C 
ATOM     23  C   UNL     1      28.162 -24.446 -15.989  0.00  0.00    +0.002 C 
ATOM     24  C   UNL     1      28.799 -22.003 -15.959  0.00  0.00    +0.002 C 
ATOM     25  C   UNL     1      27.653 -23.008 -16.027  0.00  0.00    +0.000 C 
ENDBRANCH  17  20
ENDBRANCH  15  17
ENDBRANCH  14  15
ENDBRANCH  12  14
ENDBRANCH   1  11
BRANCH   1  26
ATOM     26  C   UNL     1      36.663 -21.327 -16.723  0.00  0.00    +0.050 C 
BRANCH  26  27
ATOM     27  C   UNL     1      35.545 -21.481 -17.753  0.00  0.00    +0.089 C 
BRANCH  27  28
ATOM     28  N   UNL     1      36.034 -21.210 -19.084  0.00  0.00    -0.333 N 
ATOM     29  H   UNL     1      36.784 -21.753 -19.422  0.00  0.00    +0.147 HD
BRANCH  28  31
ATOM     30  N   UNL     1      34.478 -18.299 -21.542  0.00  0.00    -0.328 N 
ATOM     31  C   UNL     1      35.511 -20.230 -19.911  0.00  0.00    +0.043 C 
ATOM     32  C   UNL     1      36.329 -19.210 -20.388  0.00  0.00    +0.009 C 
ATOM     33  C   UNL     1      34.166 -20.264 -20.267  0.00  0.00    +0.030 C 
ATOM     34  C   UNL     1      35.776 -18.242 -21.215  0.00  0.00    +0.115 C 
ATOM     35  C   UNL     1      33.669 -19.270 -21.098  0.00  0.00    +0.059 C 
ATOM     36  H   UNL     1      34.107 -17.602 -22.130  0.00  0.00    +0.147 HD
ENDBRANCH  28  31
ENDBRANCH  27  28
ENDBRANCH  26  27
ENDBRANCH   1  26
TORSDOF 10
ENDMDL
