MODEL 1
REMARK VINA RESULT:     -10.8      0.000      0.000
REMARK  Name = 23634441
REMARK  6 active torsions:
REMARK  status: ('A' for Active; 'I' for Inactive)
REMARK    1  A    between atoms: C_2  and  C_8
REMARK    2  A    between atoms: CA_4  and  C_16
REMARK    3  A    between atoms: C_5  and  O_23
REMARK    4  A    between atoms: N_15  and  CA_18
REMARK    5  A    between atoms: CA_18  and  C_20
REMARK    6  A    between atoms: C_20  and  O_21
REMARK                            x       y       z     vdW  Elec       q    Type
REMARK                         _______ _______ _______ _____ _____    ______ ____
ROOT
ATOM      1  N   UNL     1      34.560 -16.215 -21.985  0.00  0.00    -0.236 NA
ATOM      2  C   UNL     1      34.411 -18.568 -21.448  0.00  0.00    +0.022 C 
ATOM      3  C   UNL     1      33.926 -18.835 -22.723  0.00  0.00    +0.040 C 
ATOM      4  CA  UNL     1      34.086 -16.514 -23.215  0.00  0.00    +0.168 C 
ATOM      5  C   UNL     1      33.757 -17.795 -23.629  0.00  0.00    +0.156 C 
ATOM      6  C   UNL     1      34.711 -17.251 -21.131  0.00  0.00    +0.099 C 
ENDROOT
BRANCH   2   8
ATOM      7 CL   UNL     1      32.305 -21.999 -18.217  0.00  0.00    -0.082 Cl
ATOM      8  C   UNL     1      34.597 -19.628 -20.482  0.00  0.00    +0.002 C 
ATOM      9  C   UNL     1      33.490 -20.232 -19.885  0.00  0.00    +0.011 C 
ATOM     10  C   UNL     1      35.884 -20.047 -20.147  0.00  0.00    +0.000 C 
ATOM     11  C   UNL     1      33.670 -21.254 -18.953  0.00  0.00    +0.058 C 
ATOM     12  C   UNL     1      36.064 -21.069 -19.215  0.00  0.00    +0.001 C 
ATOM     13  C   UNL     1      34.958 -21.673 -18.619  0.00  0.00    +0.011 C 
ENDBRANCH   2   8
BRANCH   4  16
ATOM     14  O   UNL     1      34.310 -15.449 -25.293  0.00  0.00    -0.268 OA
ATOM     15  N   UNL     1      33.338 -14.227 -23.580  0.00  0.00    -0.290 N 
ATOM     16  C   ACE A   1      33.936 -15.375 -24.110  0.00  0.00    +0.267 C 
ATOM     17  H   UNL     1      33.065 -14.238 -22.633  0.00  0.00    +0.150 HD
BRANCH  15  18
ATOM     18  CA  UNL     1      33.098 -13.026 -24.346  0.00  0.00    +0.201 C 
BRANCH  18  20
ATOM     19  OXT UNL     1      32.105 -11.652 -22.637  0.00  0.00    -0.248 OA
ATOM     20  C   UNL     1      32.977 -11.794 -23.485  0.00  0.00    +0.334 C 
BRANCH  20  21
ATOM     21  O   UNL     1      33.924 -10.861 -23.740  0.00  0.00    -0.479 OA
ATOM     22  H   UNL     1      34.231 -10.306 -23.050  0.00  0.00    +0.295 HD
ENDBRANCH  20  21
ENDBRANCH  18  20
ENDBRANCH  15  18
ENDBRANCH   4  16
BRANCH   5  23
ATOM     23  O   UNL     1      33.284 -18.047 -24.877  0.00  0.00    -0.504 OA
ATOM     24  H   UNL     1      33.624 -18.767 -25.370  0.00  0.00    +0.292 HD
ENDBRANCH   5  23
TORSDOF 6
ENDMDL
MODEL 2
REMARK VINA RESULT:     -10.7      7.573     10.816
REMARK  Name = 23634441
REMARK  6 active torsions:
REMARK  status: ('A' for Active; 'I' for Inactive)
REMARK    1  A    between atoms: C_2  and  C_8
REMARK    2  A    between atoms: CA_4  and  C_16
REMARK    3  A    between atoms: C_5  and  O_23
REMARK    4  A    between atoms: N_15  and  CA_18
REMARK    5  A    between atoms: CA_18  and  C_20
REMARK    6  A    between atoms: C_20  and  O_21
REMARK                            x       y       z     vdW  Elec       q    Type
REMARK                         _______ _______ _______ _____ _____    ______ ____
ROOT
ATOM      1  N   UNL     1      37.088 -21.881 -16.464  0.00  0.00    -0.236 NA
ATOM      2  C   UNL     1      35.039 -21.608 -17.719  0.00  0.00    +0.022 C 
ATOM      3  C   UNL     1      34.389 -22.489 -16.862  0.00  0.00    +0.040 C 
ATOM      4  CA  UNL     1      36.422 -22.732 -15.653  0.00  0.00    +0.168 C 
ATOM      5  C   UNL     1      35.086 -23.066 -15.807  0.00  0.00    +0.156 C 
ATOM      6  C   UNL     1      36.378 -21.340 -17.479  0.00  0.00    +0.099 C 
ENDROOT
BRANCH   2   8
ATOM      7 CL   UNL     1      35.254 -18.780 -22.032  0.00  0.00    -0.082 Cl
ATOM      8  C   UNL     1      34.342 -20.992 -18.826  0.00  0.00    +0.002 C 
ATOM      9  C   UNL     1      35.053 -20.268 -19.784  0.00  0.00    +0.011 C 
ATOM     10  C   UNL     1      32.958 -21.122 -18.937  0.00  0.00    +0.000 C 
ATOM     11  C   UNL     1      34.379 -19.674 -20.851  0.00  0.00    +0.058 C 
ATOM     12  C   UNL     1      32.284 -20.528 -20.004  0.00  0.00    +0.001 C 
ATOM     13  C   UNL     1      32.994 -19.805 -20.961  0.00  0.00    +0.011 C 
ENDBRANCH   2   8
BRANCH   4  16
ATOM     14  O   UNL     1      37.348 -22.683 -13.498  0.00  0.00    -0.268 OA
ATOM     15  N   UNL     1      37.788 -24.554 -14.794  0.00  0.00    -0.290 N 
ATOM     16  C   ACE A   1      37.216 -23.297 -14.571  0.00  0.00    +0.267 C 
ATOM     17  H   UNL     1      37.643 -24.984 -15.668  0.00  0.00    +0.150 HD
BRANCH  15  18
ATOM     18  CA  UNL     1      38.582 -25.256 -13.811  0.00  0.00    +0.201 C 
BRANCH  18  20
ATOM     19  OXT UNL     1      40.774 -26.238 -13.655  0.00  0.00    -0.248 OA
ATOM     20  C   UNL     1      39.910 -25.721 -14.352  0.00  0.00    +0.334 C 
BRANCH  20  21
ATOM     21  O   UNL     1      40.055 -25.513 -15.681  0.00  0.00    -0.479 OA
ATOM     22  H   UNL     1      40.720 -24.931 -15.994  0.00  0.00    +0.295 HD
ENDBRANCH  20  21
ENDBRANCH  18  20
ENDBRANCH  15  18
ENDBRANCH   4  16
BRANCH   5  23
ATOM     23  O   UNL     1      34.459 -23.928 -14.965  0.00  0.00    -0.504 OA
ATOM     24  H   UNL     1      33.584 -23.752 -14.681  0.00  0.00    +0.292 HD
ENDBRANCH   5  23
TORSDOF 6
ENDMDL
MODEL 3
REMARK VINA RESULT:     -10.7      6.275      8.661
REMARK  Name = 23634441
REMARK  6 active torsions:
REMARK  status: ('A' for Active; 'I' for Inactive)
REMARK    1  A    between atoms: C_2  and  C_8
REMARK    2  A    between atoms: CA_4  and  C_16
REMARK    3  A    between atoms: C_5  and  O_23
REMARK    4  A    between atoms: N_15  and  CA_18
REMARK    5  A    between atoms: CA_18  and  C_20
REMARK    6  A    between atoms: C_20  and  O_21
REMARK                            x       y       z     vdW  Elec       q    Type
REMARK                         _______ _______ _______ _____ _____    ______ ____
ROOT
ATOM      1  N   UNL     1      31.790 -21.069 -18.795  0.00  0.00    -0.236 NA
ATOM      2  C   UNL     1      33.894 -20.370 -19.761  0.00  0.00    +0.022 C 
ATOM      3  C   UNL     1      34.582 -21.187 -18.871  0.00  0.00    +0.040 C 
ATOM      4  CA  UNL     1      32.493 -21.851 -17.946  0.00  0.00    +0.168 C 
ATOM      5  C   UNL     1      33.876 -21.944 -17.943  0.00  0.00    +0.156 C 
ATOM      6  C   UNL     1      32.509 -20.347 -19.682  0.00  0.00    +0.099 C 
ENDROOT
BRANCH   2   8
ATOM      7 CL   UNL     1      33.806 -17.797 -24.235  0.00  0.00    -0.082 Cl
ATOM      8  C   UNL     1      34.599 -19.570 -20.737  0.00  0.00    +0.002 C 
ATOM      9  C   UNL     1      33.938 -19.121 -21.882  0.00  0.00    +0.011 C 
ATOM     10  C   UNL     1      35.940 -19.245 -20.534  0.00  0.00    +0.000 C 
ATOM     11  C   UNL     1      34.619 -18.349 -22.823  0.00  0.00    +0.058 C 
ATOM     12  C   UNL     1      36.620 -18.473 -21.476  0.00  0.00    +0.001 C 
ATOM     13  C   UNL     1      35.961 -18.025 -22.619  0.00  0.00    +0.011 C 
ENDBRANCH   2   8
BRANCH   4  16
ATOM     14  O   UNL     1      32.211 -23.492 -16.294  0.00  0.00    -0.268 OA
ATOM     15  N   UNL     1      30.329 -22.295 -16.926  0.00  0.00    -0.290 N 
ATOM     16  C   ACE A   1      31.689 -22.614 -17.004  0.00  0.00    +0.267 C 
ATOM     17  H   UNL     1      29.982 -21.588 -17.518  0.00  0.00    +0.150 HD
BRANCH  15  18
ATOM     18  CA  UNL     1      29.406 -22.945 -16.025  0.00  0.00    +0.201 C 
BRANCH  18  20
ATOM     19  OXT UNL     1      27.331 -23.773 -16.920  0.00  0.00    -0.248 OA
ATOM     20  C   UNL     1      27.970 -22.831 -16.471  0.00  0.00    +0.334 C 
BRANCH  20  21
ATOM     21  O   UNL     1      27.457 -21.587 -16.326  0.00  0.00    -0.479 OA
ATOM     22  H   UNL     1      27.453 -21.177 -15.483  0.00  0.00    +0.295 HD
ENDBRANCH  20  21
ENDBRANCH  18  20
ENDBRANCH  15  18
ENDBRANCH   4  16
BRANCH   5  23
ATOM     23  O   UNL     1      34.540 -22.745 -17.069  0.00  0.00    -0.504 OA
ATOM     24  H   UNL     1      35.001 -22.368 -16.346  0.00  0.00    +0.292 HD
ENDBRANCH   5  23
TORSDOF 6
ENDMDL
MODEL 4
REMARK VINA RESULT:     -10.6      4.064      7.851
REMARK  Name = 23634441
REMARK  6 active torsions:
REMARK  status: ('A' for Active; 'I' for Inactive)
REMARK    1  A    between atoms: C_2  and  C_8
REMARK    2  A    between atoms: CA_4  and  C_16
REMARK    3  A    between atoms: C_5  and  O_23
REMARK    4  A    between atoms: N_15  and  CA_18
REMARK    5  A    between atoms: CA_18  and  C_20
REMARK    6  A    between atoms: C_20  and  O_21
REMARK                            x       y       z     vdW  Elec       q    Type
REMARK                         _______ _______ _______ _____ _____    ______ ____
ROOT
ATOM      1  N   UNL     1      34.800 -16.703 -20.782  0.00  0.00    -0.236 NA
ATOM      2  C   UNL     1      34.041 -15.782 -22.884  0.00  0.00    +0.022 C 
ATOM      3  C   UNL     1      34.110 -17.042 -23.469  0.00  0.00    +0.040 C 
ATOM      4  CA  UNL     1      34.855 -17.912 -21.385  0.00  0.00    +0.168 C 
ATOM      5  C   UNL     1      34.524 -18.131 -22.712  0.00  0.00    +0.156 C 
ATOM      6  C   UNL     1      34.394 -15.667 -21.548  0.00  0.00    +0.099 C 
ENDROOT
BRANCH   2   8
ATOM      7 CL   UNL     1      32.995 -10.728 -23.002  0.00  0.00    -0.082 Cl
ATOM      8  C   UNL     1      33.614 -14.628 -23.644  0.00  0.00    +0.002 C 
ATOM      9  C   UNL     1      33.522 -13.380 -23.027  0.00  0.00    +0.011 C 
ATOM     10  C   UNL     1      33.296 -14.763 -24.996  0.00  0.00    +0.000 C 
ATOM     11  C   UNL     1      33.110 -12.267 -23.762  0.00  0.00    +0.058 C 
ATOM     12  C   UNL     1      32.885 -13.651 -25.729  0.00  0.00    +0.001 C 
ATOM     13  C   UNL     1      32.793 -12.403 -25.113  0.00  0.00    +0.011 C 
ENDBRANCH   2   8
BRANCH   4  16
ATOM     14  O   UNL     1      36.431 -18.990 -20.023  0.00  0.00    -0.268 OA
ATOM     15  N   UNL     1      34.383 -20.040 -20.302  0.00  0.00    -0.290 N 
ATOM     16  C   ACE A   1      35.297 -19.005 -20.532  0.00  0.00    +0.267 C 
ATOM     17  H   UNL     1      33.501 -19.987 -20.738  0.00  0.00    +0.150 HD
BRANCH  15  18
ATOM     18  CA  UNL     1      34.664 -21.181 -19.461  0.00  0.00    +0.201 C 
BRANCH  18  20
ATOM     19  OXT UNL     1      33.520 -23.208 -18.850  0.00  0.00    -0.248 OA
ATOM     20  C   UNL     1      33.451 -22.042 -19.217  0.00  0.00    +0.334 C 
BRANCH  20  21
ATOM     21  O   UNL     1      32.279 -21.403 -19.443  0.00  0.00    -0.479 OA
ATOM     22  H   UNL     1      32.190 -20.838 -20.185  0.00  0.00    +0.295 HD
ENDBRANCH  20  21
ENDBRANCH  18  20
ENDBRANCH  15  18
ENDBRANCH   4  16
BRANCH   5  23
ATOM     23  O   UNL     1      34.595 -19.366 -23.275  0.00  0.00    -0.504 OA
ATOM     24  H   UNL     1      34.645 -19.453 -24.207  0.00  0.00    +0.292 HD
ENDBRANCH   5  23
TORSDOF 6
ENDMDL
MODEL 5
REMARK VINA RESULT:     -10.6      3.902      7.884
REMARK  Name = 23634441
REMARK  6 active torsions:
REMARK  status: ('A' for Active; 'I' for Inactive)
REMARK    1  A    between atoms: C_2  and  C_8
REMARK    2  A    between atoms: CA_4  and  C_16
REMARK    3  A    between atoms: C_5  and  O_23
REMARK    4  A    between atoms: N_15  and  CA_18
REMARK    5  A    between atoms: CA_18  and  C_20
REMARK    6  A    between atoms: C_20  and  O_21
REMARK                            x       y       z     vdW  Elec       q    Type
REMARK                         _______ _______ _______ _____ _____    ______ ____
ROOT
ATOM      1  N   UNL     1      34.225 -15.718 -20.253  0.00  0.00    -0.236 NA
ATOM      2  C   UNL     1      33.579 -14.067 -21.897  0.00  0.00    +0.022 C 
ATOM      3  C   UNL     1      33.975 -14.921 -22.921  0.00  0.00    +0.040 C 
ATOM      4  CA  UNL     1      34.599 -16.520 -21.275  0.00  0.00    +0.168 C 
ATOM      5  C   UNL     1      34.496 -16.172 -22.612  0.00  0.00    +0.156 C 
ATOM      6  C   UNL     1      33.724 -14.509 -20.591  0.00  0.00    +0.099 C 
ENDROOT
BRANCH   2   8
ATOM      7 CL   UNL     1      30.427 -10.213 -20.534  0.00  0.00    -0.082 Cl
ATOM      8  C   UNL     1      33.034 -12.758 -22.185  0.00  0.00    +0.002 C 
ATOM      9  C   UNL     1      32.102 -12.184 -21.320  0.00  0.00    +0.011 C 
ATOM     10  C   UNL     1      33.442 -12.070 -23.327  0.00  0.00    +0.000 C 
ATOM     11  C   UNL     1      31.577 -10.922 -21.599  0.00  0.00    +0.058 C 
ATOM     12  C   UNL     1      32.917 -10.808 -23.606  0.00  0.00    +0.001 C 
ATOM     13  C   UNL     1      31.985 -10.234 -22.742  0.00  0.00    +0.011 C 
ENDBRANCH   2   8
BRANCH   4  16
ATOM     14  O   UNL     1      36.359 -17.970 -20.726  0.00  0.00    -0.268 OA
ATOM     15  N   UNL     1      34.212 -18.841 -20.654  0.00  0.00    -0.290 N 
ATOM     16  C   ACE A   1      35.135 -17.814 -20.876  0.00  0.00    +0.267 C 
ATOM     17  H   UNL     1      33.256 -18.647 -20.792  0.00  0.00    +0.150 HD
BRANCH  15  18
ATOM     18  CA  UNL     1      34.585 -20.172 -20.232  0.00  0.00    +0.201 C 
BRANCH  18  20
ATOM     19  OXT UNL     1      32.296 -20.578 -19.606  0.00  0.00    -0.248 OA
ATOM     20  C   UNL     1      33.476 -20.890 -19.505  0.00  0.00    +0.334 C 
BRANCH  20  21
ATOM     21  O   UNL     1      33.910 -21.911 -18.731  0.00  0.00    -0.479 OA
ATOM     22  H   UNL     1      34.806 -21.943 -18.457  0.00  0.00    +0.295 HD
ENDBRANCH  20  21
ENDBRANCH  18  20
ENDBRANCH  15  18
ENDBRANCH   4  16
BRANCH   5  23
ATOM     23  O   UNL     1      34.885 -17.013 -23.606  0.00  0.00    -0.504 OA
ATOM     24  H   UNL     1      35.219 -16.665 -24.409  0.00  0.00    +0.292 HD
ENDBRANCH   5  23
TORSDOF 6
ENDMDL
MODEL 6
REMARK VINA RESULT:     -10.5      6.196      9.582
REMARK  Name = 23634441
REMARK  6 active torsions:
REMARK  status: ('A' for Active; 'I' for Inactive)
REMARK    1  A    between atoms: C_2  and  C_8
REMARK    2  A    between atoms: CA_4  and  C_16
REMARK    3  A    between atoms: C_5  and  O_23
REMARK    4  A    between atoms: N_15  and  CA_18
REMARK    5  A    between atoms: CA_18  and  C_20
REMARK    6  A    between atoms: C_20  and  O_21
REMARK                            x       y       z     vdW  Elec       q    Type
REMARK                         _______ _______ _______ _____ _____    ______ ____
ROOT
ATOM      1  N   UNL     1      35.144 -21.922 -17.722  0.00  0.00    -0.236 NA
ATOM      2  C   UNL     1      34.489 -20.527 -19.585  0.00  0.00    +0.022 C 
ATOM      3  C   UNL     1      33.150 -20.816 -19.338  0.00  0.00    +0.040 C 
ATOM      4  CA  UNL     1      33.834 -22.180 -17.514  0.00  0.00    +0.168 C 
ATOM      5  C   UNL     1      32.809 -21.657 -18.286  0.00  0.00    +0.156 C 
ATOM      6  C   UNL     1      35.439 -21.101 -18.754  0.00  0.00    +0.099 C 
ENDROOT
BRANCH   2   8
ATOM      7 CL   UNL     1      33.355 -18.423 -24.160  0.00  0.00    -0.082 Cl
ATOM      8  C   UNL     1      34.877 -19.656 -20.672  0.00  0.00    +0.002 C 
ATOM      9  C   UNL     1      34.027 -19.480 -21.764  0.00  0.00    +0.011 C 
ATOM     10  C   UNL     1      36.102 -18.991 -20.629  0.00  0.00    +0.000 C 
ATOM     11  C   UNL     1      34.402 -18.640 -22.813  0.00  0.00    +0.058 C 
ATOM     12  C   UNL     1      36.477 -18.152 -21.677  0.00  0.00    +0.001 C 
ATOM     13  C   UNL     1      35.628 -17.975 -22.768  0.00  0.00    +0.011 C 
ENDBRANCH   2   8
BRANCH   4  16
ATOM     14  O   UNL     1      32.379 -23.353 -16.098  0.00  0.00    -0.268 OA
ATOM     15  N   UNL     1      34.652 -23.587 -15.705  0.00  0.00    -0.290 N 
ATOM     16  C   ACE A   1      33.552 -23.067 -16.395  0.00  0.00    +0.267 C 
ATOM     17  H   UNL     1      35.554 -23.318 -15.996  0.00  0.00    +0.150 HD
BRANCH  15  18
ATOM     18  CA  UNL     1      34.537 -24.499 -14.590  0.00  0.00    +0.201 C 
BRANCH  18  20
ATOM     19  OXT UNL     1      35.795 -26.288 -15.593  0.00  0.00    -0.248 OA
ATOM     20  C   UNL     1      35.578 -25.589 -14.612  0.00  0.00    +0.334 C 
BRANCH  20  21
ATOM     21  O   UNL     1      36.248 -25.720 -13.444  0.00  0.00    -0.479 OA
ATOM     22  H   UNL     1      35.953 -25.262 -12.681  0.00  0.00    +0.295 HD
ENDBRANCH  20  21
ENDBRANCH  18  20
ENDBRANCH  15  18
ENDBRANCH   4  16
BRANCH   5  23
ATOM     23  O   UNL     1      31.504 -21.945 -18.038  0.00  0.00    -0.504 OA
ATOM     24  H   UNL     1      30.863 -21.262 -18.056  0.00  0.00    +0.292 HD
ENDBRANCH   5  23
TORSDOF 6
ENDMDL
MODEL 7
REMARK VINA RESULT:     -10.5      4.370      8.519
REMARK  Name = 23634441
REMARK  6 active torsions:
REMARK  status: ('A' for Active; 'I' for Inactive)
REMARK    1  A    between atoms: C_2  and  C_8
REMARK    2  A    between atoms: CA_4  and  C_16
REMARK    3  A    between atoms: C_5  and  O_23
REMARK    4  A    between atoms: N_15  and  CA_18
REMARK    5  A    between atoms: CA_18  and  C_20
REMARK    6  A    between atoms: C_20  and  O_21
REMARK                            x       y       z     vdW  Elec       q    Type
REMARK                         _______ _______ _______ _____ _____    ______ ____
ROOT
ATOM      1  N   UNL     1      33.959 -14.193 -22.300  0.00  0.00    -0.236 NA
ATOM      2  C   UNL     1      32.886 -12.192 -23.129  0.00  0.00    +0.022 C 
ATOM      3  C   UNL     1      32.656 -12.813 -24.352  0.00  0.00    +0.040 C 
ATOM      4  CA  UNL     1      33.718 -14.764 -23.501  0.00  0.00    +0.168 C 
ATOM      5  C   UNL     1      33.077 -14.123 -24.549  0.00  0.00    +0.156 C 
ATOM      6  C   UNL     1      33.536 -12.919 -22.144  0.00  0.00    +0.099 C 
ENDROOT
BRANCH   2   8
ATOM      7 CL   UNL     1      33.789  -7.139 -23.678  0.00  0.00    -0.082 Cl
ATOM      8  C   UNL     1      32.461 -10.830 -22.892  0.00  0.00    +0.002 C 
ATOM      9  C   UNL     1      33.240  -9.766 -23.347  0.00  0.00    +0.011 C 
ATOM     10  C   UNL     1      31.271 -10.580 -22.209  0.00  0.00    +0.000 C 
ATOM     11  C   UNL     1      32.829  -8.452 -23.118  0.00  0.00    +0.058 C 
ATOM     12  C   UNL     1      30.860  -9.267 -21.980  0.00  0.00    +0.001 C 
ATOM     13  C   UNL     1      31.638  -8.203 -22.435  0.00  0.00    +0.011 C 
ENDBRANCH   2   8
BRANCH   4  16
ATOM     14  O   UNL     1      34.056 -16.744 -24.712  0.00  0.00    -0.268 OA
ATOM     15  N   UNL     1      34.799 -16.709 -22.516  0.00  0.00    -0.290 N 
ATOM     16  C   ACE A   1      34.187 -16.135 -23.635  0.00  0.00    +0.267 C 
ATOM     17  H   UNL     1      34.869 -16.169 -21.695  0.00  0.00    +0.150 HD
BRANCH  15  18
ATOM     18  CA  UNL     1      35.336 -18.050 -22.499  0.00  0.00    +0.201 C 
BRANCH  18  20
ATOM     19  OXT UNL     1      36.383 -18.371 -20.356  0.00  0.00    -0.248 OA
ATOM     20  C   UNL     1      36.507 -18.202 -21.562  0.00  0.00    +0.334 C 
BRANCH  20  21
ATOM     21  O   UNL     1      37.708 -18.134 -22.182  0.00  0.00    -0.479 OA
ATOM     22  H   UNL     1      37.770 -17.772 -23.044  0.00  0.00    +0.295 HD
ENDBRANCH  20  21
ENDBRANCH  18  20
ENDBRANCH  15  18
ENDBRANCH   4  16
BRANCH   5  23
ATOM     23  O   UNL     1      32.856 -14.738 -25.740  0.00  0.00    -0.504 OA
ATOM     24  H   UNL     1      33.192 -15.600 -25.891  0.00  0.00    +0.292 HD
ENDBRANCH   5  23
TORSDOF 6
ENDMDL
MODEL 8
REMARK VINA RESULT:     -10.4      7.600     10.683
REMARK  Name = 23634441
REMARK  6 active torsions:
REMARK  status: ('A' for Active; 'I' for Inactive)
REMARK    1  A    between atoms: C_2  and  C_8
REMARK    2  A    between atoms: CA_4  and  C_16
REMARK    3  A    between atoms: C_5  and  O_23
REMARK    4  A    between atoms: N_15  and  CA_18
REMARK    5  A    between atoms: CA_18  and  C_20
REMARK    6  A    between atoms: C_20  and  O_21
REMARK                            x       y       z     vdW  Elec       q    Type
REMARK                         _______ _______ _______ _____ _____    ______ ____
ROOT
ATOM      1  N   UNL     1      34.383 -23.151 -15.970  0.00  0.00    -0.236 NA
ATOM      2  C   UNL     1      35.082 -21.659 -17.739  0.00  0.00    +0.022 C 
ATOM      3  C   UNL     1      36.382 -21.671 -17.245  0.00  0.00    +0.040 C 
ATOM      4  CA  UNL     1      35.657 -23.137 -15.519  0.00  0.00    +0.168 C 
ATOM      5  C   UNL     1      36.683 -22.421 -16.114  0.00  0.00    +0.156 C 
ATOM      6  C   UNL     1      34.127 -22.410 -17.070  0.00  0.00    +0.099 C 
ENDROOT
BRANCH   2   8
ATOM      7 CL   UNL     1      36.593 -18.510 -21.540  0.00  0.00    -0.082 Cl
ATOM      8  C   UNL     1      34.737 -20.888 -18.913  0.00  0.00    +0.002 C 
ATOM      9  C   UNL     1      35.718 -20.157 -19.582  0.00  0.00    +0.011 C 
ATOM     10  C   UNL     1      33.421 -20.877 -19.377  0.00  0.00    +0.000 C 
ATOM     11  C   UNL     1      35.384 -19.413 -20.715  0.00  0.00    +0.058 C 
ATOM     12  C   UNL     1      33.087 -20.134 -20.509  0.00  0.00    +0.001 C 
ATOM     13  C   UNL     1      34.068 -19.403 -21.178  0.00  0.00    +0.011 C 
ENDBRANCH   2   8
BRANCH   4  16
ATOM     14  O   UNL     1      36.584 -24.980 -14.402  0.00  0.00    -0.268 OA
ATOM     15  N   UNL     1      35.346 -23.488 -13.131  0.00  0.00    -0.290 N 
ATOM     16  C   ACE A   1      35.898 -23.945 -14.332  0.00  0.00    +0.267 C 
ATOM     17  H   UNL     1      34.812 -22.660 -13.149  0.00  0.00    +0.150 HD
BRANCH  15  18
ATOM     18  CA  UNL     1      35.515 -24.165 -11.866  0.00  0.00    +0.201 C 
BRANCH  18  20
ATOM     19  OXT UNL     1      36.074 -23.570  -9.601  0.00  0.00    -0.248 OA
ATOM     20  C   UNL     1      36.064 -23.266 -10.787  0.00  0.00    +0.334 C 
BRANCH  20  21
ATOM     21  O   UNL     1      36.546 -22.091 -11.256  0.00  0.00    -0.479 OA
ATOM     22  H   UNL     1      37.367 -21.764 -10.945  0.00  0.00    +0.295 HD
ENDBRANCH  20  21
ENDBRANCH  18  20
ENDBRANCH  15  18
ENDBRANCH   4  16
BRANCH   5  23
ATOM     23  O   UNL     1      37.950 -22.439 -15.624  0.00  0.00    -0.504 OA
ATOM     24  H   UNL     1      38.433 -21.640 -15.547  0.00  0.00    +0.292 HD
ENDBRANCH   5  23
TORSDOF 6
ENDMDL
MODEL 9
REMARK VINA RESULT:     -10.3      1.536      2.250
REMARK  Name = 23634441
REMARK  6 active torsions:
REMARK  status: ('A' for Active; 'I' for Inactive)
REMARK    1  A    between atoms: C_2  and  C_8
REMARK    2  A    between atoms: CA_4  and  C_16
REMARK    3  A    between atoms: C_5  and  O_23
REMARK    4  A    between atoms: N_15  and  CA_18
REMARK    5  A    between atoms: CA_18  and  C_20
REMARK    6  A    between atoms: C_20  and  O_21
REMARK                            x       y       z     vdW  Elec       q    Type
REMARK                         _______ _______ _______ _____ _____    ______ ____
ROOT
ATOM      1  N   UNL     1      33.902 -14.311 -21.970  0.00  0.00    -0.236 NA
ATOM      2  C   UNL     1      34.424 -16.669 -22.091  0.00  0.00    +0.022 C 
ATOM      3  C   UNL     1      34.175 -16.661 -23.459  0.00  0.00    +0.040 C 
ATOM      4  CA  UNL     1      33.668 -14.342 -23.301  0.00  0.00    +0.168 C 
ATOM      5  C   UNL     1      33.789 -15.480 -24.083  0.00  0.00    +0.156 C 
ATOM      6  C   UNL     1      34.274 -15.477 -21.398  0.00  0.00    +0.099 C 
ENDROOT
BRANCH   2   8
ATOM      7 CL   UNL     1      33.060 -21.061 -19.747  0.00  0.00    -0.082 Cl
ATOM      8  C   UNL     1      34.825 -17.880 -21.412  0.00  0.00    +0.002 C 
ATOM      9  C   UNL     1      33.860 -18.781 -20.960  0.00  0.00    +0.011 C 
ATOM     10  C   UNL     1      36.179 -18.150 -21.209  0.00  0.00    +0.000 C 
ATOM     11  C   UNL     1      34.249 -19.950 -20.304  0.00  0.00    +0.058 C 
ATOM     12  C   UNL     1      36.567 -19.318 -20.554  0.00  0.00    +0.001 C 
ATOM     13  C   UNL     1      35.603 -20.218 -20.103  0.00  0.00    +0.011 C 
ENDBRANCH   2   8
BRANCH   4  16
ATOM     14  O   UNL     1      32.644 -13.039 -24.960  0.00  0.00    -0.268 OA
ATOM     15  N   UNL     1      33.602 -11.913 -23.174  0.00  0.00    -0.290 N 
ATOM     16  C   ACE A   1      33.269 -13.070 -23.886  0.00  0.00    +0.267 C 
ATOM     17  H   UNL     1      34.099 -12.012 -22.329  0.00  0.00    +0.150 HD
BRANCH  15  18
ATOM     18  CA  UNL     1      33.255 -10.580 -23.610  0.00  0.00    +0.201 C 
BRANCH  18  20
ATOM     19  OXT UNL     1      31.475 -10.610 -21.990  0.00  0.00    -0.248 OA
ATOM     20  C   UNL     1      32.039 -10.030 -22.909  0.00  0.00    +0.334 C 
BRANCH  20  21
ATOM     21  O   UNL     1      31.630  -8.834 -23.393  0.00  0.00    -0.479 OA
ATOM     22  H   UNL     1      31.287  -8.185 -22.811  0.00  0.00    +0.295 HD
ENDBRANCH  20  21
ENDBRANCH  18  20
ENDBRANCH  15  18
ENDBRANCH   4  16
BRANCH   5  23
ATOM     23  O   UNL     1      33.543 -15.463 -25.419  0.00  0.00    -0.504 OA
ATOM     24  H   UNL     1      34.143 -15.872 -26.010  0.00  0.00    +0.292 HD
ENDBRANCH   5  23
TORSDOF 6
ENDMDL
