MODEL 1
REMARK VINA RESULT:     -11.4      0.000      0.000
REMARK  Name = 11315474
REMARK  6 active torsions:
REMARK  status: ('A' for Active; 'I' for Inactive)
REMARK    1  A    between atoms: N_2  and  C_25
REMARK    2  A    between atoms: C_3  and  C_6
REMARK    3  A    between atoms: N_11  and  C_13
REMARK    4  A    between atoms: C_13  and  C_15
REMARK    5  A    between atoms: C_20  and  C_26
REMARK    6  A    between atoms: C_26  and  C_32
REMARK                            x       y       z     vdW  Elec       q    Type
REMARK                         _______ _______ _______ _____ _____    ______ ____
ROOT
ATOM      1  O   UNL     1      30.212 -21.623 -17.053  0.00  0.00    -0.270 OA
ATOM      2  N   UNL     1      32.396 -22.461 -17.293  0.00  0.00    -0.280 N 
ATOM      3  C   UNL     1      31.109 -22.400 -16.742  0.00  0.00    +0.252 C 
ATOM      4  H   UNL     1      32.991 -23.152 -16.922  0.00  0.00    +0.155 HD
ENDROOT
BRANCH   3   6
ATOM      5  N   UNL     1      31.543 -24.534 -13.686  0.00  0.00    -0.229 NA
ATOM      6  C   UNL     1      30.835 -23.373 -15.653  0.00  0.00    +0.085 C 
ATOM      7  C   UNL     1      31.764 -23.654 -14.688  0.00  0.00    +0.133 C 
ATOM      8  C   UNL     1      29.609 -23.997 -15.631  0.00  0.00    +0.009 C 
ATOM      9  C   UNL     1      29.343 -24.910 -14.616  0.00  0.00    +0.021 C 
ATOM     10  C   UNL     1      30.335 -25.140 -13.675  0.00  0.00    +0.100 C 
ATOM     11  N   UNL     1      33.023 -23.000 -14.725  0.00  0.00    -0.314 N 
ATOM     12  H   UNL     1      33.199 -22.357 -15.448  0.00  0.00    +0.149 HD
BRANCH  11  13
ATOM     13  C   UNL     1      34.043 -23.239 -13.757  0.00  0.00    +0.115 C 
BRANCH  13  15
ATOM     14  N   UNL     1      37.923 -22.737 -15.508  0.00  0.00    -0.242 NA
ATOM     15  C   UNL     1      35.404 -23.063 -14.371  0.00  0.00    +0.000 C 
ATOM     16  C   UNL     1      35.622 -22.033 -15.269  0.00  0.00    +0.018 C 
ATOM     17  C   UNL     1      36.426 -23.933 -14.033  0.00  0.00    +0.018 C 
ATOM     18  C   UNL     1      36.894 -21.913 -15.807  0.00  0.00    +0.099 C 
ATOM     19  C   UNL     1      37.661 -23.728 -14.627  0.00  0.00    +0.099 C 
ENDBRANCH  13  15
ENDBRANCH  11  13
ENDBRANCH   3   6
BRANCH   2  25
ATOM     20  C   UNL     1      34.020 -20.067 -20.318  0.00  0.00    -0.010 C 
ATOM     21  C   UNL     1      34.855 -20.870 -19.540  0.00  0.00    -0.002 C 
ATOM     22  C   UNL     1      32.644 -20.062 -20.087  0.00  0.00    -0.002 C 
ATOM     23  C   UNL     1      34.313 -21.668 -18.531  0.00  0.00    +0.014 C 
ATOM     24  C   UNL     1      32.103 -20.861 -19.079  0.00  0.00    +0.014 C 
ATOM     25  C   UNL     1      32.937 -21.663 -18.301  0.00  0.00    +0.051 C 
BRANCH  20  26
ATOM     26  C   UNL     1      34.613 -19.194 -21.420  0.00  0.00    +0.098 C 
ATOM     27  C   UNL     1      33.709 -18.010 -21.831  0.00  0.00    +0.018 C 
ATOM     28  C   UNL     1      34.752 -19.916 -22.778  0.00  0.00    +0.018 C 
ATOM     29  C   UNL     1      34.182 -17.586 -23.221  0.00  0.00    +0.001 C 
ATOM     30  C   UNL     1      34.847 -18.815 -23.832  0.00  0.00    +0.001 C 
BRANCH  26  32
ATOM     31  N   UNL     1      36.969 -18.301 -20.623  0.00  0.00    -0.196 NA
ATOM     32  C   UNL     1      35.935 -18.693 -20.973  0.00  0.00    +0.075 C 
ENDBRANCH  26  32
ENDBRANCH  20  26
ENDBRANCH   2  25
TORSDOF 6
ENDMDL
MODEL 2
REMARK VINA RESULT:     -11.3      1.988      4.479
REMARK  Name = 11315474
REMARK  6 active torsions:
REMARK  status: ('A' for Active; 'I' for Inactive)
REMARK    1  A    between atoms: N_2  and  C_25
REMARK    2  A    between atoms: C_3  and  C_6
REMARK    3  A    between atoms: N_11  and  C_13
REMARK    4  A    between atoms: C_13  and  C_15
REMARK    5  A    between atoms: C_20  and  C_26
REMARK    6  A    between atoms: C_26  and  C_32
REMARK                            x       y       z     vdW  Elec       q    Type
REMARK                         _______ _______ _______ _____ _____    ______ ____
ROOT
ATOM      1  O   UNL     1      36.893 -21.075 -15.674  0.00  0.00    -0.270 OA
ATOM      2  N   UNL     1      35.379 -22.326 -16.966  0.00  0.00    -0.280 N 
ATOM      3  C   UNL     1      36.205 -22.073 -15.864  0.00  0.00    +0.252 C 
ATOM      4  H   UNL     1      34.895 -23.183 -16.955  0.00  0.00    +0.155 HD
ENDROOT
BRANCH   3   6
ATOM      5  N   UNL     1      35.165 -24.481 -13.180  0.00  0.00    -0.229 NA
ATOM      6  C   UNL     1      36.254 -23.152 -14.842  0.00  0.00    +0.085 C 
ATOM      7  C   UNL     1      35.149 -23.505 -14.115  0.00  0.00    +0.133 C 
ATOM      8  C   UNL     1      37.450 -23.800 -14.638  0.00  0.00    +0.009 C 
ATOM      9  C   UNL     1      37.506 -24.810 -13.684  0.00  0.00    +0.021 C 
ATOM     10  C   UNL     1      36.346 -25.111 -12.989  0.00  0.00    +0.100 C 
ATOM     11  N   UNL     1      33.925 -22.826 -14.339  0.00  0.00    -0.314 N 
ATOM     12  H   UNL     1      33.897 -22.113 -15.017  0.00  0.00    +0.149 HD
BRANCH  11  13
ATOM     13  C   UNL     1      32.731 -23.136 -13.622  0.00  0.00    +0.115 C 
BRANCH  13  15
ATOM     14  N   UNL     1      29.283 -22.441 -16.071  0.00  0.00    -0.242 NA
ATOM     15  C   UNL     1      31.521 -22.892 -14.481  0.00  0.00    +0.000 C 
ATOM     16  C   UNL     1      31.670 -22.757 -15.851  0.00  0.00    +0.018 C 
ATOM     17  C   UNL     1      30.270 -22.804 -13.895  0.00  0.00    +0.018 C 
ATOM     18  C   UNL     1      30.524 -22.533 -16.598  0.00  0.00    +0.099 C 
ATOM     19  C   UNL     1      29.188 -22.579 -14.730  0.00  0.00    +0.099 C 
ENDBRANCH  13  15
ENDBRANCH  11  13
ENDBRANCH   3   6
BRANCH   2  25
ATOM     20  C   UNL     1      34.716 -19.889 -20.304  0.00  0.00    -0.010 C 
ATOM     21  C   UNL     1      36.002 -20.020 -19.781  0.00  0.00    -0.002 C 
ATOM     22  C   UNL     1      33.650 -20.571 -19.715  0.00  0.00    -0.002 C 
ATOM     23  C   UNL     1      36.223 -20.832 -18.668  0.00  0.00    +0.014 C 
ATOM     24  C   UNL     1      33.872 -21.383 -18.603  0.00  0.00    +0.014 C 
ATOM     25  C   UNL     1      35.158 -21.514 -18.079  0.00  0.00    +0.051 C 
BRANCH  20  26
ATOM     26  C   UNL     1      34.474 -19.001 -21.521  0.00  0.00    +0.098 C 
ATOM     27  C   UNL     1      33.114 -19.246 -22.212  0.00  0.00    +0.018 C 
ATOM     28  C   UNL     1      35.434 -19.283 -22.698  0.00  0.00    +0.018 C 
ATOM     29  C   UNL     1      33.257 -18.690 -23.627  0.00  0.00    +0.001 C 
ATOM     30  C   UNL     1      34.749 -18.720 -23.943  0.00  0.00    +0.001 C 
BRANCH  26  32
ATOM     31  N   UNL     1      34.671 -16.472 -20.779  0.00  0.00    -0.196 NA
ATOM     32  C   UNL     1      34.584 -17.582 -21.105  0.00  0.00    +0.075 C 
ENDBRANCH  26  32
ENDBRANCH  20  26
ENDBRANCH   2  25
TORSDOF 6
ENDMDL
MODEL 3
REMARK VINA RESULT:     -11.3      1.018      1.672
REMARK  Name = 11315474
REMARK  6 active torsions:
REMARK  status: ('A' for Active; 'I' for Inactive)
REMARK    1  A    between atoms: N_2  and  C_25
REMARK    2  A    between atoms: C_3  and  C_6
REMARK    3  A    between atoms: N_11  and  C_13
REMARK    4  A    between atoms: C_13  and  C_15
REMARK    5  A    between atoms: C_20  and  C_26
REMARK    6  A    between atoms: C_26  and  C_32
REMARK                            x       y       z     vdW  Elec       q    Type
REMARK                         _______ _______ _______ _____ _____    ______ ____
ROOT
ATOM      1  O   UNL     1      30.248 -21.536 -17.094  0.00  0.00    -0.270 OA
ATOM      2  N   UNL     1      32.399 -22.454 -17.339  0.00  0.00    -0.280 N 
ATOM      3  C   UNL     1      31.108 -22.361 -16.802  0.00  0.00    +0.252 C 
ATOM      4  H   UNL     1      32.960 -23.182 -16.988  0.00  0.00    +0.155 HD
ENDROOT
BRANCH   3   6
ATOM      5  N   UNL     1      31.399 -24.597 -13.803  0.00  0.00    -0.229 NA
ATOM      6  C   UNL     1      30.780 -23.363 -15.754  0.00  0.00    +0.085 C 
ATOM      7  C   UNL     1      31.671 -23.690 -14.768  0.00  0.00    +0.133 C 
ATOM      8  C   UNL     1      29.543 -23.964 -15.794  0.00  0.00    +0.009 C 
ATOM      9  C   UNL     1      29.226 -24.903 -14.818  0.00  0.00    +0.021 C 
ATOM     10  C   UNL     1      30.181 -25.181 -13.852  0.00  0.00    +0.100 C 
ATOM     11  N   UNL     1      32.941 -23.060 -14.742  0.00  0.00    -0.314 N 
ATOM     12  H   UNL     1      33.153 -22.397 -15.438  0.00  0.00    +0.149 HD
BRANCH  11  13
ATOM     13  C   UNL     1      33.923 -23.348 -13.748  0.00  0.00    +0.115 C 
BRANCH  13  15
ATOM     14  N   UNL     1      37.867 -22.829 -15.343  0.00  0.00    -0.242 NA
ATOM     15  C   UNL     1      35.307 -23.167 -14.307  0.00  0.00    +0.000 C 
ATOM     16  C   UNL     1      36.303 -24.069 -13.978  0.00  0.00    +0.018 C 
ATOM     17  C   UNL     1      35.572 -22.097 -15.146  0.00  0.00    +0.018 C 
ATOM     18  C   UNL     1      37.561 -23.857 -14.520  0.00  0.00    +0.099 C 
ATOM     19  C   UNL     1      36.862 -21.974 -15.634  0.00  0.00    +0.099 C 
ENDBRANCH  13  15
ENDBRANCH  11  13
ENDBRANCH   3   6
BRANCH   2  25
ATOM     20  C   UNL     1      34.161 -20.016 -20.250  0.00  0.00    -0.010 C 
ATOM     21  C   UNL     1      34.958 -20.839 -19.453  0.00  0.00    -0.002 C 
ATOM     22  C   UNL     1      32.776 -20.006 -20.076  0.00  0.00    -0.002 C 
ATOM     23  C   UNL     1      34.370 -21.651 -18.483  0.00  0.00    +0.014 C 
ATOM     24  C   UNL     1      32.189 -20.819 -19.106  0.00  0.00    +0.014 C 
ATOM     25  C   UNL     1      32.986 -21.642 -18.309  0.00  0.00    +0.051 C 
BRANCH  20  26
ATOM     26  C   UNL     1      34.803 -19.127 -21.311  0.00  0.00    +0.098 C 
ATOM     27  C   UNL     1      36.347 -19.202 -21.335  0.00  0.00    +0.018 C 
ATOM     28  C   UNL     1      34.606 -17.616 -21.061  0.00  0.00    +0.018 C 
ATOM     29  C   UNL     1      36.815 -17.933 -22.045  0.00  0.00    +0.001 C 
ATOM     30  C   UNL     1      35.698 -16.911 -21.863  0.00  0.00    +0.001 C 
BRANCH  26  32
ATOM     31  N   UNL     1      33.828 -19.789 -23.677  0.00  0.00    -0.196 NA
ATOM     32  C   UNL     1      34.256 -19.499 -22.639  0.00  0.00    +0.075 C 
ENDBRANCH  26  32
ENDBRANCH  20  26
ENDBRANCH   2  25
TORSDOF 6
ENDMDL
MODEL 4
REMARK VINA RESULT:     -11.2      3.274      9.534
REMARK  Name = 11315474
REMARK  6 active torsions:
REMARK  status: ('A' for Active; 'I' for Inactive)
REMARK    1  A    between atoms: N_2  and  C_25
REMARK    2  A    between atoms: C_3  and  C_6
REMARK    3  A    between atoms: N_11  and  C_13
REMARK    4  A    between atoms: C_13  and  C_15
REMARK    5  A    between atoms: C_20  and  C_26
REMARK    6  A    between atoms: C_26  and  C_32
REMARK                            x       y       z     vdW  Elec       q    Type
REMARK                         _______ _______ _______ _____ _____    ______ ____
ROOT
ATOM      1  O   UNL     1      35.296 -17.938 -20.592  0.00  0.00    -0.270 OA
ATOM      2  N   UNL     1      34.251 -20.032 -20.820  0.00  0.00    -0.280 N 
ATOM      3  C   UNL     1      34.631 -18.748 -21.231  0.00  0.00    +0.252 C 
ATOM      4  H   UNL     1      33.715 -20.550 -21.463  0.00  0.00    +0.155 HD
ENDROOT
BRANCH   3   6
ATOM      5  N   UNL     1      33.713 -16.627 -24.187  0.00  0.00    -0.229 NA
ATOM      6  C   UNL     1      34.146 -18.339 -22.575  0.00  0.00    +0.085 C 
ATOM      7  C   UNL     1      34.149 -17.029 -22.972  0.00  0.00    +0.133 C 
ATOM      8  C   UNL     1      33.687 -19.317 -23.426  0.00  0.00    +0.009 C 
ATOM      9  C   UNL     1      33.230 -18.943 -24.686  0.00  0.00    +0.021 C 
ATOM     10  C   UNL     1      33.265 -17.597 -25.015  0.00  0.00    +0.100 C 
ATOM     11  N   UNL     1      34.626 -16.034 -22.081  0.00  0.00    -0.314 N 
ATOM     12  H   UNL     1      34.947 -16.310 -21.193  0.00  0.00    +0.149 HD
BRANCH  11  13
ATOM     13  C   UNL     1      34.660 -14.649 -22.421  0.00  0.00    +0.115 C 
BRANCH  13  15
ATOM     14  N   UNL     1      31.405 -12.567 -20.567  0.00  0.00    -0.242 NA
ATOM     15  C   UNL     1      33.518 -13.919 -21.770  0.00  0.00    +0.000 C 
ATOM     16  C   UNL     1      33.058 -14.331 -20.532  0.00  0.00    +0.018 C 
ATOM     17  C   UNL     1      32.937 -12.841 -22.417  0.00  0.00    +0.018 C 
ATOM     18  C   UNL     1      32.004 -13.625 -19.975  0.00  0.00    +0.099 C 
ATOM     19  C   UNL     1      31.889 -12.202 -21.775  0.00  0.00    +0.099 C 
ENDBRANCH  13  15
ENDBRANCH  11  13
ENDBRANCH   3   6
BRANCH   2  25
ATOM     20  C   UNL     1      35.109 -21.936 -17.192  0.00  0.00    -0.010 C 
ATOM     21  C   UNL     1      33.816 -21.981 -17.715  0.00  0.00    -0.002 C 
ATOM     22  C   UNL     1      36.116 -21.257 -17.879  0.00  0.00    -0.002 C 
ATOM     23  C   UNL     1      33.530 -21.346 -18.924  0.00  0.00    +0.014 C 
ATOM     24  C   UNL     1      35.829 -20.623 -19.088  0.00  0.00    +0.014 C 
ATOM     25  C   UNL     1      34.536 -20.667 -19.611  0.00  0.00    +0.051 C 
BRANCH  20  26
ATOM     26  C   UNL     1      35.421 -22.631 -15.870  0.00  0.00    +0.098 C 
ATOM     27  C   UNL     1      34.882 -24.076 -15.782  0.00  0.00    +0.018 C 
ATOM     28  C   UNL     1      34.712 -22.000 -14.652  0.00  0.00    +0.018 C 
ATOM     29  C   UNL     1      34.821 -24.410 -14.293  0.00  0.00    +0.001 C 
ATOM     30  C   UNL     1      34.705 -23.074 -13.566  0.00  0.00    +0.001 C 
BRANCH  26  32
ATOM     31  N   UNL     1      38.039 -22.618 -15.502  0.00  0.00    -0.196 NA
ATOM     32  C   UNL     1      36.890 -22.623 -15.663  0.00  0.00    +0.075 C 
ENDBRANCH  26  32
ENDBRANCH  20  26
ENDBRANCH   2  25
TORSDOF 6
ENDMDL
MODEL 5
REMARK VINA RESULT:     -11.0      1.633      1.905
REMARK  Name = 11315474
REMARK  6 active torsions:
REMARK  status: ('A' for Active; 'I' for Inactive)
REMARK    1  A    between atoms: N_2  and  C_25
REMARK    2  A    between atoms: C_3  and  C_6
REMARK    3  A    between atoms: N_11  and  C_13
REMARK    4  A    between atoms: C_13  and  C_15
REMARK    5  A    between atoms: C_20  and  C_26
REMARK    6  A    between atoms: C_26  and  C_32
REMARK                            x       y       z     vdW  Elec       q    Type
REMARK                         _______ _______ _______ _____ _____    ______ ____
ROOT
ATOM      1  O   UNL     1      34.371 -22.169 -16.127  0.00  0.00    -0.270 OA
ATOM      2  N   UNL     1      32.544 -21.997 -17.598  0.00  0.00    -0.280 N 
ATOM      3  C   UNL     1      33.208 -22.409 -16.435  0.00  0.00    +0.252 C 
ATOM      4  H   UNL     1      31.606 -22.281 -17.683  0.00  0.00    +0.155 HD
ENDROOT
BRANCH   3   6
ATOM      5  N   UNL     1      32.250 -24.575 -13.524  0.00  0.00    -0.229 NA
ATOM      6  C   UNL     1      32.404 -23.245 -15.505  0.00  0.00    +0.085 C 
ATOM      7  C   UNL     1      32.955 -23.811 -14.387  0.00  0.00    +0.133 C 
ATOM      8  C   UNL     1      31.074 -23.443 -15.793  0.00  0.00    +0.009 C 
ATOM      9  C   UNL     1      30.313 -24.225 -14.929  0.00  0.00    +0.021 C 
ATOM     10  C   UNL     1      30.943 -24.763 -13.818  0.00  0.00    +0.100 C 
ATOM     11  N   UNL     1      34.329 -23.595 -14.105  0.00  0.00    -0.314 N 
ATOM     12  H   UNL     1      34.856 -23.041 -14.724  0.00  0.00    +0.149 HD
BRANCH  11  13
ATOM     13  C   UNL     1      34.976 -24.151 -12.961  0.00  0.00    +0.115 C 
BRANCH  13  15
ATOM     14  N   UNL     1      38.547 -26.221 -14.115  0.00  0.00    -0.242 NA
ATOM     15  C   UNL     1      36.228 -24.877 -13.366  0.00  0.00    +0.000 C 
ATOM     16  C   UNL     1      36.158 -25.899 -14.297  0.00  0.00    +0.018 C 
ATOM     17  C   UNL     1      37.442 -24.517 -12.804  0.00  0.00    +0.018 C 
ATOM     18  C   UNL     1      37.340 -26.537 -14.636  0.00  0.00    +0.099 C 
ATOM     19  C   UNL     1      38.566 -25.217 -13.210  0.00  0.00    +0.099 C 
ENDBRANCH  13  15
ENDBRANCH  11  13
ENDBRANCH   3   6
BRANCH   2  25
ATOM     20  C   UNL     1      34.061 -19.704 -20.755  0.00  0.00    -0.010 C 
ATOM     21  C   UNL     1      34.925 -20.465 -19.967  0.00  0.00    -0.002 C 
ATOM     22  C   UNL     1      32.690 -19.708 -20.490  0.00  0.00    -0.002 C 
ATOM     23  C   UNL     1      34.419 -21.229 -18.914  0.00  0.00    +0.014 C 
ATOM     24  C   UNL     1      32.186 -20.473 -19.438  0.00  0.00    +0.014 C 
ATOM     25  C   UNL     1      33.050 -21.233 -18.650  0.00  0.00    +0.051 C 
BRANCH  20  26
ATOM     26  C   UNL     1      34.614 -18.869 -21.906  0.00  0.00    +0.098 C 
ATOM     27  C   UNL     1      33.864 -17.536 -22.125  0.00  0.00    +0.018 C 
ATOM     28  C   UNL     1      34.426 -19.520 -23.294  0.00  0.00    +0.018 C 
ATOM     29  C   UNL     1      34.183 -17.107 -23.555  0.00  0.00    +0.001 C 
ATOM     30  C   UNL     1      34.539 -18.384 -24.309  0.00  0.00    +0.001 C 
BRANCH  26  32
ATOM     31  N   UNL     1      37.177 -18.403 -21.463  0.00  0.00    -0.196 NA
ATOM     32  C   UNL     1      36.052 -18.608 -21.657  0.00  0.00    +0.075 C 
ENDBRANCH  26  32
ENDBRANCH  20  26
ENDBRANCH   2  25
TORSDOF 6
ENDMDL
MODEL 6
REMARK VINA RESULT:     -10.6      6.264     10.090
REMARK  Name = 11315474
REMARK  6 active torsions:
REMARK  status: ('A' for Active; 'I' for Inactive)
REMARK    1  A    between atoms: N_2  and  C_25
REMARK    2  A    between atoms: C_3  and  C_6
REMARK    3  A    between atoms: N_11  and  C_13
REMARK    4  A    between atoms: C_13  and  C_15
REMARK    5  A    between atoms: C_20  and  C_26
REMARK    6  A    between atoms: C_26  and  C_32
REMARK                            x       y       z     vdW  Elec       q    Type
REMARK                         _______ _______ _______ _____ _____    ______ ____
ROOT
ATOM      1  O   UNL     1      34.545 -14.904 -21.964  0.00  0.00    -0.270 OA
ATOM      2  N   UNL     1      32.786 -14.317 -23.410  0.00  0.00    -0.280 N 
ATOM      3  C   UNL     1      33.739 -15.177 -22.849  0.00  0.00    +0.252 C 
ATOM      4  H   UNL     1      32.217 -14.705 -24.114  0.00  0.00    +0.155 HD
ENDROOT
BRANCH   3   6
ATOM      5  N   UNL     1      34.585 -18.797 -23.355  0.00  0.00    -0.229 NA
ATOM      6  C   UNL     1      33.773 -16.549 -23.418  0.00  0.00    +0.085 C 
ATOM      7  C   UNL     1      34.534 -17.541 -22.859  0.00  0.00    +0.133 C 
ATOM      8  C   UNL     1      33.014 -16.809 -24.535  0.00  0.00    +0.009 C 
ATOM      9  C   UNL     1      33.040 -18.091 -25.076  0.00  0.00    +0.021 C 
ATOM     10  C   UNL     1      33.835 -19.041 -24.453  0.00  0.00    +0.100 C 
ATOM     11  N   UNL     1      35.310 -17.254 -21.707  0.00  0.00    -0.314 N 
ATOM     12  H   UNL     1      35.283 -16.345 -21.334  0.00  0.00    +0.149 HD
BRANCH  11  13
ATOM     13  C   UNL     1      36.128 -18.233 -21.068  0.00  0.00    +0.115 C 
BRANCH  13  15
ATOM     14  N   UNL     1      33.705 -21.298 -19.305  0.00  0.00    -0.242 NA
ATOM     15  C   UNL     1      35.278 -19.308 -20.450  0.00  0.00    +0.000 C 
ATOM     16  C   UNL     1      33.901 -19.257 -20.587  0.00  0.00    +0.018 C 
ATOM     17  C   UNL     1      35.879 -20.339 -19.748  0.00  0.00    +0.018 C 
ATOM     18  C   UNL     1      33.163 -20.271 -19.998  0.00  0.00    +0.099 C 
ATOM     19  C   UNL     1      35.052 -21.304 -19.197  0.00  0.00    +0.099 C 
ENDBRANCH  13  15
ENDBRANCH  11  13
ENDBRANCH   3   6
BRANCH   2  25
ATOM     20  C   UNL     1      32.061 -10.304 -22.468  0.00  0.00    -0.010 C 
ATOM     21  C   UNL     1      31.524 -11.315 -21.671  0.00  0.00    -0.002 C 
ATOM     22  C   UNL     1      32.839 -10.630 -23.579  0.00  0.00    -0.002 C 
ATOM     23  C   UNL     1      31.766 -12.653 -21.985  0.00  0.00    +0.014 C 
ATOM     24  C   UNL     1      33.081 -11.968 -23.892  0.00  0.00    +0.014 C 
ATOM     25  C   UNL     1      32.544 -12.979 -23.095  0.00  0.00    +0.051 C 
BRANCH  20  26
ATOM     26  C   UNL     1      31.796  -8.841 -22.124  0.00  0.00    +0.098 C 
ATOM     27  C   UNL     1      30.617  -8.220 -22.906  0.00  0.00    +0.018 C 
ATOM     28  C   UNL     1      32.936  -7.887 -22.543  0.00  0.00    +0.018 C 
ATOM     29  C   UNL     1      30.821  -6.707 -22.838  0.00  0.00    +0.001 C 
ATOM     30  C   UNL     1      32.314  -6.493 -22.611  0.00  0.00    +0.001 C 
BRANCH  26  32
ATOM     31  N   UNL     1      31.361  -8.644 -19.524  0.00  0.00    -0.196 NA
ATOM     32  C   UNL     1      31.552  -8.731 -20.665  0.00  0.00    +0.075 C 
ENDBRANCH  26  32
ENDBRANCH  20  26
ENDBRANCH   2  25
TORSDOF 6
ENDMDL
MODEL 7
REMARK VINA RESULT:     -10.4      3.213      9.439
REMARK  Name = 11315474
REMARK  6 active torsions:
REMARK  status: ('A' for Active; 'I' for Inactive)
REMARK    1  A    between atoms: N_2  and  C_25
REMARK    2  A    between atoms: C_3  and  C_6
REMARK    3  A    between atoms: N_11  and  C_13
REMARK    4  A    between atoms: C_13  and  C_15
REMARK    5  A    between atoms: C_20  and  C_26
REMARK    6  A    between atoms: C_26  and  C_32
REMARK                            x       y       z     vdW  Elec       q    Type
REMARK                         _______ _______ _______ _____ _____    ______ ____
ROOT
ATOM      1  O   UNL     1      35.273 -18.300 -20.545  0.00  0.00    -0.270 OA
ATOM      2  N   UNL     1      33.842 -20.153 -20.761  0.00  0.00    -0.280 N 
ATOM      3  C   UNL     1      34.475 -18.977 -21.185  0.00  0.00    +0.252 C 
ATOM      4  H   UNL     1      33.227 -20.569 -21.408  0.00  0.00    +0.155 HD
ENDROOT
BRANCH   3   6
ATOM      5  N   UNL     1      33.859 -16.735 -24.130  0.00  0.00    -0.229 NA
ATOM      6  C   UNL     1      34.105 -18.509 -22.546  0.00  0.00    +0.085 C 
ATOM      7  C   UNL     1      34.188 -17.189 -22.900  0.00  0.00    +0.133 C 
ATOM      8  C   UNL     1      33.671 -19.442 -23.459  0.00  0.00    +0.009 C 
ATOM      9  C   UNL     1      33.322 -19.013 -24.736  0.00  0.00    +0.021 C 
ATOM     10  C   UNL     1      33.434 -17.661 -25.019  0.00  0.00    +0.100 C 
ATOM     11  N   UNL     1      34.639 -16.242 -21.946  0.00  0.00    -0.314 N 
ATOM     12  H   UNL     1      34.882 -16.557 -21.046  0.00  0.00    +0.149 HD
BRANCH  11  13
ATOM     13  C   UNL     1      34.752 -14.850 -22.238  0.00  0.00    +0.115 C 
BRANCH  13  15
ATOM     14  N   UNL     1      31.427 -12.699 -20.598  0.00  0.00    -0.242 NA
ATOM     15  C   UNL     1      33.585 -14.095 -21.663  0.00  0.00    +0.000 C 
ATOM     16  C   UNL     1      33.019 -13.056 -22.382  0.00  0.00    +0.018 C 
ATOM     17  C   UNL     1      33.088 -14.446 -20.419  0.00  0.00    +0.018 C 
ATOM     18  C   UNL     1      31.947 -12.393 -21.808  0.00  0.00    +0.099 C 
ATOM     19  C   UNL     1      32.013 -13.720 -19.934  0.00  0.00    +0.099 C 
ENDBRANCH  13  15
ENDBRANCH  11  13
ENDBRANCH   3   6
BRANCH   2  25
ATOM     20  C   UNL     1      34.238 -22.113 -17.084  0.00  0.00    -0.010 C 
ATOM     21  C   UNL     1      35.363 -21.584 -17.717  0.00  0.00    -0.002 C 
ATOM     22  C   UNL     1      32.980 -21.990 -17.677  0.00  0.00    -0.002 C 
ATOM     23  C   UNL     1      35.230 -20.931 -18.943  0.00  0.00    +0.014 C 
ATOM     24  C   UNL     1      32.849 -21.336 -18.902  0.00  0.00    +0.014 C 
ATOM     25  C   UNL     1      33.974 -20.806 -19.535  0.00  0.00    +0.051 C 
BRANCH  20  26
ATOM     26  C   UNL     1      34.382 -22.828 -15.744  0.00  0.00    +0.098 C 
ATOM     27  C   UNL     1      35.525 -22.275 -14.862  0.00  0.00    +0.018 C 
ATOM     28  C   UNL     1      34.821 -24.303 -15.868  0.00  0.00    +0.018 C 
ATOM     29  C   UNL     1      35.851 -23.380 -13.859  0.00  0.00    +0.001 C 
ATOM     30  C   UNL     1      35.404 -24.685 -14.509  0.00  0.00    +0.001 C 
BRANCH  26  32
ATOM     31  N   UNL     1      32.084 -22.674 -14.446  0.00  0.00    -0.196 NA
ATOM     32  C   UNL     1      33.093 -22.741 -15.016  0.00  0.00    +0.075 C 
ENDBRANCH  26  32
ENDBRANCH  20  26
ENDBRANCH   2  25
TORSDOF 6
ENDMDL
MODEL 8
REMARK VINA RESULT:      -9.7     11.037     15.376
REMARK  Name = 11315474
REMARK  6 active torsions:
REMARK  status: ('A' for Active; 'I' for Inactive)
REMARK    1  A    between atoms: N_2  and  C_25
REMARK    2  A    between atoms: C_3  and  C_6
REMARK    3  A    between atoms: N_11  and  C_13
REMARK    4  A    between atoms: C_13  and  C_15
REMARK    5  A    between atoms: C_20  and  C_26
REMARK    6  A    between atoms: C_26  and  C_32
REMARK                            x       y       z     vdW  Elec       q    Type
REMARK                         _______ _______ _______ _____ _____    ______ ____
ROOT
ATOM      1  O   UNL     1      31.557  -9.358 -23.794  0.00  0.00    -0.270 OA
ATOM      2  N   UNL     1      32.407  -7.339 -22.940  0.00  0.00    -0.280 N 
ATOM      3  C   UNL     1      31.875  -8.632 -22.857  0.00  0.00    +0.252 C 
ATOM      4  H   UNL     1      32.606  -6.899 -22.082  0.00  0.00    +0.155 HD
ENDROOT
BRANCH   3   6
ATOM      5  N   UNL     1      31.670 -10.960 -19.921  0.00  0.00    -0.229 NA
ATOM      6  C   UNL     1      31.660  -9.147 -21.479  0.00  0.00    +0.085 C 
ATOM      7  C   UNL     1      31.857 -10.464 -21.164  0.00  0.00    +0.133 C 
ATOM      8  C   UNL     1      31.254  -8.259 -20.510  0.00  0.00    +0.009 C 
ATOM      9  C   UNL     1      31.050  -8.731 -19.217  0.00  0.00    +0.021 C 
ATOM     10  C   UNL     1      31.271 -10.078 -18.976  0.00  0.00    +0.100 C 
ATOM     11  N   UNL     1      32.277 -11.365 -22.176  0.00  0.00    -0.314 N 
ATOM     12  H   UNL     1      32.418 -11.019 -23.086  0.00  0.00    +0.149 HD
BRANCH  11  13
ATOM     13  C   UNL     1      32.503 -12.751 -21.927  0.00  0.00    +0.115 C 
BRANCH  13  15
ATOM     14  N   UNL     1      33.363 -14.811 -25.586  0.00  0.00    -0.242 NA
ATOM     15  C   UNL     1      32.805 -13.474 -23.210  0.00  0.00    +0.000 C 
ATOM     16  C   UNL     1      33.408 -14.720 -23.170  0.00  0.00    +0.018 C 
ATOM     17  C   UNL     1      32.478 -12.887 -24.421  0.00  0.00    +0.018 C 
ATOM     18  C   UNL     1      33.665 -15.344 -24.380  0.00  0.00    +0.099 C 
ATOM     19  C   UNL     1      32.777 -13.593 -25.574  0.00  0.00    +0.099 C 
ENDBRANCH  13  15
ENDBRANCH  11  13
ENDBRANCH   3   6
BRANCH   2  25
ATOM     20  C   UNL     1      33.250  -5.115 -26.384  0.00  0.00    -0.010 C 
ATOM     21  C   UNL     1      34.264  -5.391 -25.467  0.00  0.00    -0.002 C 
ATOM     22  C   UNL     1      31.954  -5.580 -26.154  0.00  0.00    -0.002 C 
ATOM     23  C   UNL     1      33.982  -6.132 -24.319  0.00  0.00    +0.014 C 
ATOM     24  C   UNL     1      31.674  -6.322 -25.006  0.00  0.00    +0.014 C 
ATOM     25  C   UNL     1      32.688  -6.598 -24.088  0.00  0.00    +0.051 C 
BRANCH  20  26
ATOM     26  C   UNL     1      33.557  -4.304 -27.640  0.00  0.00    +0.098 C 
ATOM     27  C   UNL     1      33.413  -5.107 -28.952  0.00  0.00    +0.018 C 
ATOM     28  C   UNL     1      35.033  -3.863 -27.750  0.00  0.00    +0.018 C 
ATOM     29  C   UNL     1      34.223  -4.347 -30.000  0.00  0.00    +0.001 C 
ATOM     30  C   UNL     1      35.269  -3.551 -29.227  0.00  0.00    +0.001 C 
BRANCH  26  32
ATOM     31  N   UNL     1      31.973  -2.189 -27.695  0.00  0.00    -0.196 NA
ATOM     32  C   UNL     1      32.668  -3.117 -27.671  0.00  0.00    +0.075 C 
ENDBRANCH  26  32
ENDBRANCH  20  26
ENDBRANCH   2  25
TORSDOF 6
ENDMDL
MODEL 9
REMARK VINA RESULT:      -9.7     11.562     15.746
REMARK  Name = 11315474
REMARK  6 active torsions:
REMARK  status: ('A' for Active; 'I' for Inactive)
REMARK    1  A    between atoms: N_2  and  C_25
REMARK    2  A    between atoms: C_3  and  C_6
REMARK    3  A    between atoms: N_11  and  C_13
REMARK    4  A    between atoms: C_13  and  C_15
REMARK    5  A    between atoms: C_20  and  C_26
REMARK    6  A    between atoms: C_26  and  C_32
REMARK                            x       y       z     vdW  Elec       q    Type
REMARK                         _______ _______ _______ _____ _____    ______ ____
ROOT
ATOM      1  O   UNL     1      33.395  -8.602 -23.245  0.00  0.00    -0.270 OA
ATOM      2  N   UNL     1      32.319  -6.513 -23.179  0.00  0.00    -0.280 N 
ATOM      3  C   UNL     1      32.668  -7.780 -22.696  0.00  0.00    +0.252 C 
ATOM      4  H   UNL     1      31.722  -5.981 -22.604  0.00  0.00    +0.155 HD
ENDROOT
BRANCH   3   6
ATOM      5  N   UNL     1      30.965  -9.763 -20.003  0.00  0.00    -0.229 NA
ATOM      6  C   UNL     1      32.062  -8.155 -21.391  0.00  0.00    +0.085 C 
ATOM      7  C   UNL     1      31.524  -9.395 -21.178  0.00  0.00    +0.133 C 
ATOM      8  C   UNL     1      32.051  -7.216 -20.386  0.00  0.00    +0.009 C 
ATOM      9  C   UNL     1      31.485  -7.557 -19.161  0.00  0.00    +0.021 C 
ATOM     10  C   UNL     1      30.961  -8.833 -19.022  0.00  0.00    +0.100 C 
ATOM     11  N   UNL     1      31.544 -10.350 -22.226  0.00  0.00    -0.314 N 
ATOM     12  H   UNL     1      31.947 -10.098 -23.087  0.00  0.00    +0.149 HD
BRANCH  11  13
ATOM     13  C   UNL     1      31.003 -11.663 -22.082  0.00  0.00    +0.115 C 
BRANCH  13  15
ATOM     14  N   UNL     1      34.150 -14.558 -21.782  0.00  0.00    -0.242 NA
ATOM     15  C   UNL     1      32.107 -12.678 -21.977  0.00  0.00    +0.000 C 
ATOM     16  C   UNL     1      32.823 -13.032 -23.108  0.00  0.00    +0.018 C 
ATOM     17  C   UNL     1      32.397 -13.251 -20.750  0.00  0.00    +0.018 C 
ATOM     18  C   UNL     1      33.830 -13.972 -22.958  0.00  0.00    +0.099 C 
ATOM     19  C   UNL     1      33.422 -14.181 -20.706  0.00  0.00    +0.099 C 
ENDBRANCH  13  15
ENDBRANCH  11  13
ENDBRANCH   3   6
BRANCH   2  25
ATOM     20  C   UNL     1      33.502  -4.707 -26.765  0.00  0.00    -0.010 C 
ATOM     21  C   UNL     1      32.371  -5.522 -26.735  0.00  0.00    -0.002 C 
ATOM     22  C   UNL     1      34.240  -4.493 -25.600  0.00  0.00    -0.002 C 
ATOM     23  C   UNL     1      31.977  -6.124 -25.539  0.00  0.00    +0.014 C 
ATOM     24  C   UNL     1      33.845  -5.095 -24.405  0.00  0.00    +0.014 C 
ATOM     25  C   UNL     1      32.713  -5.911 -24.375  0.00  0.00    +0.051 C 
BRANCH  20  26
ATOM     26  C   UNL     1      33.933  -4.048 -28.073  0.00  0.00    +0.098 C 
ATOM     27  C   UNL     1      35.333  -3.397 -28.011  0.00  0.00    +0.018 C 
ATOM     28  C   UNL     1      33.078  -2.823 -28.464  0.00  0.00    +0.018 C 
ATOM     29  C   UNL     1      35.376  -2.390 -29.158  0.00  0.00    +0.001 C 
ATOM     30  C   UNL     1      33.926  -2.016 -29.445  0.00  0.00    +0.001 C 
BRANCH  26  32
ATOM     31  N   UNL     1      33.859  -5.857 -29.999  0.00  0.00    -0.196 NA
ATOM     32  C   UNL     1      33.892  -5.063 -29.154  0.00  0.00    +0.075 C 
ENDBRANCH  26  32
ENDBRANCH  20  26
ENDBRANCH   2  25
TORSDOF 6
ENDMDL
