MODEL 1
REMARK VINA RESULT:     -10.8      0.000      0.000
REMARK  Name = 446716
REMARK  5 active torsions:
REMARK  status: ('A' for Active; 'I' for Inactive)
REMARK    1  A    between atoms: C_1  and  C_15
REMARK    2  A    between atoms: C_2  and  O_13
REMARK    3  A    between atoms: C_4  and  N_9
REMARK    4  A    between atoms: C_5  and  N_12
REMARK    5  A    between atoms: C_15  and  C_18
REMARK                            x       y       z     vdW  Elec       q    Type
REMARK                         _______ _______ _______ _____ _____    ______ ____
ROOT
ATOM      1  C   UNL     1      34.486 -23.940 -14.059  0.00  0.00    +0.019 C 
ATOM      2  C   UNL     1      34.667 -23.785 -12.704  0.00  0.00    +0.152 C 
ATOM      3  C   UNL     1      35.204 -24.840 -14.811  0.00  0.00    +0.023 C 
ATOM      4  C   UNL     1      35.621 -24.576 -12.065  0.00  0.00    +0.178 C 
ATOM      5  C   UNL     1      36.159 -25.632 -14.171  0.00  0.00    +0.144 C 
ATOM      6  C   UNL     1      36.366 -25.500 -12.798  0.00  0.00    +0.051 C 
ENDROOT
BRANCH   4   9
ATOM      7  O   UNL     1      34.927 -24.769  -9.873  0.00  0.00    -0.126 OA
ATOM      8  O   UNL     1      36.960 -24.042 -10.266  0.00  0.00    -0.126 OA
ATOM      9  N   UNL     1      35.847 -24.456 -10.666  0.00  0.00    +0.061 N 
ENDBRANCH   4   9
BRANCH   5  12
ATOM     10  O   UNL     1      36.431 -27.045 -15.972  0.00  0.00    -0.126 OA
ATOM     11  O   UNL     1      38.055 -26.901 -14.502  0.00  0.00    -0.126 OA
ATOM     12  N   UNL     1      36.917 -26.571 -14.917  0.00  0.00    +0.058 N 
ENDBRANCH   5  12
BRANCH   2  13
ATOM     13  O   UNL     1      33.933 -22.879 -11.993  0.00  0.00    -0.504 OA
ATOM     14  H   UNL     1      33.977 -21.968 -12.209  0.00  0.00    +0.292 HD
ENDBRANCH   2  13
BRANCH   1  15
ATOM     15  C   UNL     1      33.442 -23.079 -14.780  0.00  0.00    +0.048 C 
ATOM     16  C   UNL     1      32.069 -23.795 -14.833  0.00  0.00    +0.010 C 
BRANCH  15  18
ATOM     17 CL   UNL     1      35.387 -20.963 -20.050  0.00  0.00    -0.082 Cl
ATOM     18  C   UNL     1      33.925 -22.554 -16.090  0.00  0.00    -0.018 C 
ATOM     19  C   UNL     1      35.219 -22.046 -16.203  0.00  0.00    -0.003 C 
ATOM     20  C   UNL     1      33.084 -22.570 -17.202  0.00  0.00    -0.003 C 
ATOM     21  C   UNL     1      35.672 -21.554 -17.427  0.00  0.00    +0.011 C 
ATOM     22  C   UNL     1      33.535 -22.078 -18.427  0.00  0.00    +0.011 C 
ATOM     23  C   UNL     1      34.829 -21.570 -18.539  0.00  0.00    +0.058 C 
ENDBRANCH  15  18
ENDBRANCH   1  15
TORSDOF 5
ENDMDL
MODEL 2
REMARK VINA RESULT:      -9.5      8.823     11.581
REMARK  Name = 446716
REMARK  5 active torsions:
REMARK  status: ('A' for Active; 'I' for Inactive)
REMARK    1  A    between atoms: C_1  and  C_15
REMARK    2  A    between atoms: C_2  and  O_13
REMARK    3  A    between atoms: C_4  and  N_9
REMARK    4  A    between atoms: C_5  and  N_12
REMARK    5  A    between atoms: C_15  and  C_18
REMARK                            x       y       z     vdW  Elec       q    Type
REMARK                         _______ _______ _______ _____ _____    ______ ____
ROOT
ATOM      1  C   UNL     1      34.949 -17.077 -21.699  0.00  0.00    +0.019 C 
ATOM      2  C   UNL     1      34.515 -17.193 -22.998  0.00  0.00    +0.152 C 
ATOM      3  C   UNL     1      34.624 -16.009 -20.894  0.00  0.00    +0.023 C 
ATOM      4  C   UNL     1      33.709 -16.183 -23.523  0.00  0.00    +0.178 C 
ATOM      5  C   UNL     1      33.817 -15.000 -21.420  0.00  0.00    +0.144 C 
ATOM      6  C   UNL     1      33.359 -15.087 -22.735  0.00  0.00    +0.051 C 
ENDROOT
BRANCH   4   9
ATOM      7  O   UNL     1      32.621 -17.284 -25.234  0.00  0.00    -0.126 OA
ATOM      8  O   UNL     1      33.437 -15.286 -25.630  0.00  0.00    -0.126 OA
ATOM      9  N   UNL     1      33.233 -16.254 -24.862  0.00  0.00    +0.061 N 
ENDBRANCH   4   9
BRANCH   5  12
ATOM     10  O   UNL     1      34.348 -13.056 -20.299  0.00  0.00    -0.126 OA
ATOM     11  O   UNL     1      32.269 -13.758 -20.246  0.00  0.00    -0.126 OA
ATOM     12  N   UNL     1      33.462 -13.885 -20.616  0.00  0.00    +0.058 N 
ENDBRANCH   5  12
BRANCH   2  13
ATOM     13  O   UNL     1      34.861 -18.268 -23.764  0.00  0.00    -0.504 OA
ATOM     14  H   UNL     1      34.520 -18.354 -24.633  0.00  0.00    +0.292 HD
ENDBRANCH   2  13
BRANCH   1  15
ATOM     15  C   UNL     1      35.837 -18.175 -21.102  0.00  0.00    +0.048 C 
ATOM     16  C   UNL     1      36.900 -18.651 -22.125  0.00  0.00    +0.010 C 
BRANCH  15  18
ATOM     17 CL   UNL     1      32.694 -22.582 -18.507  0.00  0.00    -0.082 Cl
ATOM     18  C   UNL     1      35.056 -19.269 -20.457  0.00  0.00    -0.018 C 
ATOM     19  C   UNL     1      35.708 -20.231 -19.686  0.00  0.00    -0.003 C 
ATOM     20  C   UNL     1      33.673 -19.334 -20.626  0.00  0.00    -0.003 C 
ATOM     21  C   UNL     1      34.978 -21.255 -19.082  0.00  0.00    +0.011 C 
ATOM     22  C   UNL     1      32.942 -20.357 -20.023  0.00  0.00    +0.011 C 
ATOM     23  C   UNL     1      33.595 -21.318 -19.251  0.00  0.00    +0.058 C 
ENDBRANCH  15  18
ENDBRANCH   1  15
TORSDOF 5
ENDMDL
MODEL 3
REMARK VINA RESULT:      -9.4      9.940     12.712
REMARK  Name = 446716
REMARK  5 active torsions:
REMARK  status: ('A' for Active; 'I' for Inactive)
REMARK    1  A    between atoms: C_1  and  C_15
REMARK    2  A    between atoms: C_2  and  O_13
REMARK    3  A    between atoms: C_4  and  N_9
REMARK    4  A    between atoms: C_5  and  N_12
REMARK    5  A    between atoms: C_15  and  C_18
REMARK                            x       y       z     vdW  Elec       q    Type
REMARK                         _______ _______ _______ _____ _____    ______ ____
ROOT
ATOM      1  C   UNL     1      34.034 -16.310 -23.366  0.00  0.00    +0.019 C 
ATOM      2  C   UNL     1      33.621 -15.523 -24.415  0.00  0.00    +0.152 C 
ATOM      3  C   UNL     1      34.151 -15.839 -22.079  0.00  0.00    +0.023 C 
ATOM      4  C   UNL     1      33.308 -14.187 -24.163  0.00  0.00    +0.178 C 
ATOM      5  C   UNL     1      33.837 -14.503 -21.827  0.00  0.00    +0.144 C 
ATOM      6  C   UNL     1      33.415 -13.677 -22.869  0.00  0.00    +0.051 C 
ENDROOT
BRANCH   4   9
ATOM      7  O   UNL     1      32.951 -13.736 -26.397  0.00  0.00    -0.126 OA
ATOM      8  O   UNL     1      32.436 -12.193 -24.924  0.00  0.00    -0.126 OA
ATOM      9  N   UNL     1      32.878 -13.330 -25.213  0.00  0.00    +0.061 N 
ENDBRANCH   4   9
BRANCH   5  12
ATOM     10  O   UNL     1      33.870 -14.774 -19.537  0.00  0.00    -0.126 OA
ATOM     11  O   UNL     1      34.117 -12.751 -20.354  0.00  0.00    -0.126 OA
ATOM     12  N   UNL     1      33.946 -13.985 -20.509  0.00  0.00    +0.058 N 
ENDBRANCH   5  12
BRANCH   2  13
ATOM     13  O   UNL     1      33.519 -16.028 -25.679  0.00  0.00    -0.504 OA
ATOM     14  H   UNL     1      32.757 -16.514 -25.930  0.00  0.00    +0.292 HD
ENDBRANCH   2  13
BRANCH   1  15
ATOM     15  C   UNL     1      34.383 -17.781 -23.623  0.00  0.00    +0.048 C 
ATOM     16  C   UNL     1      33.280 -18.479 -24.457  0.00  0.00    +0.010 C 
BRANCH  15  18
ATOM     17 CL   UNL     1      36.009 -20.710 -18.641  0.00  0.00    -0.082 Cl
ATOM     18  C   UNL     1      34.786 -18.508 -22.385  0.00  0.00    -0.018 C 
ATOM     19  C   UNL     1      36.084 -18.376 -21.890  0.00  0.00    -0.003 C 
ATOM     20  C   UNL     1      33.868 -19.321 -21.721  0.00  0.00    -0.003 C 
ATOM     21  C   UNL     1      36.462 -19.057 -20.732  0.00  0.00    +0.011 C 
ATOM     22  C   UNL     1      34.245 -20.002 -20.564  0.00  0.00    +0.011 C 
ATOM     23  C   UNL     1      35.542 -19.869 -20.069  0.00  0.00    +0.058 C 
ENDBRANCH  15  18
ENDBRANCH   1  15
TORSDOF 5
ENDMDL
MODEL 4
REMARK VINA RESULT:      -9.2      2.986      4.270
REMARK  Name = 446716
REMARK  5 active torsions:
REMARK  status: ('A' for Active; 'I' for Inactive)
REMARK    1  A    between atoms: C_1  and  C_15
REMARK    2  A    between atoms: C_2  and  O_13
REMARK    3  A    between atoms: C_4  and  N_9
REMARK    4  A    between atoms: C_5  and  N_12
REMARK    5  A    between atoms: C_15  and  C_18
REMARK                            x       y       z     vdW  Elec       q    Type
REMARK                         _______ _______ _______ _____ _____    ______ ____
ROOT
ATOM      1  C   UNL     1      33.725 -22.475 -17.110  0.00  0.00    +0.019 C 
ATOM      2  C   UNL     1      32.758 -22.703 -16.160  0.00  0.00    +0.152 C 
ATOM      3  C   UNL     1      35.057 -22.324 -16.799  0.00  0.00    +0.023 C 
ATOM      4  C   UNL     1      33.143 -22.786 -14.823  0.00  0.00    +0.178 C 
ATOM      5  C   UNL     1      35.442 -22.406 -15.461  0.00  0.00    +0.144 C 
ATOM      6  C   UNL     1      34.485 -22.638 -14.473  0.00  0.00    +0.051 C 
ENDROOT
BRANCH   4   9
ATOM      7  O   UNL     1      31.123 -22.349 -13.799  0.00  0.00    -0.126 OA
ATOM      8  O   UNL     1      32.421 -23.891 -12.933  0.00  0.00    -0.126 OA
ATOM      9  N   UNL     1      32.182 -23.020 -13.801  0.00  0.00    +0.061 N 
ENDBRANCH   4   9
BRANCH   5  12
ATOM     10  O   UNL     1      37.643 -21.979 -16.001  0.00  0.00    -0.126 OA
ATOM     11  O   UNL     1      37.145 -22.403 -13.906  0.00  0.00    -0.126 OA
ATOM     12  N   UNL     1      36.809 -22.256 -15.106  0.00  0.00    +0.058 N 
ENDBRANCH   5  12
BRANCH   2  13
ATOM     13  O   UNL     1      31.446 -22.847 -16.510  0.00  0.00    -0.504 OA
ATOM     14  H   UNL     1      31.141 -22.517 -17.333  0.00  0.00    +0.292 HD
ENDBRANCH   2  13
BRANCH   1  15
ATOM     15  C   UNL     1      33.322 -22.380 -18.586  0.00  0.00    +0.048 C 
ATOM     16  C   UNL     1      33.425 -23.761 -19.283  0.00  0.00    +0.010 C 
BRANCH  15  18
ATOM     17 CL   UNL     1      36.055 -17.890 -21.485  0.00  0.00    -0.082 Cl
ATOM     18  C   UNL     1      34.001 -21.265 -19.306  0.00  0.00    -0.018 C 
ATOM     19  C   UNL     1      33.247 -20.337 -20.025  0.00  0.00    -0.003 C 
ATOM     20  C   UNL     1      35.390 -21.148 -19.262  0.00  0.00    -0.003 C 
ATOM     21  C   UNL     1      33.882 -19.293 -20.699  0.00  0.00    +0.011 C 
ATOM     22  C   UNL     1      36.026 -20.105 -19.935  0.00  0.00    +0.011 C 
ATOM     23  C   UNL     1      35.271 -19.177 -20.653  0.00  0.00    +0.058 C 
ENDBRANCH  15  18
ENDBRANCH   1  15
TORSDOF 5
ENDMDL
MODEL 5
REMARK VINA RESULT:      -9.2      1.025      3.395
REMARK  Name = 446716
REMARK  5 active torsions:
REMARK  status: ('A' for Active; 'I' for Inactive)
REMARK    1  A    between atoms: C_1  and  C_15
REMARK    2  A    between atoms: C_2  and  O_13
REMARK    3  A    between atoms: C_4  and  N_9
REMARK    4  A    between atoms: C_5  and  N_12
REMARK    5  A    between atoms: C_15  and  C_18
REMARK                            x       y       z     vdW  Elec       q    Type
REMARK                         _______ _______ _______ _____ _____    ______ ____
ROOT
ATOM      1  C   UNL     1      34.628 -23.790 -13.627  0.00  0.00    +0.019 C 
ATOM      2  C   UNL     1      35.528 -24.649 -14.214  0.00  0.00    +0.152 C 
ATOM      3  C   UNL     1      34.615 -23.529 -12.277  0.00  0.00    +0.023 C 
ATOM      4  C   UNL     1      36.469 -25.283 -13.403  0.00  0.00    +0.178 C 
ATOM      5  C   UNL     1      35.557 -24.163 -11.466  0.00  0.00    +0.144 C 
ATOM      6  C   UNL     1      36.484 -25.040 -12.030  0.00  0.00    +0.051 C 
ENDROOT
BRANCH   4   9
ATOM      7  O   UNL     1      38.606 -26.140 -13.547  0.00  0.00    -0.126 OA
ATOM      8  O   UNL     1      37.051 -26.987 -14.843  0.00  0.00    -0.126 OA
ATOM      9  N   UNL     1      37.422 -26.181 -13.959  0.00  0.00    +0.061 N 
ENDBRANCH   4   9
BRANCH   5  12
ATOM     10  O   UNL     1      36.257 -22.962  -9.626  0.00  0.00    -0.126 OA
ATOM     11  O   UNL     1      34.897 -24.657  -9.313  0.00  0.00    -0.126 OA
ATOM     12  N   UNL     1      35.571 -23.915 -10.068  0.00  0.00    +0.058 N 
ENDBRANCH   5  12
BRANCH   2  13
ATOM     13  O   UNL     1      35.508 -24.882 -15.559  0.00  0.00    -0.504 OA
ATOM     14  H   UNL     1      35.839 -25.690 -15.899  0.00  0.00    +0.292 HD
ENDBRANCH   2  13
BRANCH   1  15
ATOM     15  C   UNL     1      33.585 -23.083 -14.501  0.00  0.00    +0.048 C 
ATOM     16  C   UNL     1      32.321 -23.961 -14.681  0.00  0.00    +0.010 C 
BRANCH  15  18
ATOM     17 CL   UNL     1      35.888 -20.904 -19.599  0.00  0.00    -0.082 Cl
ATOM     18  C   UNL     1      34.157 -22.543 -15.768  0.00  0.00    -0.018 C 
ATOM     19  C   UNL     1      35.427 -21.965 -15.769  0.00  0.00    -0.003 C 
ATOM     20  C   UNL     1      33.423 -22.613 -16.952  0.00  0.00    -0.003 C 
ATOM     21  C   UNL     1      35.962 -21.459 -16.954  0.00  0.00    +0.011 C 
ATOM     22  C   UNL     1      33.957 -22.107 -18.137  0.00  0.00    +0.011 C 
ATOM     23  C   UNL     1      35.227 -21.530 -18.138  0.00  0.00    +0.058 C 
ENDBRANCH  15  18
ENDBRANCH   1  15
TORSDOF 5
ENDMDL
MODEL 6
REMARK VINA RESULT:      -9.2      2.436      4.337
REMARK  Name = 446716
REMARK  5 active torsions:
REMARK  status: ('A' for Active; 'I' for Inactive)
REMARK    1  A    between atoms: C_1  and  C_15
REMARK    2  A    between atoms: C_2  and  O_13
REMARK    3  A    between atoms: C_4  and  N_9
REMARK    4  A    between atoms: C_5  and  N_12
REMARK    5  A    between atoms: C_15  and  C_18
REMARK                            x       y       z     vdW  Elec       q    Type
REMARK                         _______ _______ _______ _____ _____    ______ ____
ROOT
ATOM      1  C   UNL     1      36.545 -23.200 -14.597  0.00  0.00    +0.019 C 
ATOM      2  C   UNL     1      37.815 -23.713 -14.720  0.00  0.00    +0.152 C 
ATOM      3  C   UNL     1      35.808 -23.297 -13.439  0.00  0.00    +0.023 C 
ATOM      4  C   UNL     1      38.381 -24.361 -13.622  0.00  0.00    +0.178 C 
ATOM      5  C   UNL     1      36.375 -23.945 -12.341  0.00  0.00    +0.144 C 
ATOM      6  C   UNL     1      37.661 -24.476 -12.432  0.00  0.00    +0.051 C 
ENDROOT
BRANCH   4   9
ATOM      7  O   UNL     1      39.860 -26.116 -13.399  0.00  0.00    -0.126 OA
ATOM      8  O   UNL     1      40.637 -24.172 -14.056  0.00  0.00    -0.126 OA
ATOM      9  N   UNL     1      39.691 -24.910 -13.696  0.00  0.00    +0.061 N 
ENDBRANCH   4   9
BRANCH   5  12
ATOM     10  O   UNL     1      36.199 -23.754 -10.049  0.00  0.00    -0.126 OA
ATOM     11  O   UNL     1      34.455 -24.468 -11.176  0.00  0.00    -0.126 OA
ATOM     12  N   UNL     1      35.642 -24.061 -11.130  0.00  0.00    +0.058 N 
ENDBRANCH   5  12
BRANCH   2  13
ATOM     13  O   UNL     1      38.513 -23.597 -15.887  0.00  0.00    -0.504 OA
ATOM     14  H   UNL     1      39.089 -24.285 -16.159  0.00  0.00    +0.292 HD
ENDBRANCH   2  13
BRANCH   1  15
ATOM     15  C   UNL     1      35.905 -22.486 -15.793  0.00  0.00    +0.048 C 
ATOM     16  C   UNL     1      36.454 -21.044 -15.940  0.00  0.00    +0.010 C 
BRANCH  15  18
ATOM     17 CL   UNL     1      29.917 -22.916 -15.854  0.00  0.00    -0.082 Cl
ATOM     18  C   UNL     1      34.417 -22.593 -15.807  0.00  0.00    -0.018 C 
ATOM     19  C   UNL     1      33.730 -22.594 -17.021  0.00  0.00    -0.003 C 
ATOM     20  C   UNL     1      33.712 -22.692 -14.608  0.00  0.00    -0.003 C 
ATOM     21  C   UNL     1      32.339 -22.694 -17.036  0.00  0.00    +0.011 C 
ATOM     22  C   UNL     1      32.321 -22.793 -14.622  0.00  0.00    +0.011 C 
ATOM     23  C   UNL     1      31.635 -22.794 -15.836  0.00  0.00    +0.058 C 
ENDBRANCH  15  18
ENDBRANCH   1  15
TORSDOF 5
ENDMDL
MODEL 7
REMARK VINA RESULT:      -9.0      8.918     11.389
REMARK  Name = 446716
REMARK  5 active torsions:
REMARK  status: ('A' for Active; 'I' for Inactive)
REMARK    1  A    between atoms: C_1  and  C_15
REMARK    2  A    between atoms: C_2  and  O_13
REMARK    3  A    between atoms: C_4  and  N_9
REMARK    4  A    between atoms: C_5  and  N_12
REMARK    5  A    between atoms: C_15  and  C_18
REMARK                            x       y       z     vdW  Elec       q    Type
REMARK                         _______ _______ _______ _____ _____    ______ ____
ROOT
ATOM      1  C   UNL     1      34.785 -16.718 -21.819  0.00  0.00    +0.019 C 
ATOM      2  C   UNL     1      34.279 -15.744 -20.989  0.00  0.00    +0.152 C 
ATOM      3  C   UNL     1      34.474 -16.795 -23.157  0.00  0.00    +0.023 C 
ATOM      4  C   UNL     1      33.412 -14.794 -21.528  0.00  0.00    +0.178 C 
ATOM      5  C   UNL     1      33.607 -15.843 -23.696  0.00  0.00    +0.144 C 
ATOM      6  C   UNL     1      33.077 -14.843 -22.881  0.00  0.00    +0.051 C 
ENDROOT
BRANCH   4   9
ATOM      7  O   UNL     1      33.203 -12.578 -20.922  0.00  0.00    -0.126 OA
ATOM      8  O   UNL     1      32.048 -14.079 -19.812  0.00  0.00    -0.126 OA
ATOM      9  N   UNL     1      32.861 -13.767 -20.714  0.00  0.00    +0.061 N 
ENDBRANCH   4   9
BRANCH   5  12
ATOM     10  O   UNL     1      33.480 -14.888 -25.790  0.00  0.00    -0.126 OA
ATOM     11  O   UNL     1      32.759 -16.946 -25.535  0.00  0.00    -0.126 OA
ATOM     12  N   UNL     1      33.266 -15.894 -25.073  0.00  0.00    +0.058 N 
ENDBRANCH   5  12
BRANCH   2  13
ATOM     13  O   UNL     1      34.612 -15.703 -19.666  0.00  0.00    -0.504 OA
ATOM     14  H   UNL     1      34.019 -15.325 -19.045  0.00  0.00    +0.292 HD
ENDBRANCH   2  13
BRANCH   1  15
ATOM     15  C   UNL     1      35.739 -17.772 -21.246  0.00  0.00    +0.048 C 
ATOM     16  C   UNL     1      36.835 -18.151 -22.274  0.00  0.00    +0.010 C 
BRANCH  15  18
ATOM     17 CL   UNL     1      32.870 -22.435 -18.784  0.00  0.00    -0.082 Cl
ATOM     18  C   UNL     1      35.027 -18.931 -20.635  0.00  0.00    -0.018 C 
ATOM     19  C   UNL     1      33.646 -19.059 -20.785  0.00  0.00    -0.003 C 
ATOM     20  C   UNL     1      35.740 -19.887 -19.912  0.00  0.00    -0.003 C 
ATOM     21  C   UNL     1      32.978 -20.142 -20.213  0.00  0.00    +0.011 C 
ATOM     22  C   UNL     1      35.074 -20.971 -19.340  0.00  0.00    +0.011 C 
ATOM     23  C   UNL     1      33.693 -21.098 -19.491  0.00  0.00    +0.058 C 
ENDBRANCH  15  18
ENDBRANCH   1  15
TORSDOF 5
ENDMDL
MODEL 8
REMARK VINA RESULT:      -8.9      1.968      3.705
REMARK  Name = 446716
REMARK  5 active torsions:
REMARK  status: ('A' for Active; 'I' for Inactive)
REMARK    1  A    between atoms: C_1  and  C_15
REMARK    2  A    between atoms: C_2  and  O_13
REMARK    3  A    between atoms: C_4  and  N_9
REMARK    4  A    between atoms: C_5  and  N_12
REMARK    5  A    between atoms: C_15  and  C_18
REMARK                            x       y       z     vdW  Elec       q    Type
REMARK                         _______ _______ _______ _____ _____    ______ ____
ROOT
ATOM      1  C   UNL     1      35.844 -22.955 -15.426  0.00  0.00    +0.019 C 
ATOM      2  C   UNL     1      36.660 -23.857 -14.785  0.00  0.00    +0.152 C 
ATOM      3  C   UNL     1      34.535 -22.740 -15.060  0.00  0.00    +0.023 C 
ATOM      4  C   UNL     1      36.137 -24.587 -13.717  0.00  0.00    +0.178 C 
ATOM      5  C   UNL     1      34.013 -23.471 -13.992  0.00  0.00    +0.144 C 
ATOM      6  C   UNL     1      34.814 -24.394 -13.321  0.00  0.00    +0.051 C 
ENDROOT
BRANCH   4   9
ATOM      7  O   UNL     1      37.131 -25.376 -11.791  0.00  0.00    -0.126 OA
ATOM      8  O   UNL     1      37.428 -26.497 -13.655  0.00  0.00    -0.126 OA
ATOM      9  N   UNL     1      36.939 -25.533 -13.021  0.00  0.00    +0.061 N 
ENDBRANCH   4   9
BRANCH   5  12
ATOM     10  O   UNL     1      31.966 -22.429 -14.199  0.00  0.00    -0.126 OA
ATOM     11  O   UNL     1      32.211 -23.949 -12.634  0.00  0.00    -0.126 OA
ATOM     12  N   UNL     1      32.666 -23.273 -13.590  0.00  0.00    +0.058 N 
ENDBRANCH   5  12
BRANCH   2  13
ATOM     13  O   UNL     1      37.954 -24.041 -15.178  0.00  0.00    -0.504 OA
ATOM     14  H   UNL     1      38.250 -23.691 -15.996  0.00  0.00    +0.292 HD
ENDBRANCH   2  13
BRANCH   1  15
ATOM     15  C   UNL     1      36.399 -22.143 -16.602  0.00  0.00    +0.048 C 
ATOM     16  C   UNL     1      37.303 -20.986 -16.104  0.00  0.00    +0.010 C 
BRANCH  15  18
ATOM     17 CL   UNL     1      32.167 -20.516 -20.536  0.00  0.00    -0.082 Cl
ATOM     18  C   UNL     1      35.348 -21.740 -17.579  0.00  0.00    -0.018 C 
ATOM     19  C   UNL     1      35.681 -20.936 -18.670  0.00  0.00    -0.003 C 
ATOM     20  C   UNL     1      34.031 -22.164 -17.403  0.00  0.00    -0.003 C 
ATOM     21  C   UNL     1      34.698 -20.558 -19.584  0.00  0.00    +0.011 C 
ATOM     22  C   UNL     1      33.047 -21.786 -18.317  0.00  0.00    +0.011 C 
ATOM     23  C   UNL     1      33.381 -20.983 -19.408  0.00  0.00    +0.058 C 
ENDBRANCH  15  18
ENDBRANCH   1  15
TORSDOF 5
ENDMDL
MODEL 9
REMARK VINA RESULT:      -8.8      3.762      5.629
REMARK  Name = 446716
REMARK  5 active torsions:
REMARK  status: ('A' for Active; 'I' for Inactive)
REMARK    1  A    between atoms: C_1  and  C_15
REMARK    2  A    between atoms: C_2  and  O_13
REMARK    3  A    between atoms: C_4  and  N_9
REMARK    4  A    between atoms: C_5  and  N_12
REMARK    5  A    between atoms: C_15  and  C_18
REMARK                            x       y       z     vdW  Elec       q    Type
REMARK                         _______ _______ _______ _____ _____    ______ ____
ROOT
ATOM      1  C   UNL     1      33.927 -23.841 -13.813  0.00  0.00    +0.019 C 
ATOM      2  C   UNL     1      32.573 -24.064 -13.717  0.00  0.00    +0.152 C 
ATOM      3  C   UNL     1      34.510 -23.244 -14.906  0.00  0.00    +0.023 C 
ATOM      4  C   UNL     1      31.756 -23.667 -14.775  0.00  0.00    +0.178 C 
ATOM      5  C   UNL     1      33.693 -22.846 -15.964  0.00  0.00    +0.144 C 
ATOM      6  C   UNL     1      32.315 -23.058 -15.898  0.00  0.00    +0.051 C 
ENDROOT
BRANCH   4   9
ATOM      7  O   UNL     1      29.914 -25.043 -14.588  0.00  0.00    -0.126 OA
ATOM      8  O   UNL     1      29.587 -22.886 -14.825  0.00  0.00    -0.126 OA
ATOM      9  N   UNL     1      30.350 -23.875 -14.727  0.00  0.00    +0.061 N 
ENDBRANCH   4   9
BRANCH   5  12
ATOM     10  O   UNL     1      33.516 -21.905 -18.062  0.00  0.00    -0.126 OA
ATOM     11  O   UNL     1      35.500 -22.016 -17.130  0.00  0.00    -0.126 OA
ATOM     12  N   UNL     1      34.263 -22.226 -17.107  0.00  0.00    +0.058 N 
ENDBRANCH   5  12
BRANCH   2  13
ATOM     13  O   UNL     1      32.033 -24.661 -12.615  0.00  0.00    -0.504 OA
ATOM     14  H   UNL     1      32.178 -24.295 -11.764  0.00  0.00    +0.292 HD
ENDBRANCH   2  13
BRANCH   1  15
ATOM     15  C   UNL     1      34.842 -24.271 -12.660  0.00  0.00    +0.048 C 
ATOM     16  C   UNL     1      34.836 -23.220 -11.521  0.00  0.00    +0.010 C 
BRANCH  15  18
ATOM     17 CL   UNL     1      40.301 -25.956 -14.504  0.00  0.00    -0.082 Cl
ATOM     18  C   UNL     1      36.198 -24.689 -13.119  0.00  0.00    -0.018 C 
ATOM     19  C   UNL     1      36.335 -25.748 -14.016  0.00  0.00    -0.003 C 
ATOM     20  C   UNL     1      37.330 -24.022 -12.650  0.00  0.00    -0.003 C 
ATOM     21  C   UNL     1      37.604 -26.140 -14.445  0.00  0.00    +0.011 C 
ATOM     22  C   UNL     1      38.599 -24.414 -13.078  0.00  0.00    +0.011 C 
ATOM     23  C   UNL     1      38.735 -25.472 -13.976  0.00  0.00    +0.058 C 
ENDBRANCH  15  18
ENDBRANCH   1  15
TORSDOF 5
ENDMDL
