MODEL 1
REMARK VINA RESULT:     -11.0      0.000      0.000
REMARK  Name = 5288193
REMARK  3 active torsions:
REMARK  status: ('A' for Active; 'I' for Inactive)
REMARK    1  A    between atoms: C_1  and  C_9
REMARK    2  A    between atoms: C_4  and  C_16
REMARK    3  A    between atoms: C_16  and  O_17
REMARK                            x       y       z     vdW  Elec       q    Type
REMARK                         _______ _______ _______ _____ _____    ______ ____
ROOT
ATOM      1  C   UNL     1      34.281 -18.848 -21.345  0.00  0.00    +0.000 C 
ATOM      2  C   UNL     1      34.753 -17.563 -21.080  0.00  0.00    +0.000 C 
ATOM      3  C   UNL     1      33.783 -19.162 -22.610  0.00  0.00    +0.000 C 
ATOM      4  C   UNL     1      34.229 -16.903 -23.344  0.00  0.00    +0.075 C 
ATOM      5  C   UNL     1      34.726 -16.590 -22.079  0.00  0.00    +0.006 C 
ATOM      6  C   UNL     1      33.757 -18.188 -23.609  0.00  0.00    +0.006 C 
ENDROOT
BRANCH   1   9
ATOM      7  F   UNL     1      31.997 -21.934 -18.414  0.00  0.00    -0.204 F 
ATOM      8  F   UNL     1      36.721 -21.639 -18.250  0.00  0.00    -0.204 F 
ATOM      9  C   UNL     1      34.307 -19.858 -20.308  0.00  0.00    +0.004 C 
ATOM     10  C   UNL     1      35.525 -20.269 -19.768  0.00  0.00    +0.030 C 
ATOM     11  C   UNL     1      33.115 -20.420 -19.852  0.00  0.00    +0.030 C 
ATOM     12  C   UNL     1      33.141 -21.394 -18.853  0.00  0.00    +0.142 C 
ATOM     13  C   UNL     1      35.551 -21.243 -18.769  0.00  0.00    +0.142 C 
ATOM     14  C   UNL     1      34.360 -21.806 -18.313  0.00  0.00    +0.059 C 
ENDBRANCH   1   9
BRANCH   4  16
ATOM     15  O   UNL     1      33.470 -15.907 -25.383  0.00  0.00    -0.245 OA
ATOM     16  C   UNL     1      34.200 -15.889 -24.386  0.00  0.00    +0.338 C 
BRANCH  16  17
ATOM     17  O   UNL     1      35.082 -14.879 -24.153  0.00  0.00    -0.477 OA
ATOM     18  H   UNL     1      35.367 -14.334 -24.860  0.00  0.00    +0.295 HD
ENDBRANCH  16  17
ENDBRANCH   4  16
TORSDOF 3
ENDMDL
MODEL 2
REMARK VINA RESULT:     -11.0      0.037      2.003
REMARK  Name = 5288193
REMARK  3 active torsions:
REMARK  status: ('A' for Active; 'I' for Inactive)
REMARK    1  A    between atoms: C_1  and  C_9
REMARK    2  A    between atoms: C_4  and  C_16
REMARK    3  A    between atoms: C_16  and  O_17
REMARK                            x       y       z     vdW  Elec       q    Type
REMARK                         _______ _______ _______ _____ _____    ______ ____
ROOT
ATOM      1  C   UNL     1      34.292 -18.841 -21.368  0.00  0.00    +0.000 C 
ATOM      2  C   UNL     1      34.755 -17.555 -21.093  0.00  0.00    +0.000 C 
ATOM      3  C   UNL     1      33.802 -19.149 -22.638  0.00  0.00    +0.000 C 
ATOM      4  C   UNL     1      34.238 -16.883 -23.356  0.00  0.00    +0.075 C 
ATOM      5  C   UNL     1      34.727 -16.575 -22.086  0.00  0.00    +0.006 C 
ATOM      6  C   UNL     1      33.775 -18.170 -23.631  0.00  0.00    +0.006 C 
ENDROOT
BRANCH   1   9
ATOM      7  F   UNL     1      36.734 -21.678 -18.316  0.00  0.00    -0.204 F 
ATOM      8  F   UNL     1      32.005 -21.909 -18.422  0.00  0.00    -0.204 F 
ATOM      9  C   UNL     1      34.319 -19.856 -20.338  0.00  0.00    +0.004 C 
ATOM     10  C   UNL     1      33.126 -20.404 -19.868  0.00  0.00    +0.030 C 
ATOM     11  C   UNL     1      35.538 -20.286 -19.813  0.00  0.00    +0.030 C 
ATOM     12  C   UNL     1      35.564 -21.264 -18.819  0.00  0.00    +0.142 C 
ATOM     13  C   UNL     1      33.151 -21.382 -18.874  0.00  0.00    +0.142 C 
ATOM     14  C   UNL     1      34.370 -21.812 -18.349  0.00  0.00    +0.059 C 
ENDBRANCH   1   9
BRANCH   4  16
ATOM     15  O   UNL     1      33.484 -15.879 -25.392  0.00  0.00    -0.245 OA
ATOM     16  C   UNL     1      34.209 -15.863 -24.391  0.00  0.00    +0.338 C 
BRANCH  16  17
ATOM     17  O   UNL     1      35.083 -14.849 -24.147  0.00  0.00    -0.477 OA
ATOM     18  H   UNL     1      34.944 -14.275 -23.421  0.00  0.00    +0.295 HD
ENDBRANCH  16  17
ENDBRANCH   4  16
TORSDOF 3
ENDMDL
MODEL 3
REMARK VINA RESULT:     -10.4      4.598      6.744
REMARK  Name = 5288193
REMARK  3 active torsions:
REMARK  status: ('A' for Active; 'I' for Inactive)
REMARK    1  A    between atoms: C_1  and  C_9
REMARK    2  A    between atoms: C_4  and  C_16
REMARK    3  A    between atoms: C_16  and  O_17
REMARK                            x       y       z     vdW  Elec       q    Type
REMARK                         _______ _______ _______ _____ _____    ______ ____
ROOT
ATOM      1  C   UNL     1      34.179 -19.701 -20.535  0.00  0.00    +0.000 C 
ATOM      2  C   UNL     1      32.971 -20.202 -20.050  0.00  0.00    +0.000 C 
ATOM      3  C   UNL     1      35.386 -20.150 -19.998  0.00  0.00    +0.000 C 
ATOM      4  C   UNL     1      34.176 -21.601 -18.492  0.00  0.00    +0.075 C 
ATOM      5  C   UNL     1      32.969 -21.152 -19.028  0.00  0.00    +0.006 C 
ATOM      6  C   UNL     1      35.384 -21.100 -18.976  0.00  0.00    +0.006 C 
ENDROOT
BRANCH   1   9
ATOM      7  F   UNL     1      34.932 -15.190 -22.085  0.00  0.00    -0.204 F 
ATOM      8  F   UNL     1      33.444 -18.480 -25.148  0.00  0.00    -0.204 F 
ATOM      9  C   UNL     1      34.181 -18.715 -21.594  0.00  0.00    +0.004 C 
ATOM     10  C   UNL     1      33.803 -19.080 -22.886  0.00  0.00    +0.030 C 
ATOM     11  C   UNL     1      34.563 -17.401 -21.323  0.00  0.00    +0.030 C 
ATOM     12  C   UNL     1      34.566 -16.451 -22.345  0.00  0.00    +0.142 C 
ATOM     13  C   UNL     1      33.806 -18.130 -23.907  0.00  0.00    +0.142 C 
ATOM     14  C   UNL     1      34.188 -16.817 -23.637  0.00  0.00    +0.059 C 
ENDBRANCH   1   9
BRANCH   4  16
ATOM     15  O   UNL     1      34.993 -22.649 -16.502  0.00  0.00    -0.245 OA
ATOM     16  C   UNL     1      34.174 -22.591 -17.426  0.00  0.00    +0.338 C 
BRANCH  16  17
ATOM     17  O   UNL     1      33.150 -23.478 -17.542  0.00  0.00    -0.477 OA
ATOM     18  H   UNL     1      33.264 -24.365 -17.263  0.00  0.00    +0.295 HD
ENDBRANCH  16  17
ENDBRANCH   4  16
TORSDOF 3
ENDMDL
MODEL 4
REMARK VINA RESULT:     -10.4      4.596      6.583
REMARK  Name = 5288193
REMARK  3 active torsions:
REMARK  status: ('A' for Active; 'I' for Inactive)
REMARK    1  A    between atoms: C_1  and  C_9
REMARK    2  A    between atoms: C_4  and  C_16
REMARK    3  A    between atoms: C_16  and  O_17
REMARK                            x       y       z     vdW  Elec       q    Type
REMARK                         _______ _______ _______ _____ _____    ______ ____
ROOT
ATOM      1  C   UNL     1      34.173 -19.679 -20.552  0.00  0.00    +0.000 C 
ATOM      2  C   UNL     1      35.376 -20.135 -20.016  0.00  0.00    +0.000 C 
ATOM      3  C   UNL     1      32.961 -20.178 -20.072  0.00  0.00    +0.000 C 
ATOM      4  C   UNL     1      34.160 -21.590 -18.519  0.00  0.00    +0.075 C 
ATOM      5  C   UNL     1      35.371 -21.091 -19.000  0.00  0.00    +0.006 C 
ATOM      6  C   UNL     1      32.956 -21.134 -19.055  0.00  0.00    +0.006 C 
ENDROOT
BRANCH   1   9
ATOM      7  F   UNL     1      33.451 -18.434 -25.162  0.00  0.00    -0.204 F 
ATOM      8  F   UNL     1      34.924 -15.158 -22.076  0.00  0.00    -0.204 F 
ATOM      9  C   UNL     1      34.178 -18.688 -21.607  0.00  0.00    +0.004 C 
ATOM     10  C   UNL     1      34.556 -17.375 -21.327  0.00  0.00    +0.030 C 
ATOM     11  C   UNL     1      33.804 -19.046 -22.902  0.00  0.00    +0.030 C 
ATOM     12  C   UNL     1      33.809 -18.090 -23.919  0.00  0.00    +0.142 C 
ATOM     13  C   UNL     1      34.561 -16.420 -22.344  0.00  0.00    +0.142 C 
ATOM     14  C   UNL     1      34.187 -16.777 -23.638  0.00  0.00    +0.059 C 
ENDBRANCH   1   9
BRANCH   4  16
ATOM     15  O   UNL     1      34.940 -22.625 -16.508  0.00  0.00    -0.245 OA
ATOM     16  C   UNL     1      34.153 -22.586 -17.461  0.00  0.00    +0.338 C 
BRANCH  16  17
ATOM     17  O   UNL     1      33.163 -23.506 -17.618  0.00  0.00    -0.477 OA
ATOM     18  H   UNL     1      33.378 -24.413 -17.722  0.00  0.00    +0.295 HD
ENDBRANCH  16  17
ENDBRANCH   4  16
TORSDOF 3
ENDMDL
MODEL 5
REMARK VINA RESULT:     -10.2      4.763      6.668
REMARK  Name = 5288193
REMARK  3 active torsions:
REMARK  status: ('A' for Active; 'I' for Inactive)
REMARK    1  A    between atoms: C_1  and  C_9
REMARK    2  A    between atoms: C_4  and  C_16
REMARK    3  A    between atoms: C_16  and  O_17
REMARK                            x       y       z     vdW  Elec       q    Type
REMARK                         _______ _______ _______ _____ _____    ______ ____
ROOT
ATOM      1  C   UNL     1      34.280 -20.555 -19.652  0.00  0.00    +0.000 C 
ATOM      2  C   UNL     1      35.263 -21.084 -18.815  0.00  0.00    +0.000 C 
ATOM      3  C   UNL     1      32.937 -20.865 -19.433  0.00  0.00    +0.000 C 
ATOM      4  C   UNL     1      33.561 -22.232 -17.541  0.00  0.00    +0.075 C 
ATOM      5  C   UNL     1      34.904 -21.923 -17.760  0.00  0.00    +0.006 C 
ATOM      6  C   UNL     1      32.579 -21.704 -18.378  0.00  0.00    +0.006 C 
ENDROOT
BRANCH   1   9
ATOM      7  F   UNL     1      33.217 -18.310 -23.794  0.00  0.00    -0.204 F 
ATOM      8  F   UNL     1      37.510 -17.740 -21.879  0.00  0.00    -0.204 F 
ATOM      9  C   UNL     1      34.653 -19.686 -20.747  0.00  0.00    +0.004 C 
ATOM     10  C   UNL     1      35.927 -19.122 -20.786  0.00  0.00    +0.030 C 
ATOM     11  C   UNL     1      33.736 -19.412 -21.763  0.00  0.00    +0.030 C 
ATOM     12  C   UNL     1      34.095 -18.573 -22.818  0.00  0.00    +0.142 C 
ATOM     13  C   UNL     1      36.286 -18.283 -21.841  0.00  0.00    +0.142 C 
ATOM     14  C   UNL     1      35.371 -18.008 -22.856  0.00  0.00    +0.059 C 
ENDBRANCH   1   9
BRANCH   4  16
ATOM     15  O   UNL     1      32.046 -23.231 -15.982  0.00  0.00    -0.245 OA
ATOM     16  C   UNL     1      33.187 -23.107 -16.442  0.00  0.00    +0.338 C 
BRANCH  16  17
ATOM     17  O   UNL     1      34.245 -23.805 -15.948  0.00  0.00    -0.477 OA
ATOM     18  H   UNL     1      34.100 -24.564 -15.418  0.00  0.00    +0.295 HD
ENDBRANCH  16  17
ENDBRANCH   4  16
TORSDOF 3
ENDMDL
MODEL 6
REMARK VINA RESULT:     -10.2      4.733      6.944
REMARK  Name = 5288193
REMARK  3 active torsions:
REMARK  status: ('A' for Active; 'I' for Inactive)
REMARK    1  A    between atoms: C_1  and  C_9
REMARK    2  A    between atoms: C_4  and  C_16
REMARK    3  A    between atoms: C_16  and  O_17
REMARK                            x       y       z     vdW  Elec       q    Type
REMARK                         _______ _______ _______ _____ _____    ______ ____
ROOT
ATOM      1  C   UNL     1      34.283 -20.520 -19.711  0.00  0.00    +0.000 C 
ATOM      2  C   UNL     1      35.268 -21.079 -18.897  0.00  0.00    +0.000 C 
ATOM      3  C   UNL     1      32.938 -20.810 -19.480  0.00  0.00    +0.000 C 
ATOM      4  C   UNL     1      33.564 -22.220 -17.620  0.00  0.00    +0.075 C 
ATOM      5  C   UNL     1      34.908 -21.930 -17.852  0.00  0.00    +0.006 C 
ATOM      6  C   UNL     1      32.579 -21.661 -18.434  0.00  0.00    +0.006 C 
ENDROOT
BRANCH   1   9
ATOM      7  F   UNL     1      37.520 -17.698 -21.922  0.00  0.00    -0.204 F 
ATOM      8  F   UNL     1      33.211 -18.216 -23.818  0.00  0.00    -0.204 F 
ATOM      9  C   UNL     1      34.655 -19.638 -20.797  0.00  0.00    +0.004 C 
ATOM     10  C   UNL     1      33.736 -19.346 -21.804  0.00  0.00    +0.030 C 
ATOM     11  C   UNL     1      35.934 -19.082 -20.837  0.00  0.00    +0.030 C 
ATOM     12  C   UNL     1      36.293 -18.233 -21.884  0.00  0.00    +0.142 C 
ATOM     13  C   UNL     1      34.094 -18.497 -22.851  0.00  0.00    +0.142 C 
ATOM     14  C   UNL     1      35.372 -17.941 -22.891  0.00  0.00    +0.059 C 
ENDBRANCH   1   9
BRANCH   4  16
ATOM     15  O   UNL     1      33.975 -23.762 -15.837  0.00  0.00    -0.245 OA
ATOM     16  C   UNL     1      33.189 -23.107 -16.531  0.00  0.00    +0.338 C 
BRANCH  16  17
ATOM     17  O   UNL     1      31.843 -23.152 -16.335  0.00  0.00    -0.477 OA
ATOM     18  H   UNL     1      31.270 -23.312 -17.059  0.00  0.00    +0.295 HD
ENDBRANCH  16  17
ENDBRANCH   4  16
TORSDOF 3
ENDMDL
MODEL 7
REMARK VINA RESULT:      -9.8      6.384      8.725
REMARK  Name = 5288193
REMARK  3 active torsions:
REMARK  status: ('A' for Active; 'I' for Inactive)
REMARK    1  A    between atoms: C_1  and  C_9
REMARK    2  A    between atoms: C_4  and  C_16
REMARK    3  A    between atoms: C_16  and  O_17
REMARK                            x       y       z     vdW  Elec       q    Type
REMARK                         _______ _______ _______ _____ _____    ______ ____
ROOT
ATOM      1  C   UNL     1      32.964 -13.024 -21.760  0.00  0.00    +0.000 C 
ATOM      2  C   UNL     1      33.397 -13.562 -22.971  0.00  0.00    +0.000 C 
ATOM      3  C   UNL     1      33.179 -13.720 -20.570  0.00  0.00    +0.000 C 
ATOM      4  C   UNL     1      34.262 -15.493 -21.803  0.00  0.00    +0.075 C 
ATOM      5  C   UNL     1      34.045 -14.797 -22.993  0.00  0.00    +0.006 C 
ATOM      6  C   UNL     1      33.828 -14.954 -20.592  0.00  0.00    +0.006 C 
ENDROOT
BRANCH   1   9
ATOM      7  F   UNL     1      31.692  -8.895 -23.920  0.00  0.00    -0.204 F 
ATOM      8  F   UNL     1      30.310  -9.706 -19.463  0.00  0.00    -0.204 F 
ATOM      9  C   UNL     1      32.290 -11.743 -21.736  0.00  0.00    +0.004 C 
ATOM     10  C   UNL     1      31.612 -11.334 -20.589  0.00  0.00    +0.030 C 
ATOM     11  C   UNL     1      32.317 -10.920 -22.862  0.00  0.00    +0.030 C 
ATOM     12  C   UNL     1      31.666  -9.686 -22.840  0.00  0.00    +0.142 C 
ATOM     13  C   UNL     1      30.962 -10.100 -20.566  0.00  0.00    +0.142 C 
ATOM     14  C   UNL     1      30.988  -9.277 -21.691  0.00  0.00    +0.059 C 
ENDBRANCH   1   9
BRANCH   4  16
ATOM     15  O   UNL     1      35.180 -17.443 -22.841  0.00  0.00    -0.245 OA
ATOM     16  C   UNL     1      34.937 -16.780 -21.826  0.00  0.00    +0.338 C 
BRANCH  16  17
ATOM     17  O   UNL     1      35.292 -17.204 -20.583  0.00  0.00    -0.477 OA
ATOM     18  H   UNL     1      36.186 -17.148 -20.306  0.00  0.00    +0.295 HD
ENDBRANCH  16  17
ENDBRANCH   4  16
TORSDOF 3
ENDMDL
MODEL 8
REMARK VINA RESULT:      -9.8      6.387      8.672
REMARK  Name = 5288193
REMARK  3 active torsions:
REMARK  status: ('A' for Active; 'I' for Inactive)
REMARK    1  A    between atoms: C_1  and  C_9
REMARK    2  A    between atoms: C_4  and  C_16
REMARK    3  A    between atoms: C_16  and  O_17
REMARK                            x       y       z     vdW  Elec       q    Type
REMARK                         _______ _______ _______ _____ _____    ______ ____
ROOT
ATOM      1  C   UNL     1      32.960 -13.021 -21.772  0.00  0.00    +0.000 C 
ATOM      2  C   UNL     1      33.394 -13.572 -22.978  0.00  0.00    +0.000 C 
ATOM      3  C   UNL     1      33.176 -13.705 -20.575  0.00  0.00    +0.000 C 
ATOM      4  C   UNL     1      34.258 -15.491 -21.791  0.00  0.00    +0.075 C 
ATOM      5  C   UNL     1      34.041 -14.807 -22.988  0.00  0.00    +0.006 C 
ATOM      6  C   UNL     1      33.825 -14.940 -20.586  0.00  0.00    +0.006 C 
ENDROOT
BRANCH   1   9
ATOM      7  F   UNL     1      30.269  -9.699 -19.527  0.00  0.00    -0.204 F 
ATOM      8  F   UNL     1      31.739  -8.891 -23.955  0.00  0.00    -0.204 F 
ATOM      9  C   UNL     1      32.287 -11.740 -21.761  0.00  0.00    +0.004 C 
ATOM     10  C   UNL     1      32.338 -10.917 -22.886  0.00  0.00    +0.030 C 
ATOM     11  C   UNL     1      31.588 -11.329 -20.626  0.00  0.00    +0.030 C 
ATOM     12  C   UNL     1      30.940 -10.094 -20.616  0.00  0.00    +0.142 C 
ATOM     13  C   UNL     1      31.690  -9.682 -22.876  0.00  0.00    +0.142 C 
ATOM     14  C   UNL     1      30.992  -9.270 -21.741  0.00  0.00    +0.059 C 
ENDBRANCH   1   9
BRANCH   4  16
ATOM     15  O   UNL     1      35.179 -17.450 -22.810  0.00  0.00    -0.245 OA
ATOM     16  C   UNL     1      34.933 -16.779 -21.802  0.00  0.00    +0.338 C 
BRANCH  16  17
ATOM     17  O   UNL     1      35.285 -17.192 -20.554  0.00  0.00    -0.477 OA
ATOM     18  H   UNL     1      34.696 -17.719 -20.051  0.00  0.00    +0.295 HD
ENDBRANCH  16  17
ENDBRANCH   4  16
TORSDOF 3
ENDMDL
MODEL 9
REMARK VINA RESULT:      -9.8      6.390      8.698
REMARK  Name = 5288193
REMARK  3 active torsions:
REMARK  status: ('A' for Active; 'I' for Inactive)
REMARK    1  A    between atoms: C_1  and  C_9
REMARK    2  A    between atoms: C_4  and  C_16
REMARK    3  A    between atoms: C_16  and  O_17
REMARK                            x       y       z     vdW  Elec       q    Type
REMARK                         _______ _______ _______ _____ _____    ______ ____
ROOT
ATOM      1  C   UNL     1      32.955 -13.017 -21.773  0.00  0.00    +0.000 C 
ATOM      2  C   UNL     1      33.165 -13.708 -20.580  0.00  0.00    +0.000 C 
ATOM      3  C   UNL     1      33.391 -13.563 -22.981  0.00  0.00    +0.000 C 
ATOM      4  C   UNL     1      34.249 -15.489 -21.801  0.00  0.00    +0.075 C 
ATOM      5  C   UNL     1      33.814 -14.943 -20.593  0.00  0.00    +0.006 C 
ATOM      6  C   UNL     1      34.039 -14.798 -22.994  0.00  0.00    +0.006 C 
ENDROOT
BRANCH   1   9
ATOM      7  F   UNL     1      31.766  -8.864 -23.933  0.00  0.00    -0.204 F 
ATOM      8  F   UNL     1      30.236  -9.715 -19.533  0.00  0.00    -0.204 F 
ATOM      9  C   UNL     1      32.284 -11.735 -21.760  0.00  0.00    +0.004 C 
ATOM     10  C   UNL     1      31.570 -11.335 -20.631  0.00  0.00    +0.030 C 
ATOM     11  C   UNL     1      32.350 -10.901 -22.876  0.00  0.00    +0.030 C 
ATOM     12  C   UNL     1      31.702  -9.666 -22.862  0.00  0.00    +0.142 C 
ATOM     13  C   UNL     1      30.922 -10.100 -20.617  0.00  0.00    +0.142 C 
ATOM     14  C   UNL     1      30.987  -9.266 -21.733  0.00  0.00    +0.059 C 
ENDBRANCH   1   9
BRANCH   4  16
ATOM     15  O   UNL     1      35.162 -17.449 -22.825  0.00  0.00    -0.245 OA
ATOM     16  C   UNL     1      34.925 -16.776 -21.816  0.00  0.00    +0.338 C 
BRANCH  16  17
ATOM     17  O   UNL     1      35.290 -17.186 -20.571  0.00  0.00    -0.477 OA
ATOM     18  H   UNL     1      34.658 -17.583 -20.004  0.00  0.00    +0.295 HD
ENDBRANCH  16  17
ENDBRANCH   4  16
TORSDOF 3
ENDMDL
