MODEL 1
REMARK VINA RESULT:     -10.3      0.000      0.000
REMARK  Name = 45375953
REMARK  2 active torsions:
REMARK  status: ('A' for Active; 'I' for Inactive)
REMARK    1  A    between atoms: N_1  and  C_25
REMARK    2  A    between atoms: C_7  and  C_13
REMARK                            x       y       z     vdW  Elec       q    Type
REMARK                         _______ _______ _______ _____ _____    ______ ____
ROOT
ATOM      1  N   UNL     1      31.802 -23.351 -15.405  0.00  0.00    -0.200 N 
ATOM      2  N   UNL     1      32.796 -23.742 -14.586  0.00  0.00    -0.181 NA
ATOM      3  N   UNL     1      31.483 -22.190 -17.506  0.00  0.00    -0.232 NA
ATOM      4  N   UNL     1      33.606 -21.490 -18.480  0.00  0.00    -0.234 NA
ATOM      5  C   UNL     1      33.618 -22.651 -16.417  0.00  0.00    +0.150 C 
ATOM      6  C   UNL     1      32.238 -22.693 -16.517  0.00  0.00    +0.137 C 
ATOM      7  C   UNL     1      33.899 -23.313 -15.208  0.00  0.00    +0.086 C 
ATOM      8  C   UNL     1      34.306 -22.021 -17.449  0.00  0.00    +0.112 C 
ATOM      9  C   UNL     1      32.258 -21.605 -18.445  0.00  0.00    +0.252 C 
ATOM     10  N   UNL     1      35.710 -21.927 -17.440  0.00  0.00    -0.346 N 
ATOM     11  H   UNL     1      36.177 -21.477 -18.180  0.00  0.00    +0.143 HD
ATOM     12  H   UNL     1      36.224 -22.312 -16.694  0.00  0.00    +0.143 HD
ENDROOT
BRANCH   7  16
ATOM     13  O   UNL     1      38.870 -24.376 -13.062  0.00  0.00    -0.414 OA
ATOM     14  N   UNL     1      38.154 -25.822 -14.654  0.00  0.00    -0.356 NA
ATOM     15  N   UNL     1      40.294 -26.100 -13.588  0.00  0.00    -0.302 N 
ATOM     16  C   UNL     1      35.188 -23.549 -14.618  0.00  0.00    +0.001 C 
ATOM     17  C   UNL     1      35.946 -24.649 -15.044  0.00  0.00    +0.090 C 
ATOM     18  C   UNL     1      35.665 -22.676 -13.633  0.00  0.00    +0.001 C 
ATOM     19  C   UNL     1      37.201 -24.854 -14.453  0.00  0.00    +0.153 C 
ATOM     20  C   UNL     1      37.635 -23.966 -13.479  0.00  0.00    +0.175 C 
ATOM     21  C   UNL     1      36.914 -22.866 -13.031  0.00  0.00    +0.040 C 
ATOM     22  C   UNL     1      39.107 -25.489 -13.812  0.00  0.00    +0.341 C 
ATOM     23  H   UNL     1      40.916 -25.736 -12.919  0.00  0.00    +0.148 HD
ATOM     24  H   UNL     1      40.532 -26.910 -14.094  0.00  0.00    +0.148 HD
ENDBRANCH   7  16
BRANCH   1  25
ATOM     25  C   UNL     1      30.432 -23.642 -15.052  0.00  0.00    +0.098 C 
ATOM     26  C   UNL     1      29.713 -22.402 -14.517  0.00  0.00    +0.024 C 
ATOM     27  C   UNL     1      30.342 -24.798 -14.053  0.00  0.00    +0.024 C 
ENDBRANCH   1  25
TORSDOF 2
ENDMDL
MODEL 2
REMARK VINA RESULT:     -10.2      3.105      6.584
REMARK  Name = 45375953
REMARK  2 active torsions:
REMARK  status: ('A' for Active; 'I' for Inactive)
REMARK    1  A    between atoms: N_1  and  C_25
REMARK    2  A    between atoms: C_7  and  C_13
REMARK                            x       y       z     vdW  Elec       q    Type
REMARK                         _______ _______ _______ _____ _____    ______ ____
ROOT
ATOM      1  N   UNL     1      34.857 -23.616 -15.231  0.00  0.00    -0.200 N 
ATOM      2  N   UNL     1      35.159 -22.923 -16.345  0.00  0.00    -0.181 NA
ATOM      3  N   UNL     1      32.926 -24.265 -13.921  0.00  0.00    -0.232 NA
ATOM      4  N   UNL     1      30.854 -23.417 -14.889  0.00  0.00    -0.234 NA
ATOM      5  C   UNL     1      32.906 -22.932 -15.966  0.00  0.00    +0.150 C 
ATOM      6  C   UNL     1      33.522 -23.653 -14.957  0.00  0.00    +0.137 C 
ATOM      7  C   UNL     1      33.967 -22.510 -16.788  0.00  0.00    +0.086 C 
ATOM      8  C   UNL     1      31.520 -22.824 -15.908  0.00  0.00    +0.112 C 
ATOM      9  C   UNL     1      31.588 -24.090 -13.972  0.00  0.00    +0.252 C 
ATOM     10  N   UNL     1      30.802 -22.112 -16.887  0.00  0.00    -0.346 N 
ATOM     11  H   UNL     1      29.822 -22.047 -16.827  0.00  0.00    +0.143 HD
ATOM     12  H   UNL     1      31.281 -21.679 -17.630  0.00  0.00    +0.143 HD
ENDROOT
BRANCH   7  16
ATOM     13  O   UNL     1      33.847 -19.435 -21.368  0.00  0.00    -0.414 OA
ATOM     14  N   UNL     1      35.873 -19.646 -20.376  0.00  0.00    -0.356 NA
ATOM     15  N   UNL     1      35.598 -18.350 -22.384  0.00  0.00    -0.302 N 
ATOM     16  C   UNL     1      33.885 -21.718 -17.984  0.00  0.00    +0.001 C 
ATOM     17  C   UNL     1      35.046 -21.113 -18.488  0.00  0.00    +0.090 C 
ATOM     18  C   UNL     1      32.650 -21.564 -18.626  0.00  0.00    +0.001 C 
ATOM     19  C   UNL     1      34.936 -20.347 -19.657  0.00  0.00    +0.153 C 
ATOM     20  C   UNL     1      33.694 -20.220 -20.260  0.00  0.00    +0.175 C 
ATOM     21  C   UNL     1      32.523 -20.803 -19.793  0.00  0.00    +0.040 C 
ATOM     22  C   UNL     1      35.176 -19.134 -21.365  0.00  0.00    +0.341 C 
ATOM     23  H   UNL     1      34.957 -18.036 -23.061  0.00  0.00    +0.148 HD
ATOM     24  H   UNL     1      36.546 -18.092 -22.446  0.00  0.00    +0.148 HD
ENDBRANCH   7  16
BRANCH   1  25
ATOM     25  C   UNL     1      35.916 -24.224 -14.461  0.00  0.00    +0.098 C 
ATOM     26  C   UNL     1      37.234 -23.461 -14.615  0.00  0.00    +0.024 C 
ATOM     27  C   UNL     1      36.096 -25.701 -14.820  0.00  0.00    +0.024 C 
ENDBRANCH   1  25
TORSDOF 2
ENDMDL
MODEL 3
REMARK VINA RESULT:     -10.0      3.071      6.737
REMARK  Name = 45375953
REMARK  2 active torsions:
REMARK  status: ('A' for Active; 'I' for Inactive)
REMARK    1  A    between atoms: N_1  and  C_25
REMARK    2  A    between atoms: C_7  and  C_13
REMARK                            x       y       z     vdW  Elec       q    Type
REMARK                         _______ _______ _______ _____ _____    ______ ____
ROOT
ATOM      1  N   UNL     1      35.377 -23.584 -12.829  0.00  0.00    -0.200 N 
ATOM      2  N   UNL     1      34.054 -23.828 -12.804  0.00  0.00    -0.181 NA
ATOM      3  N   UNL     1      37.078 -22.746 -14.336  0.00  0.00    -0.232 NA
ATOM      4  N   UNL     1      36.141 -22.141 -16.505  0.00  0.00    -0.234 NA
ATOM      5  C   UNL     1      34.701 -22.993 -14.831  0.00  0.00    +0.150 C 
ATOM      6  C   UNL     1      35.818 -23.083 -14.018  0.00  0.00    +0.137 C 
ATOM      7  C   UNL     1      33.648 -23.466 -14.026  0.00  0.00    +0.086 C 
ATOM      8  C   UNL     1      34.894 -22.501 -16.117  0.00  0.00    +0.112 C 
ATOM      9  C   UNL     1      37.141 -22.284 -15.604  0.00  0.00    +0.252 C 
ATOM     10  N   UNL     1      33.821 -22.371 -17.019  0.00  0.00    -0.346 N 
ATOM     11  H   UNL     1      33.979 -22.021 -17.924  0.00  0.00    +0.143 HD
ATOM     12  H   UNL     1      32.913 -22.631 -16.742  0.00  0.00    +0.143 HD
ENDROOT
BRANCH   7  16
ATOM     13  O   UNL     1      28.348 -23.794 -15.526  0.00  0.00    -0.414 OA
ATOM     14  N   UNL     1      29.566 -22.183 -16.555  0.00  0.00    -0.356 NA
ATOM     15  N   UNL     1      27.235 -22.498 -17.063  0.00  0.00    -0.302 N 
ATOM     16  C   UNL     1      32.261 -23.590 -14.383  0.00  0.00    +0.001 C 
ATOM     17  C   UNL     1      31.720 -22.723 -15.343  0.00  0.00    +0.090 C 
ATOM     18  C   UNL     1      31.477 -24.574 -13.770  0.00  0.00    +0.001 C 
ATOM     19  C   UNL     1      30.365 -22.867 -15.673  0.00  0.00    +0.153 C 
ATOM     20  C   UNL     1      29.624 -23.855 -15.041  0.00  0.00    +0.175 C 
ATOM     21  C   UNL     1      30.123 -24.732 -14.086  0.00  0.00    +0.040 C 
ATOM     22  C   UNL     1      28.397 -22.770 -16.424  0.00  0.00    +0.341 C 
ATOM     23  H   UNL     1      26.429 -23.026 -16.862  0.00  0.00    +0.148 HD
ATOM     24  H   UNL     1      27.196 -21.772 -17.725  0.00  0.00    +0.148 HD
ENDBRANCH   7  16
BRANCH   1  25
ATOM     25  C   UNL     1      36.175 -23.863 -11.658  0.00  0.00    +0.098 C 
ATOM     26  C   UNL     1      36.897 -25.207 -11.776  0.00  0.00    +0.024 C 
ATOM     27  C   UNL     1      35.336 -23.805 -10.379  0.00  0.00    +0.024 C 
ENDBRANCH   1  25
TORSDOF 2
ENDMDL
MODEL 4
REMARK VINA RESULT:      -9.6      6.537      9.456
REMARK  Name = 45375953
REMARK  2 active torsions:
REMARK  status: ('A' for Active; 'I' for Inactive)
REMARK    1  A    between atoms: N_1  and  C_25
REMARK    2  A    between atoms: C_7  and  C_13
REMARK                            x       y       z     vdW  Elec       q    Type
REMARK                         _______ _______ _______ _____ _____    ______ ____
ROOT
ATOM      1  N   UNL     1      33.985 -14.807 -21.659  0.00  0.00    -0.200 N 
ATOM      2  N   UNL     1      34.250 -15.802 -20.793  0.00  0.00    -0.181 NA
ATOM      3  N   UNL     1      33.542 -14.473 -24.017  0.00  0.00    -0.232 NA
ATOM      4  N   UNL     1      33.580 -16.578 -25.248  0.00  0.00    -0.234 NA
ATOM      5  C   UNL     1      33.983 -16.606 -22.915  0.00  0.00    +0.150 C 
ATOM      6  C   UNL     1      33.815 -15.232 -22.944  0.00  0.00    +0.137 C 
ATOM      7  C   UNL     1      34.248 -16.895 -21.564  0.00  0.00    +0.086 C 
ATOM      8  C   UNL     1      33.856 -17.282 -24.124  0.00  0.00    +0.112 C 
ATOM      9  C   UNL     1      33.443 -15.237 -25.126  0.00  0.00    +0.252 C 
ATOM     10  N   UNL     1      34.007 -18.679 -24.199  0.00  0.00    -0.346 N 
ATOM     11  H   UNL     1      33.914 -19.138 -25.064  0.00  0.00    +0.143 HD
ATOM     12  H   UNL     1      34.207 -19.196 -23.385  0.00  0.00    +0.143 HD
ENDROOT
BRANCH   7  16
ATOM     13  O   UNL     1      35.037 -21.868 -19.309  0.00  0.00    -0.414 OA
ATOM     14  N   UNL     1      32.877 -21.262 -19.625  0.00  0.00    -0.356 NA
ATOM     15  N   UNL     1      33.444 -23.390 -18.657  0.00  0.00    -0.302 N 
ATOM     16  C   UNL     1      34.504 -18.182 -20.978  0.00  0.00    +0.001 C 
ATOM     17  C   UNL     1      33.423 -19.005 -20.630  0.00  0.00    +0.090 C 
ATOM     18  C   UNL     1      35.826 -18.592 -20.768  0.00  0.00    +0.001 C 
ATOM     19  C   UNL     1      33.703 -20.256 -20.062  0.00  0.00    +0.153 C 
ATOM     20  C   UNL     1      35.027 -20.623 -19.870  0.00  0.00    +0.175 C 
ATOM     21  C   UNL     1      36.124 -19.837 -20.201  0.00  0.00    +0.040 C 
ATOM     22  C   UNL     1      33.715 -22.178 -19.196  0.00  0.00    +0.341 C 
ATOM     23  H   UNL     1      34.181 -23.979 -18.376  0.00  0.00    +0.148 HD
ATOM     24  H   UNL     1      32.511 -23.681 -18.545  0.00  0.00    +0.148 HD
ENDBRANCH   7  16
BRANCH   1  25
ATOM     25  C   UNL     1      33.911 -13.446 -21.181  0.00  0.00    +0.098 C 
ATOM     26  C   UNL     1      32.722 -13.245 -20.239  0.00  0.00    +0.024 C 
ATOM     27  C   UNL     1      33.866 -12.445 -22.338  0.00  0.00    +0.024 C 
ENDBRANCH   1  25
TORSDOF 2
ENDMDL
MODEL 5
REMARK VINA RESULT:      -9.5      3.062      7.197
REMARK  Name = 45375953
REMARK  2 active torsions:
REMARK  status: ('A' for Active; 'I' for Inactive)
REMARK    1  A    between atoms: N_1  and  C_25
REMARK    2  A    between atoms: C_7  and  C_13
REMARK                            x       y       z     vdW  Elec       q    Type
REMARK                         _______ _______ _______ _____ _____    ______ ____
ROOT
ATOM      1  N   UNL     1      35.635 -22.207 -16.242  0.00  0.00    -0.200 N 
ATOM      2  N   UNL     1      34.311 -22.228 -16.482  0.00  0.00    -0.181 NA
ATOM      3  N   UNL     1      37.223 -22.913 -14.555  0.00  0.00    -0.232 NA
ATOM      4  N   UNL     1      36.117 -24.014 -12.681  0.00  0.00    -0.234 NA
ATOM      5  C   UNL     1      34.802 -23.218 -14.482  0.00  0.00    +0.150 C 
ATOM      6  C   UNL     1      35.985 -22.786 -15.058  0.00  0.00    +0.137 C 
ATOM      7  C   UNL     1      33.809 -22.845 -15.407  0.00  0.00    +0.086 C 
ATOM      8  C   UNL     1      34.897 -23.853 -13.248  0.00  0.00    +0.112 C 
ATOM      9  C   UNL     1      37.188 -23.541 -13.360  0.00  0.00    +0.252 C 
ATOM     10  N   UNL     1      33.753 -24.328 -12.581  0.00  0.00    -0.346 N 
ATOM     11  H   UNL     1      33.841 -24.774 -11.708  0.00  0.00    +0.143 HD
ATOM     12  H   UNL     1      32.863 -24.214 -12.988  0.00  0.00    +0.143 HD
ENDROOT
BRANCH   7  16
ATOM     13  O   UNL     1      28.339 -23.519 -15.145  0.00  0.00    -0.414 OA
ATOM     14  N   UNL     1      29.081 -22.098 -16.746  0.00  0.00    -0.356 NA
ATOM     15  N   UNL     1      26.732 -22.536 -16.460  0.00  0.00    -0.302 N 
ATOM     16  C   UNL     1      32.391 -23.053 -15.299  0.00  0.00    +0.001 C 
ATOM     17  C   UNL     1      31.530 -22.379 -16.177  0.00  0.00    +0.090 C 
ATOM     18  C   UNL     1      31.895 -23.925 -14.322  0.00  0.00    +0.001 C 
ATOM     19  C   UNL     1      30.152 -22.602 -16.050  0.00  0.00    +0.153 C 
ATOM     20  C   UNL     1      29.702 -23.473 -15.068  0.00  0.00    +0.175 C 
ATOM     21  C   UNL     1      30.523 -24.158 -14.181  0.00  0.00    +0.040 C 
ATOM     22  C   UNL     1      28.048 -22.672 -16.171  0.00  0.00    +0.341 C 
ATOM     23  H   UNL     1      26.061 -23.033 -15.940  0.00  0.00    +0.148 HD
ATOM     24  H   UNL     1      26.448 -21.940 -17.190  0.00  0.00    +0.148 HD
ENDBRANCH   7  16
BRANCH   1  25
ATOM     25  C   UNL     1      36.523 -21.600 -17.205  0.00  0.00    +0.098 C 
ATOM     26  C   UNL     1      37.201 -20.351 -16.637  0.00  0.00    +0.024 C 
ATOM     27  C   UNL     1      35.798 -21.280 -18.515  0.00  0.00    +0.024 C 
ENDBRANCH   1  25
TORSDOF 2
ENDMDL
MODEL 6
REMARK VINA RESULT:      -9.5      1.026      3.166
REMARK  Name = 45375953
REMARK  2 active torsions:
REMARK  status: ('A' for Active; 'I' for Inactive)
REMARK    1  A    between atoms: N_1  and  C_25
REMARK    2  A    between atoms: C_7  and  C_13
REMARK                            x       y       z     vdW  Elec       q    Type
REMARK                         _______ _______ _______ _____ _____    ______ ____
ROOT
ATOM      1  N   UNL     1      33.334 -22.219 -17.752  0.00  0.00    -0.200 N 
ATOM      2  N   UNL     1      34.566 -22.420 -17.249  0.00  0.00    -0.181 NA
ATOM      3  N   UNL     1      31.012 -22.397 -17.090  0.00  0.00    -0.232 NA
ATOM      4  N   UNL     1      30.787 -23.188 -14.794  0.00  0.00    -0.234 NA
ATOM      5  C   UNL     1      32.954 -22.919 -15.708  0.00  0.00    +0.150 C 
ATOM      6  C   UNL     1      32.332 -22.502 -16.872  0.00  0.00    +0.137 C 
ATOM      7  C   UNL     1      34.328 -22.846 -16.004  0.00  0.00    +0.086 C 
ATOM      8  C   UNL     1      32.131 -23.269 -14.643  0.00  0.00    +0.112 C 
ATOM      9  C   UNL     1      30.318 -22.763 -15.991  0.00  0.00    +0.252 C 
ATOM     10  N   UNL     1      32.667 -23.705 -13.417  0.00  0.00    -0.346 N 
ATOM     11  H   UNL     1      32.067 -23.948 -12.677  0.00  0.00    +0.143 HD
ATOM     12  H   UNL     1      33.643 -23.765 -13.302  0.00  0.00    +0.143 HD
ENDROOT
BRANCH   7  16
ATOM     13  O   UNL     1      38.595 -24.255 -12.803  0.00  0.00    -0.414 OA
ATOM     14  N   UNL     1      38.265 -25.553 -14.631  0.00  0.00    -0.356 NA
ATOM     15  N   UNL     1      40.070 -25.992 -13.102  0.00  0.00    -0.302 N 
ATOM     16  C   UNL     1      35.428 -23.174 -15.139  0.00  0.00    +0.001 C 
ATOM     17  C   UNL     1      36.245 -24.269 -15.453  0.00  0.00    +0.090 C 
ATOM     18  C   UNL     1      35.665 -22.395 -14.000  0.00  0.00    +0.001 C 
ATOM     19  C   UNL     1      37.311 -24.565 -14.592  0.00  0.00    +0.153 C 
ATOM     20  C   UNL     1      37.510 -23.769 -13.474  0.00  0.00    +0.175 C 
ATOM     21  C   UNL     1      36.723 -22.677 -13.129  0.00  0.00    +0.040 C 
ATOM     22  C   UNL     1      38.987 -25.320 -13.558  0.00  0.00    +0.341 C 
ATOM     23  H   UNL     1      40.516 -25.702 -12.274  0.00  0.00    +0.148 HD
ATOM     24  H   UNL     1      40.409 -26.772 -13.597  0.00  0.00    +0.148 HD
ENDBRANCH   7  16
BRANCH   1  25
ATOM     25  C   UNL     1      33.188 -21.751 -19.110  0.00  0.00    +0.098 C 
ATOM     26  C   UNL     1      34.533 -21.340 -19.713  0.00  0.00    +0.024 C 
ATOM     27  C   UNL     1      32.176 -20.605 -19.203  0.00  0.00    +0.024 C 
ENDBRANCH   1  25
TORSDOF 2
ENDMDL
MODEL 7
REMARK VINA RESULT:      -9.4      2.974      6.733
REMARK  Name = 45375953
REMARK  2 active torsions:
REMARK  status: ('A' for Active; 'I' for Inactive)
REMARK    1  A    between atoms: N_1  and  C_25
REMARK    2  A    between atoms: C_7  and  C_13
REMARK                            x       y       z     vdW  Elec       q    Type
REMARK                         _______ _______ _______ _____ _____    ______ ____
ROOT
ATOM      1  N   UNL     1      37.174 -23.908 -14.107  0.00  0.00    -0.200 N 
ATOM      2  N   UNL     1      36.961 -23.431 -15.347  0.00  0.00    -0.181 NA
ATOM      3  N   UNL     1      35.977 -24.272 -12.033  0.00  0.00    -0.232 NA
ATOM      4  N   UNL     1      33.649 -23.563 -12.199  0.00  0.00    -0.234 NA
ATOM      5  C   UNL     1      35.059 -23.322 -14.085  0.00  0.00    +0.150 C 
ATOM      6  C   UNL     1      36.069 -23.867 -13.309  0.00  0.00    +0.137 C 
ATOM      7  C   UNL     1      35.672 -23.076 -15.328  0.00  0.00    +0.086 C 
ATOM      8  C   UNL     1      33.813 -23.175 -13.487  0.00  0.00    +0.112 C 
ATOM      9  C   UNL     1      34.727 -24.080 -11.562  0.00  0.00    +0.252 C 
ATOM     10  N   UNL     1      32.723 -22.633 -14.192  0.00  0.00    -0.346 N 
ATOM     11  H   UNL     1      31.849 -22.537 -13.750  0.00  0.00    +0.143 HD
ATOM     12  H   UNL     1      32.835 -22.349 -15.128  0.00  0.00    +0.143 HD
ENDROOT
BRANCH   7  16
ATOM     13  O   UNL     1      33.534 -20.803 -19.878  0.00  0.00    -0.414 OA
ATOM     14  N   UNL     1      35.703 -20.303 -19.453  0.00  0.00    -0.356 NA
ATOM     15  N   UNL     1      34.576 -19.418 -21.387  0.00  0.00    -0.302 N 
ATOM     16  C   UNL     1      35.070 -22.507 -16.502  0.00  0.00    +0.001 C 
ATOM     17  C   UNL     1      35.837 -21.675 -17.332  0.00  0.00    +0.090 C 
ATOM     18  C   UNL     1      33.733 -22.793 -16.799  0.00  0.00    +0.001 C 
ATOM     19  C   UNL     1      35.224 -21.135 -18.471  0.00  0.00    +0.153 C 
ATOM     20  C   UNL     1      33.896 -21.443 -18.727  0.00  0.00    +0.175 C 
ATOM     21  C   UNL     1      33.105 -22.262 -17.931  0.00  0.00    +0.040 C 
ATOM     22  C   UNL     1      34.668 -20.145 -20.248  0.00  0.00    +0.341 C 
ATOM     23  H   UNL     1      33.728 -19.390 -21.885  0.00  0.00    +0.148 HD
ATOM     24  H   UNL     1      35.357 -18.916 -21.714  0.00  0.00    +0.148 HD
ENDBRANCH   7  16
BRANCH   1  25
ATOM     25  C   UNL     1      38.485 -24.392 -13.745  0.00  0.00    +0.098 C 
ATOM     26  C   UNL     1      39.442 -24.374 -14.939  0.00  0.00    +0.024 C 
ATOM     27  C   UNL     1      38.416 -25.790 -13.122  0.00  0.00    +0.024 C 
ENDBRANCH   1  25
TORSDOF 2
ENDMDL
MODEL 8
REMARK VINA RESULT:      -9.3      3.464      6.227
REMARK  Name = 45375953
REMARK  2 active torsions:
REMARK  status: ('A' for Active; 'I' for Inactive)
REMARK    1  A    between atoms: N_1  and  C_25
REMARK    2  A    between atoms: C_7  and  C_13
REMARK                            x       y       z     vdW  Elec       q    Type
REMARK                         _______ _______ _______ _____ _____    ______ ____
ROOT
ATOM      1  N   UNL     1      30.835 -23.006 -16.137  0.00  0.00    -0.200 N 
ATOM      2  N   UNL     1      31.193 -22.398 -17.282  0.00  0.00    -0.181 NA
ATOM      3  N   UNL     1      31.827 -23.820 -14.082  0.00  0.00    -0.232 NA
ATOM      4  N   UNL     1      34.235 -23.436 -14.031  0.00  0.00    -0.234 NA
ATOM      5  C   UNL     1      33.002 -22.739 -15.928  0.00  0.00    +0.150 C 
ATOM      6  C   UNL     1      31.878 -23.234 -15.289  0.00  0.00    +0.137 C 
ATOM      7  C   UNL     1      32.514 -22.237 -17.149  0.00  0.00    +0.086 C 
ATOM      8  C   UNL     1      34.213 -22.855 -15.254  0.00  0.00    +0.112 C 
ATOM      9  C   UNL     1      33.057 -23.876 -13.529  0.00  0.00    +0.252 C 
ATOM     10  N   UNL     1      35.412 -22.381 -15.819  0.00  0.00    -0.346 N 
ATOM     11  H   UNL     1      36.259 -22.473 -15.326  0.00  0.00    +0.143 HD
ATOM     12  H   UNL     1      35.403 -21.957 -16.708  0.00  0.00    +0.143 HD
ENDROOT
BRANCH   7  16
ATOM     13  O   UNL     1      35.237 -19.756 -21.257  0.00  0.00    -0.414 OA
ATOM     14  N   UNL     1      32.995 -19.423 -21.218  0.00  0.00    -0.356 NA
ATOM     15  N   UNL     1      34.373 -18.431 -22.924  0.00  0.00    -0.302 N 
ATOM     16  C   UNL     1      33.267 -21.611 -18.201  0.00  0.00    +0.001 C 
ATOM     17  C   UNL     1      32.597 -20.827 -19.151  0.00  0.00    +0.090 C 
ATOM     18  C   UNL     1      34.654 -21.793 -18.258  0.00  0.00    +0.001 C 
ATOM     19  C   UNL     1      33.357 -20.228 -20.166  0.00  0.00    +0.153 C 
ATOM     20  C   UNL     1      34.728 -20.435 -20.186  0.00  0.00    +0.175 C 
ATOM     21  C   UNL     1      35.428 -21.204 -19.264  0.00  0.00    +0.040 C 
ATOM     22  C   UNL     1      34.138 -19.179 -21.820  0.00  0.00    +0.341 C 
ATOM     23  H   UNL     1      35.290 -18.336 -23.267  0.00  0.00    +0.148 HD
ATOM     24  H   UNL     1      33.626 -17.985 -23.383  0.00  0.00    +0.148 HD
ENDBRANCH   7  16
BRANCH   1  25
ATOM     25  C   UNL     1      29.450 -23.351 -15.917  0.00  0.00    +0.098 C 
ATOM     26  C   UNL     1      28.742 -22.311 -15.046  0.00  0.00    +0.024 C 
ATOM     27  C   UNL     1      29.308 -24.753 -15.317  0.00  0.00    +0.024 C 
ENDBRANCH   1  25
TORSDOF 2
ENDMDL
MODEL 9
REMARK VINA RESULT:      -9.3     11.863     15.037
REMARK  Name = 45375953
REMARK  2 active torsions:
REMARK  status: ('A' for Active; 'I' for Inactive)
REMARK    1  A    between atoms: N_1  and  C_25
REMARK    2  A    between atoms: C_7  and  C_13
REMARK                            x       y       z     vdW  Elec       q    Type
REMARK                         _______ _______ _______ _____ _____    ______ ____
ROOT
ATOM      1  N   UNL     1      33.081  -8.677 -23.161  0.00  0.00    -0.200 N 
ATOM      2  N   UNL     1      33.517  -9.800 -23.763  0.00  0.00    -0.181 NA
ATOM      3  N   UNL     1      31.619  -7.992 -21.357  0.00  0.00    -0.232 NA
ATOM      4  N   UNL     1      30.588  -9.907 -20.255  0.00  0.00    -0.234 NA
ATOM      5  C   UNL     1      32.070 -10.284 -22.062  0.00  0.00    +0.150 C 
ATOM      6  C   UNL     1      32.213  -8.909 -22.136  0.00  0.00    +0.137 C 
ATOM      7  C   UNL     1      32.897 -10.775 -23.089  0.00  0.00    +0.086 C 
ATOM      8  C   UNL     1      31.221 -10.778 -21.077  0.00  0.00    +0.112 C 
ATOM      9  C   UNL     1      30.823  -8.588 -20.443  0.00  0.00    +0.252 C 
ATOM     10  N   UNL     1      31.009 -12.160 -20.921  0.00  0.00    -0.346 N 
ATOM     11  H   UNL     1      30.404 -12.489 -20.218  0.00  0.00    +0.143 HD
ATOM     12  H   UNL     1      31.468 -12.798 -21.515  0.00  0.00    +0.143 HD
ENDROOT
BRANCH   7  16
ATOM     13  O   UNL     1      33.817 -16.074 -24.318  0.00  0.00    -0.414 OA
ATOM     14  N   UNL     1      34.485 -15.411 -22.257  0.00  0.00    -0.356 NA
ATOM     15  N   UNL     1      34.791 -17.681 -22.995  0.00  0.00    -0.302 N 
ATOM     16  C   UNL     1      33.116 -12.147 -23.456  0.00  0.00    +0.001 C 
ATOM     17  C   UNL     1      33.726 -13.014 -22.537  0.00  0.00    +0.090 C 
ATOM     18  C   UNL     1      32.716 -12.594 -24.721  0.00  0.00    +0.001 C 
ATOM     19  C   UNL     1      33.926 -14.347 -22.921  0.00  0.00    +0.153 C 
ATOM     20  C   UNL     1      33.516 -14.749 -24.184  0.00  0.00    +0.175 C 
ATOM     21  C   UNL     1      32.909 -13.921 -25.121  0.00  0.00    +0.040 C 
ATOM     22  C   UNL     1      34.393 -16.393 -23.125  0.00  0.00    +0.341 C 
ATOM     23  H   UNL     1      34.658 -18.314 -23.737  0.00  0.00    +0.148 HD
ATOM     24  H   UNL     1      35.215 -17.982 -22.160  0.00  0.00    +0.148 HD
ENDBRANCH   7  16
BRANCH   1  25
ATOM     25  C   UNL     1      33.543  -7.392 -23.631  0.00  0.00    +0.098 C 
ATOM     26  C   UNL     1      34.156  -6.566 -22.498  0.00  0.00    +0.024 C 
ATOM     27  C   UNL     1      32.425  -6.615 -24.330  0.00  0.00    +0.024 C 
ENDBRANCH   1  25
TORSDOF 2
ENDMDL
