MODEL 1
REMARK VINA RESULT:     -11.7      0.000      0.000
REMARK  Name = 2740174
REMARK  4 active torsions:
REMARK  status: ('A' for Active; 'I' for Inactive)
REMARK    1  A    between atoms: N_2  and  C_17
REMARK    2  A    between atoms: C_8  and  C_12
REMARK    3  A    between atoms: C_17  and  C_18
REMARK    4  A    between atoms: C_18  and  C_19
REMARK                            x       y       z     vdW  Elec       q    Type
REMARK                         _______ _______ _______ _____ _____    ______ ____
ROOT
ATOM      1 CL   UNL     1      29.806 -22.288 -16.428  0.00  0.00    -0.099 Cl
ATOM      2  N   UNL     1      32.222 -21.930 -18.173  0.00  0.00    -0.309 N 
ATOM      3  N   UNL     1      33.745 -22.917 -16.660  0.00  0.00    -0.326 NA
ATOM      4  N   UNL     1      32.990 -23.762 -14.533  0.00  0.00    -0.346 NA
ATOM      5  C   UNL     1      32.464 -22.533 -16.972  0.00  0.00    +0.191 C 
ATOM      6  C   UNL     1      31.419 -22.761 -16.059  0.00  0.00    +0.195 C 
ATOM      7  C   UNL     1      31.741 -23.374 -14.865  0.00  0.00    +0.122 C 
ATOM      8  C   UNL     1      33.930 -23.507 -15.464  0.00  0.00    +0.157 C 
ATOM      9  C   UNL     1      30.696 -23.657 -13.834  0.00  0.00    +0.064 C 
ATOM     10  H   UNL     1      31.297 -21.664 -18.374  0.00  0.00    +0.149 HD
ENDROOT
BRANCH   8  12
ATOM     11  N   UNL     1      35.460 -25.240 -14.998  0.00  0.00    -0.232 NA
ATOM     12  C   UNL     1      35.275 -23.907 -15.145  0.00  0.00    +0.166 C 
ATOM     13  C   UNL     1      36.287 -22.968 -15.005  0.00  0.00    +0.031 C 
ATOM     14  C   UNL     1      37.564 -23.425 -14.696  0.00  0.00    +0.004 C 
ATOM     15  C   UNL     1      36.713 -25.646 -14.698  0.00  0.00    +0.100 C 
ATOM     16  C   UNL     1      37.789 -24.788 -14.537  0.00  0.00    +0.021 C 
ENDBRANCH   8  12
BRANCH   2  17
ATOM     17  C   UNL     1      33.232 -21.657 -19.169  0.00  0.00    +0.094 C 
BRANCH  17  18
ATOM     18  C   UNL     1      32.826 -20.461 -20.041  0.00  0.00    +0.048 C 
BRANCH  18  19
ATOM     19  C   UNL     1      33.982 -19.730 -20.636  0.00  0.00    -0.020 C 
ATOM     20  C   UNL     1      35.250 -19.851 -20.068  0.00  0.00    -0.004 C 
ATOM     21  C   UNL     1      33.795 -18.926 -21.761  0.00  0.00    -0.004 C 
ATOM     22  C   UNL     1      36.332 -19.168 -20.625  0.00  0.00    -0.000 C 
ATOM     23  C   UNL     1      34.876 -18.242 -22.317  0.00  0.00    -0.000 C 
ATOM     24  C   UNL     1      36.144 -18.364 -21.749  0.00  0.00    -0.000 C 
ENDBRANCH  18  19
ENDBRANCH  17  18
ENDBRANCH   2  17
TORSDOF 4
ENDMDL
MODEL 2
REMARK VINA RESULT:     -11.5      2.464      4.742
REMARK  Name = 2740174
REMARK  4 active torsions:
REMARK  status: ('A' for Active; 'I' for Inactive)
REMARK    1  A    between atoms: N_2  and  C_17
REMARK    2  A    between atoms: C_8  and  C_12
REMARK    3  A    between atoms: C_17  and  C_18
REMARK    4  A    between atoms: C_18  and  C_19
REMARK                            x       y       z     vdW  Elec       q    Type
REMARK                         _______ _______ _______ _____ _____    ______ ____
ROOT
ATOM      1 CL   UNL     1      38.636 -23.972 -14.763  0.00  0.00    -0.099 Cl
ATOM      2  N   UNL     1      37.035 -21.966 -16.320  0.00  0.00    -0.309 N 
ATOM      3  N   UNL     1      34.951 -22.557 -15.380  0.00  0.00    -0.326 NA
ATOM      4  N   UNL     1      34.800 -24.307 -13.730  0.00  0.00    -0.346 NA
ATOM      5  C   UNL     1      36.309 -22.742 -15.464  0.00  0.00    +0.191 C 
ATOM      6  C   UNL     1      36.935 -23.722 -14.674  0.00  0.00    +0.195 C 
ATOM      7  C   UNL     1      36.135 -24.468 -13.833  0.00  0.00    +0.122 C 
ATOM      8  C   UNL     1      34.280 -23.348 -14.520  0.00  0.00    +0.157 C 
ATOM      9  C   UNL     1      36.714 -25.532 -12.956  0.00  0.00    +0.064 C 
ATOM     10  H   UNL     1      38.006 -22.117 -16.363  0.00  0.00    +0.149 HD
ENDROOT
BRANCH   8  12
ATOM     11  N   UNL     1      32.321 -23.329 -13.207  0.00  0.00    -0.232 NA
ATOM     12  C   UNL     1      32.857 -23.147 -14.437  0.00  0.00    +0.166 C 
ATOM     13  C   UNL     1      32.117 -22.794 -15.556  0.00  0.00    +0.031 C 
ATOM     14  C   UNL     1      30.746 -22.616 -15.404  0.00  0.00    +0.004 C 
ATOM     15  C   UNL     1      30.986 -23.148 -13.098  0.00  0.00    +0.100 C 
ATOM     16  C   UNL     1      30.163 -22.795 -14.155  0.00  0.00    +0.021 C 
ENDBRANCH   8  12
BRANCH   2  17
ATOM     17  C   UNL     1      36.477 -20.938 -17.168  0.00  0.00    +0.094 C 
BRANCH  17  18
ATOM     18  C   UNL     1      36.193 -21.486 -18.573  0.00  0.00    +0.048 C 
BRANCH  18  19
ATOM     19  C   UNL     1      34.888 -21.038 -19.141  0.00  0.00    -0.020 C 
ATOM     20  C   UNL     1      33.695 -21.565 -18.648  0.00  0.00    -0.004 C 
ATOM     21  C   UNL     1      34.862 -20.091 -20.165  0.00  0.00    -0.004 C 
ATOM     22  C   UNL     1      32.475 -21.145 -19.179  0.00  0.00    -0.000 C 
ATOM     23  C   UNL     1      33.643 -19.672 -20.697  0.00  0.00    -0.000 C 
ATOM     24  C   UNL     1      32.450 -20.199 -20.203  0.00  0.00    -0.000 C 
ENDBRANCH  18  19
ENDBRANCH  17  18
ENDBRANCH   2  17
TORSDOF 4
ENDMDL
MODEL 3
REMARK VINA RESULT:     -11.3      2.440      4.774
REMARK  Name = 2740174
REMARK  4 active torsions:
REMARK  status: ('A' for Active; 'I' for Inactive)
REMARK    1  A    between atoms: N_2  and  C_17
REMARK    2  A    between atoms: C_8  and  C_12
REMARK    3  A    between atoms: C_17  and  C_18
REMARK    4  A    between atoms: C_18  and  C_19
REMARK                            x       y       z     vdW  Elec       q    Type
REMARK                         _______ _______ _______ _____ _____    ______ ____
ROOT
ATOM      1 CL   UNL     1      38.735 -23.976 -14.852  0.00  0.00    -0.099 Cl
ATOM      2  N   UNL     1      37.075 -21.965 -16.340  0.00  0.00    -0.309 N 
ATOM      3  N   UNL     1      35.013 -22.627 -15.397  0.00  0.00    -0.326 NA
ATOM      4  N   UNL     1      34.916 -24.423 -13.794  0.00  0.00    -0.346 NA
ATOM      5  C   UNL     1      36.374 -22.779 -15.498  0.00  0.00    +0.191 C 
ATOM      6  C   UNL     1      37.029 -23.766 -14.741  0.00  0.00    +0.195 C 
ATOM      7  C   UNL     1      36.254 -24.552 -13.913  0.00  0.00    +0.122 C 
ATOM      8  C   UNL     1      34.368 -23.455 -14.553  0.00  0.00    +0.157 C 
ATOM      9  C   UNL     1      36.864 -25.626 -13.071  0.00  0.00    +0.064 C 
ATOM     10  H   UNL     1      38.049 -22.093 -16.395  0.00  0.00    +0.149 HD
ENDROOT
BRANCH   8  12
ATOM     11  N   UNL     1      32.333 -22.849 -15.578  0.00  0.00    -0.232 NA
ATOM     12  C   UNL     1      32.942 -23.288 -14.452  0.00  0.00    +0.166 C 
ATOM     13  C   UNL     1      32.271 -23.567 -13.270  0.00  0.00    +0.031 C 
ATOM     14  C   UNL     1      30.892 -23.384 -13.243  0.00  0.00    +0.004 C 
ATOM     15  C   UNL     1      30.993 -22.682 -15.514  0.00  0.00    +0.100 C 
ATOM     16  C   UNL     1      30.234 -22.933 -14.382  0.00  0.00    +0.021 C 
ENDBRANCH   8  12
BRANCH   2  17
ATOM     17  C   UNL     1      36.486 -20.927 -17.154  0.00  0.00    +0.094 C 
BRANCH  17  18
ATOM     18  C   UNL     1      36.218 -21.437 -18.576  0.00  0.00    +0.048 C 
BRANCH  18  19
ATOM     19  C   UNL     1      34.888 -21.033 -19.119  0.00  0.00    -0.020 C 
ATOM     20  C   UNL     1      33.723 -21.588 -18.593  0.00  0.00    -0.004 C 
ATOM     21  C   UNL     1      34.812 -20.100 -20.153  0.00  0.00    -0.004 C 
ATOM     22  C   UNL     1      32.479 -21.211 -19.100  0.00  0.00    -0.000 C 
ATOM     23  C   UNL     1      33.569 -19.722 -20.662  0.00  0.00    -0.000 C 
ATOM     24  C   UNL     1      32.403 -20.278 -20.135  0.00  0.00    -0.000 C 
ENDBRANCH  18  19
ENDBRANCH  17  18
ENDBRANCH   2  17
TORSDOF 4
ENDMDL
MODEL 4
REMARK VINA RESULT:     -11.1      2.174      4.506
REMARK  Name = 2740174
REMARK  4 active torsions:
REMARK  status: ('A' for Active; 'I' for Inactive)
REMARK    1  A    between atoms: N_2  and  C_17
REMARK    2  A    between atoms: C_8  and  C_12
REMARK    3  A    between atoms: C_17  and  C_18
REMARK    4  A    between atoms: C_18  and  C_19
REMARK                            x       y       z     vdW  Elec       q    Type
REMARK                         _______ _______ _______ _____ _____    ______ ____
ROOT
ATOM      1 CL   UNL     1      36.272 -22.276 -16.144  0.00  0.00    -0.099 Cl
ATOM      2  N   UNL     1      34.314 -22.004 -18.403  0.00  0.00    -0.309 N 
ATOM      3  N   UNL     1      32.407 -22.551 -17.121  0.00  0.00    -0.326 NA
ATOM      4  N   UNL     1      32.612 -23.071 -14.776  0.00  0.00    -0.346 NA
ATOM      5  C   UNL     1      33.764 -22.355 -17.204  0.00  0.00    +0.191 C 
ATOM      6  C   UNL     1      34.569 -22.516 -16.063  0.00  0.00    +0.195 C 
ATOM      7  C   UNL     1      33.942 -22.872 -14.887  0.00  0.00    +0.122 C 
ATOM      8  C   UNL     1      31.915 -22.895 -15.915  0.00  0.00    +0.157 C 
ATOM      9  C   UNL     1      34.718 -23.066 -13.624  0.00  0.00    +0.064 C 
ATOM     10  H   UNL     1      35.288 -21.869 -18.438  0.00  0.00    +0.149 HD
ENDROOT
BRANCH   8  12
ATOM     11  N   UNL     1      29.744 -22.211 -16.532  0.00  0.00    -0.232 NA
ATOM     12  C   UNL     1      30.492 -23.098 -15.836  0.00  0.00    +0.166 C 
ATOM     13  C   UNL     1      29.957 -24.139 -15.090  0.00  0.00    +0.031 C 
ATOM     14  C   UNL     1      28.574 -24.277 -15.058  0.00  0.00    +0.004 C 
ATOM     15  C   UNL     1      28.404 -22.376 -16.477  0.00  0.00    +0.100 C 
ATOM     16  C   UNL     1      27.775 -23.382 -15.761  0.00  0.00    +0.021 C 
ENDBRANCH   8  12
BRANCH   2  17
ATOM     17  C   UNL     1      33.565 -21.817 -19.624  0.00  0.00    +0.094 C 
BRANCH  17  18
ATOM     18  C   UNL     1      33.223 -20.335 -19.831  0.00  0.00    +0.048 C 
BRANCH  18  19
ATOM     19  C   UNL     1      34.221 -19.598 -20.661  0.00  0.00    -0.020 C 
ATOM     20  C   UNL     1      35.524 -19.429 -20.196  0.00  0.00    -0.004 C 
ATOM     21  C   UNL     1      33.849 -19.080 -21.901  0.00  0.00    -0.004 C 
ATOM     22  C   UNL     1      36.458 -18.740 -20.972  0.00  0.00    -0.000 C 
ATOM     23  C   UNL     1      34.781 -18.391 -22.677  0.00  0.00    -0.000 C 
ATOM     24  C   UNL     1      36.085 -18.221 -22.212  0.00  0.00    -0.000 C 
ENDBRANCH  18  19
ENDBRANCH  17  18
ENDBRANCH   2  17
TORSDOF 4
ENDMDL
MODEL 5
REMARK VINA RESULT:     -10.9      2.142      4.273
REMARK  Name = 2740174
REMARK  4 active torsions:
REMARK  status: ('A' for Active; 'I' for Inactive)
REMARK    1  A    between atoms: N_2  and  C_17
REMARK    2  A    between atoms: C_8  and  C_12
REMARK    3  A    between atoms: C_17  and  C_18
REMARK    4  A    between atoms: C_18  and  C_19
REMARK                            x       y       z     vdW  Elec       q    Type
REMARK                         _______ _______ _______ _____ _____    ______ ____
ROOT
ATOM      1 CL   UNL     1      36.964 -21.891 -16.145  0.00  0.00    -0.099 Cl
ATOM      2  N   UNL     1      34.826 -21.934 -18.253  0.00  0.00    -0.309 N 
ATOM      3  N   UNL     1      33.088 -22.610 -16.804  0.00  0.00    -0.326 NA
ATOM      4  N   UNL     1      33.519 -22.990 -14.464  0.00  0.00    -0.346 NA
ATOM      5  C   UNL     1      34.407 -22.280 -17.002  0.00  0.00    +0.191 C 
ATOM      6  C   UNL     1      35.306 -22.301 -15.921  0.00  0.00    +0.195 C 
ATOM      7  C   UNL     1      34.809 -22.661 -14.686  0.00  0.00    +0.122 C 
ATOM      8  C   UNL     1      32.725 -22.944 -15.551  0.00  0.00    +0.157 C 
ATOM      9  C   UNL     1      35.691 -22.712 -13.481  0.00  0.00    +0.064 C 
ATOM     10  H   UNL     1      35.775 -21.701 -18.371  0.00  0.00    +0.149 HD
ENDROOT
BRANCH   8  12
ATOM     11  N   UNL     1      31.113 -24.228 -14.405  0.00  0.00    -0.232 NA
ATOM     12  C   UNL     1      31.342 -23.288 -15.352  0.00  0.00    +0.166 C 
ATOM     13  C   UNL     1      30.339 -22.681 -16.094  0.00  0.00    +0.031 C 
ATOM     14  C   UNL     1      29.024 -23.062 -15.850  0.00  0.00    +0.004 C 
ATOM     15  C   UNL     1      29.823 -24.572 -14.195  0.00  0.00    +0.100 C 
ATOM     16  C   UNL     1      28.753 -24.025 -14.884  0.00  0.00    +0.021 C 
ENDBRANCH   8  12
BRANCH   2  17
ATOM     17  C   UNL     1      33.974 -21.885 -19.419  0.00  0.00    +0.094 C 
BRANCH  17  18
ATOM     18  C   UNL     1      33.463 -20.459 -19.660  0.00  0.00    +0.048 C 
BRANCH  18  19
ATOM     19  C   UNL     1      34.329 -19.656 -20.572  0.00  0.00    -0.020 C 
ATOM     20  C   UNL     1      33.805 -19.144 -21.758  0.00  0.00    -0.004 C 
ATOM     21  C   UNL     1      35.661 -19.417 -20.236  0.00  0.00    -0.004 C 
ATOM     22  C   UNL     1      34.615 -18.392 -22.611  0.00  0.00    -0.000 C 
ATOM     23  C   UNL     1      36.472 -18.666 -21.088  0.00  0.00    -0.000 C 
ATOM     24  C   UNL     1      35.948 -18.155 -22.276  0.00  0.00    -0.000 C 
ENDBRANCH  18  19
ENDBRANCH  17  18
ENDBRANCH   2  17
TORSDOF 4
ENDMDL
MODEL 6
REMARK VINA RESULT:     -10.6      2.444      7.286
REMARK  Name = 2740174
REMARK  4 active torsions:
REMARK  status: ('A' for Active; 'I' for Inactive)
REMARK    1  A    between atoms: N_2  and  C_17
REMARK    2  A    between atoms: C_8  and  C_12
REMARK    3  A    between atoms: C_17  and  C_18
REMARK    4  A    between atoms: C_18  and  C_19
REMARK                            x       y       z     vdW  Elec       q    Type
REMARK                         _______ _______ _______ _____ _____    ______ ____
ROOT
ATOM      1 CL   UNL     1      35.585 -21.311 -18.736  0.00  0.00    -0.099 Cl
ATOM      2  N   UNL     1      35.181 -22.734 -16.124  0.00  0.00    -0.309 N 
ATOM      3  N   UNL     1      32.822 -22.742 -16.229  0.00  0.00    -0.326 NA
ATOM      4  N   UNL     1      31.673 -21.758 -18.106  0.00  0.00    -0.346 NA
ATOM      5  C   UNL     1      34.033 -22.408 -16.785  0.00  0.00    +0.191 C 
ATOM      6  C   UNL     1      34.079 -21.739 -18.020  0.00  0.00    +0.195 C 
ATOM      7  C   UNL     1      32.877 -21.442 -18.628  0.00  0.00    +0.122 C 
ATOM      8  C   UNL     1      31.719 -22.398 -16.921  0.00  0.00    +0.157 C 
ATOM      9  C   UNL     1      32.828 -20.732 -19.943  0.00  0.00    +0.064 C 
ATOM     10  H   UNL     1      36.036 -22.485 -16.541  0.00  0.00    +0.149 HD
ENDROOT
BRANCH   8  12
ATOM     11  N   UNL     1      29.384 -22.080 -16.821  0.00  0.00    -0.232 NA
ATOM     12  C   UNL     1      30.453 -22.751 -16.333  0.00  0.00    +0.166 C 
ATOM     13  C   UNL     1      30.371 -23.715 -15.338  0.00  0.00    +0.031 C 
ATOM     14  C   UNL     1      29.116 -24.007 -14.813  0.00  0.00    +0.004 C 
ATOM     15  C   UNL     1      28.181 -22.391 -16.288  0.00  0.00    +0.100 C 
ATOM     16  C   UNL     1      27.996 -23.336 -15.292  0.00  0.00    +0.021 C 
ENDBRANCH   8  12
BRANCH   2  17
ATOM     17  C   UNL     1      35.228 -23.420 -14.853  0.00  0.00    +0.094 C 
BRANCH  17  18
ATOM     18  C   UNL     1      36.395 -22.905 -13.999  0.00  0.00    +0.048 C 
BRANCH  18  19
ATOM     19  C   UNL     1      37.577 -23.814 -13.986  0.00  0.00    -0.020 C 
ATOM     20  C   UNL     1      38.529 -23.735 -15.002  0.00  0.00    -0.004 C 
ATOM     21  C   UNL     1      37.731 -24.742 -12.956  0.00  0.00    -0.004 C 
ATOM     22  C   UNL     1      39.636 -24.585 -14.989  0.00  0.00    -0.000 C 
ATOM     23  C   UNL     1      38.837 -25.593 -12.943  0.00  0.00    -0.000 C 
ATOM     24  C   UNL     1      39.789 -25.513 -13.960  0.00  0.00    -0.000 C 
ENDBRANCH  18  19
ENDBRANCH  17  18
ENDBRANCH   2  17
TORSDOF 4
ENDMDL
MODEL 7
REMARK VINA RESULT:     -10.3      2.056      6.499
REMARK  Name = 2740174
REMARK  4 active torsions:
REMARK  status: ('A' for Active; 'I' for Inactive)
REMARK    1  A    between atoms: N_2  and  C_17
REMARK    2  A    between atoms: C_8  and  C_12
REMARK    3  A    between atoms: C_17  and  C_18
REMARK    4  A    between atoms: C_18  and  C_19
REMARK                            x       y       z     vdW  Elec       q    Type
REMARK                         _______ _______ _______ _____ _____    ______ ____
ROOT
ATOM      1 CL   UNL     1      30.727 -24.640 -12.901  0.00  0.00    -0.099 Cl
ATOM      2  N   UNL     1      33.569 -23.738 -13.253  0.00  0.00    -0.309 N 
ATOM      3  N   UNL     1      33.271 -22.888 -15.436  0.00  0.00    -0.326 NA
ATOM      4  N   UNL     1      31.119 -23.000 -16.514  0.00  0.00    -0.346 NA
ATOM      5  C   UNL     1      32.754 -23.500 -14.320  0.00  0.00    +0.191 C 
ATOM      6  C   UNL     1      31.398 -23.872 -14.288  0.00  0.00    +0.195 C 
ATOM      7  C   UNL     1      30.637 -23.599 -15.406  0.00  0.00    +0.122 C 
ATOM      8  C   UNL     1      32.425 -22.676 -16.462  0.00  0.00    +0.157 C 
ATOM      9  C   UNL     1      29.187 -23.960 -15.461  0.00  0.00    +0.064 C 
ATOM     10  H   UNL     1      33.176 -24.176 -12.465  0.00  0.00    +0.149 HD
ENDROOT
BRANCH   8  12
ATOM     11  N   UNL     1      32.066 -21.477 -18.461  0.00  0.00    -0.232 NA
ATOM     12  C   UNL     1      32.975 -22.034 -17.628  0.00  0.00    +0.166 C 
ATOM     13  C   UNL     1      34.344 -22.007 -17.851  0.00  0.00    +0.031 C 
ATOM     14  C   UNL     1      34.807 -21.370 -18.998  0.00  0.00    +0.004 C 
ATOM     15  C   UNL     1      32.552 -20.867 -19.564  0.00  0.00    +0.100 C 
ATOM     16  C   UNL     1      33.900 -20.787 -19.876  0.00  0.00    +0.021 C 
ENDBRANCH   8  12
BRANCH   2  17
ATOM     17  C   UNL     1      34.970 -23.390 -13.198  0.00  0.00    +0.094 C 
BRANCH  17  18
ATOM     18  C   UNL     1      35.826 -24.624 -12.884  0.00  0.00    +0.048 C 
BRANCH  18  19
ATOM     19  C   UNL     1      37.166 -24.611 -13.540  0.00  0.00    -0.020 C 
ATOM     20  C   UNL     1      38.186 -25.430 -13.058  0.00  0.00    -0.004 C 
ATOM     21  C   UNL     1      37.397 -23.778 -14.635  0.00  0.00    -0.004 C 
ATOM     22  C   UNL     1      39.439 -25.417 -13.672  0.00  0.00    -0.000 C 
ATOM     23  C   UNL     1      38.649 -23.765 -15.249  0.00  0.00    -0.000 C 
ATOM     24  C   UNL     1      39.670 -24.585 -14.767  0.00  0.00    -0.000 C 
ENDBRANCH  18  19
ENDBRANCH  17  18
ENDBRANCH   2  17
TORSDOF 4
ENDMDL
MODEL 8
REMARK VINA RESULT:     -10.3      1.718      6.302
REMARK  Name = 2740174
REMARK  4 active torsions:
REMARK  status: ('A' for Active; 'I' for Inactive)
REMARK    1  A    between atoms: N_2  and  C_17
REMARK    2  A    between atoms: C_8  and  C_12
REMARK    3  A    between atoms: C_17  and  C_18
REMARK    4  A    between atoms: C_18  and  C_19
REMARK                            x       y       z     vdW  Elec       q    Type
REMARK                         _______ _______ _______ _____ _____    ______ ____
ROOT
ATOM      1 CL   UNL     1      29.960 -23.970 -13.812  0.00  0.00    -0.099 Cl
ATOM      2  N   UNL     1      32.947 -23.704 -13.942  0.00  0.00    -0.309 N 
ATOM      3  N   UNL     1      32.993 -22.671 -16.066  0.00  0.00    -0.326 NA
ATOM      4  N   UNL     1      30.947 -22.231 -17.261  0.00  0.00    -0.346 NA
ATOM      5  C   UNL     1      32.279 -23.222 -15.029  0.00  0.00    +0.191 C 
ATOM      6  C   UNL     1      30.876 -23.284 -15.098  0.00  0.00    +0.195 C 
ATOM      7  C   UNL     1      30.271 -22.777 -16.229  0.00  0.00    +0.122 C 
ATOM      8  C   UNL     1      32.286 -22.210 -17.115  0.00  0.00    +0.157 C 
ATOM      9  C   UNL     1      28.785 -22.801 -16.389  0.00  0.00    +0.064 C 
ATOM     10  H   UNL     1      32.414 -24.093 -13.212  0.00  0.00    +0.149 HD
ENDROOT
BRANCH   8  12
ATOM     11  N   UNL     1      34.353 -21.969 -18.225  0.00  0.00    -0.232 NA
ATOM     12  C   UNL     1      33.042 -21.634 -18.197  0.00  0.00    +0.166 C 
ATOM     13  C   UNL     1      32.439 -20.800 -19.127  0.00  0.00    +0.031 C 
ATOM     14  C   UNL     1      33.229 -20.278 -20.146  0.00  0.00    +0.004 C 
ATOM     15  C   UNL     1      35.089 -21.443 -19.229  0.00  0.00    +0.100 C 
ATOM     16  C   UNL     1      34.580 -20.601 -20.204  0.00  0.00    +0.021 C 
ENDBRANCH   8  12
BRANCH   2  17
ATOM     17  C   UNL     1      34.383 -23.681 -13.787  0.00  0.00    +0.094 C 
BRANCH  17  18
ATOM     18  C   UNL     1      35.036 -24.807 -14.601  0.00  0.00    +0.048 C 
BRANCH  18  19
ATOM     19  C   UNL     1      36.526 -24.732 -14.643  0.00  0.00    -0.020 C 
ATOM     20  C   UNL     1      37.153 -23.561 -15.067  0.00  0.00    -0.004 C 
ATOM     21  C   UNL     1      37.290 -25.833 -14.257  0.00  0.00    -0.004 C 
ATOM     22  C   UNL     1      38.546 -23.491 -15.106  0.00  0.00    -0.000 C 
ATOM     23  C   UNL     1      38.683 -25.764 -14.297  0.00  0.00    -0.000 C 
ATOM     24  C   UNL     1      39.310 -24.593 -14.721  0.00  0.00    -0.000 C 
ENDBRANCH  18  19
ENDBRANCH  17  18
ENDBRANCH   2  17
TORSDOF 4
ENDMDL
MODEL 9
REMARK VINA RESULT:     -10.1     10.646     15.171
REMARK  Name = 2740174
REMARK  4 active torsions:
REMARK  status: ('A' for Active; 'I' for Inactive)
REMARK    1  A    between atoms: N_2  and  C_17
REMARK    2  A    between atoms: C_8  and  C_12
REMARK    3  A    between atoms: C_17  and  C_18
REMARK    4  A    between atoms: C_18  and  C_19
REMARK                            x       y       z     vdW  Elec       q    Type
REMARK                         _______ _______ _______ _____ _____    ______ ____
ROOT
ATOM      1 CL   UNL     1      31.159  -9.647 -19.204  0.00  0.00    -0.099 Cl
ATOM      2  N   UNL     1      31.719 -10.929 -21.860  0.00  0.00    -0.309 N 
ATOM      3  N   UNL     1      32.115  -8.906 -23.013  0.00  0.00    -0.326 NA
ATOM      4  N   UNL     1      31.966  -6.791 -21.867  0.00  0.00    -0.346 NA
ATOM      5  C   UNL     1      31.798  -9.567 -21.851  0.00  0.00    +0.191 C 
ATOM      6  C   UNL     1      31.558  -8.840 -20.672  0.00  0.00    +0.195 C 
ATOM      7  C   UNL     1      31.656  -7.465 -20.741  0.00  0.00    +0.122 C 
ATOM      8  C   UNL     1      32.180  -7.562 -22.950  0.00  0.00    +0.157 C 
ATOM      9  C   UNL     1      31.418  -6.611 -19.537  0.00  0.00    +0.064 C 
ATOM     10  H   UNL     1      31.491 -11.380 -21.016  0.00  0.00    +0.149 HD
ENDROOT
BRANCH   8  12
ATOM     11  N   UNL     1      33.830  -6.606 -24.338  0.00  0.00    -0.232 NA
ATOM     12  C   UNL     1      32.514  -6.877 -24.172  0.00  0.00    +0.166 C 
ATOM     13  C   UNL     1      31.534  -6.533 -25.091  0.00  0.00    +0.031 C 
ATOM     14  C   UNL     1      31.927  -5.872 -26.250  0.00  0.00    +0.004 C 
ATOM     15  C   UNL     1      34.174  -5.962 -25.476  0.00  0.00    +0.100 C 
ATOM     16  C   UNL     1      33.271  -5.578 -26.453  0.00  0.00    +0.021 C 
ENDBRANCH   8  12
BRANCH   2  17
ATOM     17  C   UNL     1      31.949 -11.755 -23.023  0.00  0.00    +0.094 C 
BRANCH  17  18
ATOM     18  C   UNL     1      33.425 -12.162 -23.119  0.00  0.00    +0.048 C 
BRANCH  18  19
ATOM     19  C   UNL     1      33.739 -13.452 -22.439  0.00  0.00    -0.020 C 
ATOM     20  C   UNL     1      34.159 -14.551 -23.187  0.00  0.00    -0.004 C 
ATOM     21  C   UNL     1      33.612 -13.559 -21.053  0.00  0.00    -0.004 C 
ATOM     22  C   UNL     1      34.453 -15.757 -22.551  0.00  0.00    -0.000 C 
ATOM     23  C   UNL     1      33.905 -14.765 -20.417  0.00  0.00    -0.000 C 
ATOM     24  C   UNL     1      34.326 -15.864 -21.166  0.00  0.00    -0.000 C 
ENDBRANCH  18  19
ENDBRANCH  17  18
ENDBRANCH   2  17
TORSDOF 4
ENDMDL
