MODEL 1
REMARK VINA RESULT:     -12.9      0.000      0.000
REMARK  Name = 9896504
REMARK  6 active torsions:
REMARK  status: ('A' for Active; 'I' for Inactive)
REMARK    1  A    between atoms: N_4  and  C_22
REMARK    2  A    between atoms: C_11  and  C_13
REMARK    3  A    between atoms: C_13  and  O_14
REMARK    4  A    between atoms: O_14  and  C_15
REMARK    5  A    between atoms: C_15  and  C_16
REMARK    6  A    between atoms: C_22  and  C_23
REMARK                            x       y       z     vdW  Elec       q    Type
REMARK                         _______ _______ _______ _____ _____    ______ ____
ROOT
ATOM      1  S   UNL     1      33.193 -14.911 -24.411  0.00  0.00    -0.064 S 
ATOM      2  O   UNL     1      35.219 -16.781 -20.343  0.00  0.00    -0.251 OA
ATOM      3  O   UNL     1      34.600 -19.751 -23.913  0.00  0.00    -0.269 OA
ATOM      4  N   UNL     1      34.946 -18.315 -22.094  0.00  0.00    -0.206 N 
ATOM      5  N   UNL     1      34.282 -16.069 -22.330  0.00  0.00    -0.214 N 
ATOM      6  C   UNL     1      33.853 -16.315 -23.615  0.00  0.00    +0.094 C 
ATOM      7  C   UNL     1      34.847 -17.029 -21.493  0.00  0.00    +0.321 C 
ATOM      8  C   UNL     1      34.523 -18.637 -23.396  0.00  0.00    +0.258 C 
ATOM      9  C   UNL     1      33.942 -17.519 -24.180  0.00  0.00    +0.080 C 
ATOM     10  C   UNL     1      34.069 -14.749 -22.004  0.00  0.00    +0.087 C 
ATOM     11  C   UNL     1      33.514 -14.022 -22.974  0.00  0.00    +0.122 C 
ENDROOT
BRANCH  11  13
ATOM     12  O   UNL     1      33.410 -11.788 -23.760  0.00  0.00    -0.244 OA
ATOM     13  C   UNL     1      33.192 -12.609 -22.873  0.00  0.00    +0.349 C 
BRANCH  13  14
ATOM     14  O   UNL     1      32.624 -12.365 -21.660  0.00  0.00    -0.440 OA
BRANCH  14  15
ATOM     15  C   UNL     1      31.312 -11.795 -21.689  0.00  0.00    +0.235 C 
BRANCH  15  16
ATOM     16  C   UNL     1      31.366 -10.414 -21.104  0.00  0.00    +0.021 C 
ATOM     17  C   UNL     1      31.303 -10.247 -19.726  0.00  0.00    -0.001 C 
ATOM     18  C   UNL     1      31.479  -9.313 -21.946  0.00  0.00    -0.001 C 
ATOM     19  C   UNL     1      31.354  -8.963 -19.182  0.00  0.00    -0.000 C 
ATOM     20  C   UNL     1      31.530  -8.029 -21.402  0.00  0.00    -0.000 C 
ATOM     21  C   UNL     1      31.467  -7.855 -20.020  0.00  0.00    -0.000 C 
ENDBRANCH  15  16
ENDBRANCH  14  15
ENDBRANCH  13  14
ENDBRANCH  11  13
BRANCH   4  22
ATOM     22  C   UNL     1      35.525 -19.402 -21.312  0.00  0.00    +0.129 C 
BRANCH  22  23
ATOM     23  C   UNL     1      34.501 -20.078 -20.447  0.00  0.00    -0.002 C 
ATOM     24  C   UNL     1      34.907 -21.027 -19.516  0.00  0.00    -0.003 C 
ATOM     25  C   UNL     1      33.158 -19.747 -20.584  0.00  0.00    -0.003 C 
ATOM     26  C   UNL     1      33.956 -21.656 -18.711  0.00  0.00    -0.000 C 
ATOM     27  C   UNL     1      32.207 -20.375 -19.779  0.00  0.00    -0.000 C 
ATOM     28  C   UNL     1      32.606 -21.329 -18.843  0.00  0.00    -0.000 C 
ENDBRANCH  22  23
ENDBRANCH   4  22
TORSDOF 6
ENDMDL
MODEL 2
REMARK VINA RESULT:     -12.2      2.211      9.670
REMARK  Name = 9896504
REMARK  6 active torsions:
REMARK  status: ('A' for Active; 'I' for Inactive)
REMARK    1  A    between atoms: N_4  and  C_22
REMARK    2  A    between atoms: C_11  and  C_13
REMARK    3  A    between atoms: C_13  and  O_14
REMARK    4  A    between atoms: O_14  and  C_15
REMARK    5  A    between atoms: C_15  and  C_16
REMARK    6  A    between atoms: C_22  and  C_23
REMARK                            x       y       z     vdW  Elec       q    Type
REMARK                         _______ _______ _______ _____ _____    ______ ____
ROOT
ATOM      1  S   UNL     1      33.413 -14.665 -20.496  0.00  0.00    -0.064 S 
ATOM      2  O   UNL     1      32.527 -11.538 -24.181  0.00  0.00    -0.251 OA
ATOM      3  O   UNL     1      30.984 -10.255 -19.949  0.00  0.00    -0.269 OA
ATOM      4  N   UNL     1      31.738 -10.833 -22.091  0.00  0.00    -0.206 N 
ATOM      5  N   UNL     1      32.860 -12.889 -22.338  0.00  0.00    -0.214 N 
ATOM      6  C   UNL     1      32.719 -13.145 -20.993  0.00  0.00    +0.094 C 
ATOM      7  C   UNL     1      32.390 -11.740 -22.973  0.00  0.00    +0.321 C 
ATOM      8  C   UNL     1      31.555 -11.034 -20.710  0.00  0.00    +0.258 C 
ATOM      9  C   UNL     1      32.107 -12.299 -20.164  0.00  0.00    +0.080 C 
ATOM     10  C   UNL     1      33.525 -13.926 -22.951  0.00  0.00    +0.087 C 
ATOM     11  C   UNL     1      33.877 -14.918 -22.133  0.00  0.00    +0.122 C 
ENDROOT
BRANCH  11  13
ATOM     12  O   UNL     1      34.684 -16.499 -23.703  0.00  0.00    -0.244 OA
ATOM     13  C   UNL     1      34.586 -16.119 -22.540  0.00  0.00    +0.349 C 
BRANCH  13  14
ATOM     14  O   UNL     1      35.105 -16.727 -21.438  0.00  0.00    -0.440 OA
BRANCH  14  15
ATOM     15  C   UNL     1      35.825 -17.940 -21.676  0.00  0.00    +0.235 C 
BRANCH  15  16
ATOM     16  C   UNL     1      35.207 -19.042 -20.866  0.00  0.00    +0.021 C 
ATOM     17  C   UNL     1      36.016 -19.865 -20.091  0.00  0.00    -0.001 C 
ATOM     18  C   UNL     1      33.829 -19.231 -20.897  0.00  0.00    -0.001 C 
ATOM     19  C   UNL     1      35.441 -20.889 -19.338  0.00  0.00    -0.000 C 
ATOM     20  C   UNL     1      33.255 -20.255 -20.144  0.00  0.00    -0.000 C 
ATOM     21  C   UNL     1      34.061 -21.083 -19.365  0.00  0.00    -0.000 C 
ENDBRANCH  15  16
ENDBRANCH  14  15
ENDBRANCH  13  14
ENDBRANCH  11  13
BRANCH   4  22
ATOM     22  C   UNL     1      31.206  -9.592 -22.642  0.00  0.00    +0.129 C 
BRANCH  22  23
ATOM     23  C   UNL     1      32.197  -8.468 -22.555  0.00  0.00    -0.002 C 
ATOM     24  C   UNL     1      33.300  -8.457 -23.399  0.00  0.00    -0.003 C 
ATOM     25  C   UNL     1      31.999  -7.448 -21.632  0.00  0.00    -0.003 C 
ATOM     26  C   UNL     1      34.222  -7.412 -23.319  0.00  0.00    -0.000 C 
ATOM     27  C   UNL     1      32.919  -6.403 -21.551  0.00  0.00    -0.000 C 
ATOM     28  C   UNL     1      34.031  -6.385 -22.395  0.00  0.00    -0.000 C 
ENDBRANCH  22  23
ENDBRANCH   4  22
TORSDOF 6
ENDMDL
MODEL 3
REMARK VINA RESULT:     -12.1      3.939      9.807
REMARK  Name = 9896504
REMARK  6 active torsions:
REMARK  status: ('A' for Active; 'I' for Inactive)
REMARK    1  A    between atoms: N_4  and  C_22
REMARK    2  A    between atoms: C_11  and  C_13
REMARK    3  A    between atoms: C_13  and  O_14
REMARK    4  A    between atoms: O_14  and  C_15
REMARK    5  A    between atoms: C_15  and  C_16
REMARK    6  A    between atoms: C_22  and  C_23
REMARK                            x       y       z     vdW  Elec       q    Type
REMARK                         _______ _______ _______ _____ _____    ______ ____
ROOT
ATOM      1  S   UNL     1      35.431 -21.407 -18.323  0.00  0.00    -0.064 S 
ATOM      2  O   UNL     1      32.783 -19.242 -21.852  0.00  0.00    -0.251 OA
ATOM      3  O   UNL     1      37.266 -17.927 -21.512  0.00  0.00    -0.269 OA
ATOM      4  N   UNL     1      35.018 -18.548 -21.742  0.00  0.00    -0.206 N 
ATOM      5  N   UNL     1      34.170 -20.160 -20.250  0.00  0.00    -0.214 N 
ATOM      6  C   UNL     1      35.398 -20.261 -19.637  0.00  0.00    +0.094 C 
ATOM      7  C   UNL     1      33.895 -19.315 -21.324  0.00  0.00    +0.321 C 
ATOM      8  C   UNL     1      36.297 -18.597 -21.157  0.00  0.00    +0.258 C 
ATOM      9  C   UNL     1      36.452 -19.542 -20.024  0.00  0.00    +0.080 C 
ATOM     10  C   UNL     1      33.269 -21.009 -19.649  0.00  0.00    +0.087 C 
ATOM     11  C   UNL     1      33.769 -21.721 -18.638  0.00  0.00    +0.122 C 
ENDROOT
BRANCH  11  13
ATOM     12  O   UNL     1      33.052 -23.897 -18.030  0.00  0.00    -0.244 OA
ATOM     13  C   UNL     1      33.020 -22.683 -17.848  0.00  0.00    +0.349 C 
BRANCH  13  14
ATOM     14  O   UNL     1      32.300 -22.019 -16.902  0.00  0.00    -0.440 OA
BRANCH  14  15
ATOM     15  C   UNL     1      30.920 -22.384 -16.799  0.00  0.00    +0.235 C 
BRANCH  15  16
ATOM     16  C   UNL     1      30.686 -23.039 -15.469  0.00  0.00    +0.021 C 
ATOM     17  C   UNL     1      31.307 -22.534 -14.333  0.00  0.00    -0.001 C 
ATOM     18  C   UNL     1      29.849 -24.147 -15.385  0.00  0.00    -0.001 C 
ATOM     19  C   UNL     1      31.088 -23.143 -13.097  0.00  0.00    -0.000 C 
ATOM     20  C   UNL     1      29.630 -24.756 -14.149  0.00  0.00    -0.000 C 
ATOM     21  C   UNL     1      30.250 -24.253 -13.006  0.00  0.00    -0.000 C 
ENDBRANCH  15  16
ENDBRANCH  14  15
ENDBRANCH  13  14
ENDBRANCH  11  13
BRANCH   4  22
ATOM     22  C   UNL     1      34.850 -17.627 -22.860  0.00  0.00    +0.129 C 
BRANCH  22  23
ATOM     23  C   UNL     1      34.473 -16.248 -22.401  0.00  0.00    -0.002 C 
ATOM     24  C   UNL     1      34.295 -15.237 -23.338  0.00  0.00    -0.003 C 
ATOM     25  C   UNL     1      34.305 -15.997 -21.045  0.00  0.00    -0.003 C 
ATOM     26  C   UNL     1      33.945 -13.955 -22.912  0.00  0.00    -0.000 C 
ATOM     27  C   UNL     1      33.953 -14.716 -20.619  0.00  0.00    -0.000 C 
ATOM     28  C   UNL     1      33.774 -13.695 -21.553  0.00  0.00    -0.000 C 
ENDBRANCH  22  23
ENDBRANCH   4  22
TORSDOF 6
ENDMDL
MODEL 4
REMARK VINA RESULT:     -11.8      3.984     10.236
REMARK  Name = 9896504
REMARK  6 active torsions:
REMARK  status: ('A' for Active; 'I' for Inactive)
REMARK    1  A    between atoms: N_4  and  C_22
REMARK    2  A    between atoms: C_11  and  C_13
REMARK    3  A    between atoms: C_13  and  O_14
REMARK    4  A    between atoms: O_14  and  C_15
REMARK    5  A    between atoms: C_15  and  C_16
REMARK    6  A    between atoms: C_22  and  C_23
REMARK                            x       y       z     vdW  Elec       q    Type
REMARK                         _______ _______ _______ _____ _____    ______ ____
ROOT
ATOM      1  S   UNL     1      35.462 -21.343 -18.263  0.00  0.00    -0.064 S 
ATOM      2  O   UNL     1      32.788 -19.225 -21.800  0.00  0.00    -0.251 OA
ATOM      3  O   UNL     1      37.315 -18.036 -21.620  0.00  0.00    -0.269 OA
ATOM      4  N   UNL     1      35.045 -18.596 -21.771  0.00  0.00    -0.206 N 
ATOM      5  N   UNL     1      34.188 -20.128 -20.201  0.00  0.00    -0.214 N 
ATOM      6  C   UNL     1      35.429 -20.244 -19.615  0.00  0.00    +0.094 C 
ATOM      7  C   UNL     1      33.911 -19.313 -21.297  0.00  0.00    +0.321 C 
ATOM      8  C   UNL     1      36.336 -18.663 -21.217  0.00  0.00    +0.258 C 
ATOM      9  C   UNL     1      36.493 -19.572 -20.055  0.00  0.00    +0.080 C 
ATOM     10  C   UNL     1      33.279 -20.927 -19.548  0.00  0.00    +0.087 C 
ATOM     11  C   UNL     1      33.784 -21.618 -18.525  0.00  0.00    +0.122 C 
ENDROOT
BRANCH  11  13
ATOM     12  O   UNL     1      31.801 -22.605 -17.679  0.00  0.00    -0.244 OA
ATOM     13  C   UNL     1      33.027 -22.527 -17.682  0.00  0.00    +0.349 C 
BRANCH  13  14
ATOM     14  O   UNL     1      33.891 -23.255 -16.921  0.00  0.00    -0.440 OA
BRANCH  14  15
ATOM     15  C   UNL     1      33.654 -23.228 -15.510  0.00  0.00    +0.235 C 
BRANCH  15  16
ATOM     16  C   UNL     1      34.904 -23.649 -14.796  0.00  0.00    +0.021 C 
ATOM     17  C   UNL     1      35.330 -24.970 -14.873  0.00  0.00    -0.001 C 
ATOM     18  C   UNL     1      35.626 -22.714 -14.062  0.00  0.00    -0.001 C 
ATOM     19  C   UNL     1      36.493 -25.362 -14.210  0.00  0.00    -0.000 C 
ATOM     20  C   UNL     1      36.789 -23.106 -13.398  0.00  0.00    -0.000 C 
ATOM     21  C   UNL     1      37.222 -24.429 -13.473  0.00  0.00    -0.000 C 
ENDBRANCH  15  16
ENDBRANCH  14  15
ENDBRANCH  13  14
ENDBRANCH  11  13
BRANCH   4  22
ATOM     22  C   UNL     1      34.875 -17.711 -22.918  0.00  0.00    +0.129 C 
BRANCH  22  23
ATOM     23  C   UNL     1      34.497 -16.319 -22.501  0.00  0.00    -0.002 C 
ATOM     24  C   UNL     1      34.306 -15.340 -23.470  0.00  0.00    -0.003 C 
ATOM     25  C   UNL     1      34.341 -16.023 -21.153  0.00  0.00    -0.003 C 
ATOM     26  C   UNL     1      33.955 -14.046 -23.084  0.00  0.00    -0.000 C 
ATOM     27  C   UNL     1      33.989 -14.729 -20.766  0.00  0.00    -0.000 C 
ATOM     28  C   UNL     1      33.797 -13.741 -21.732  0.00  0.00    -0.000 C 
ENDBRANCH  22  23
ENDBRANCH   4  22
TORSDOF 6
ENDMDL
MODEL 5
REMARK VINA RESULT:     -11.5      1.275      1.728
REMARK  Name = 9896504
REMARK  6 active torsions:
REMARK  status: ('A' for Active; 'I' for Inactive)
REMARK    1  A    between atoms: N_4  and  C_22
REMARK    2  A    between atoms: C_11  and  C_13
REMARK    3  A    between atoms: C_13  and  O_14
REMARK    4  A    between atoms: O_14  and  C_15
REMARK    5  A    between atoms: C_15  and  C_16
REMARK    6  A    between atoms: C_22  and  C_23
REMARK                            x       y       z     vdW  Elec       q    Type
REMARK                         _______ _______ _______ _____ _____    ______ ____
ROOT
ATOM      1  S   UNL     1      32.743 -13.870 -23.903  0.00  0.00    -0.064 S 
ATOM      2  O   UNL     1      34.953 -16.463 -20.361  0.00  0.00    -0.251 OA
ATOM      3  O   UNL     1      34.427 -18.610 -24.491  0.00  0.00    -0.269 OA
ATOM      4  N   UNL     1      34.729 -17.589 -22.403  0.00  0.00    -0.206 N 
ATOM      5  N   UNL     1      33.937 -15.388 -22.135  0.00  0.00    -0.214 N 
ATOM      6  C   UNL     1      33.496 -15.372 -23.440  0.00  0.00    +0.094 C 
ATOM      7  C   UNL     1      34.571 -16.474 -21.534  0.00  0.00    +0.321 C 
ATOM      8  C   UNL     1      34.299 -17.642 -23.742  0.00  0.00    +0.258 C 
ATOM      9  C   UNL     1      33.640 -16.416 -24.256  0.00  0.00    +0.080 C 
ATOM     10  C   UNL     1      33.658 -14.187 -21.526  0.00  0.00    +0.087 C 
ATOM     11  C   UNL     1      33.044 -13.299 -22.308  0.00  0.00    +0.122 C 
ENDROOT
BRANCH  11  13
ATOM     12  O   UNL     1      32.058 -11.713 -20.848  0.00  0.00    -0.244 OA
ATOM     13  C   UNL     1      32.646 -11.963 -21.897  0.00  0.00    +0.349 C 
BRANCH  13  14
ATOM     14  O   UNL     1      33.030 -11.070 -22.849  0.00  0.00    -0.440 OA
BRANCH  14  15
ATOM     15  C   UNL     1      32.044 -10.106 -23.232  0.00  0.00    +0.235 C 
BRANCH  15  16
ATOM     16  C   UNL     1      32.456  -8.755 -22.723  0.00  0.00    +0.021 C 
ATOM     17  C   UNL     1      31.800  -8.202 -21.630  0.00  0.00    -0.001 C 
ATOM     18  C   UNL     1      33.491  -8.070 -23.350  0.00  0.00    -0.001 C 
ATOM     19  C   UNL     1      32.184  -6.947 -21.156  0.00  0.00    -0.000 C 
ATOM     20  C   UNL     1      33.875  -6.815 -22.876  0.00  0.00    -0.000 C 
ATOM     21  C   UNL     1      33.221  -6.254 -21.779  0.00  0.00    -0.000 C 
ENDBRANCH  15  16
ENDBRANCH  14  15
ENDBRANCH  13  14
ENDBRANCH  11  13
BRANCH   4  22
ATOM     22  C   UNL     1      35.383 -18.785 -21.884  0.00  0.00    +0.129 C 
BRANCH  22  23
ATOM     23  C   UNL     1      34.480 -19.570 -20.977  0.00  0.00    -0.002 C 
ATOM     24  C   UNL     1      35.032 -20.428 -20.032  0.00  0.00    -0.003 C 
ATOM     25  C   UNL     1      33.102 -19.428 -21.088  0.00  0.00    -0.003 C 
ATOM     26  C   UNL     1      34.193 -21.157 -19.189  0.00  0.00    -0.000 C 
ATOM     27  C   UNL     1      32.263 -20.156 -20.244  0.00  0.00    -0.000 C 
ATOM     28  C   UNL     1      32.809 -21.021 -19.295  0.00  0.00    -0.000 C 
ENDBRANCH  22  23
ENDBRANCH   4  22
TORSDOF 6
ENDMDL
MODEL 6
REMARK VINA RESULT:     -11.4      4.309     10.552
REMARK  Name = 9896504
REMARK  6 active torsions:
REMARK  status: ('A' for Active; 'I' for Inactive)
REMARK    1  A    between atoms: N_4  and  C_22
REMARK    2  A    between atoms: C_11  and  C_13
REMARK    3  A    between atoms: C_13  and  O_14
REMARK    4  A    between atoms: O_14  and  C_15
REMARK    5  A    between atoms: C_15  and  C_16
REMARK    6  A    between atoms: C_22  and  C_23
REMARK                            x       y       z     vdW  Elec       q    Type
REMARK                         _______ _______ _______ _____ _____    ______ ____
ROOT
ATOM      1  S   UNL     1      34.163 -21.724 -18.572  0.00  0.00    -0.064 S 
ATOM      2  O   UNL     1      37.056 -18.263 -20.521  0.00  0.00    -0.251 OA
ATOM      3  O   UNL     1      32.961 -19.005 -22.671  0.00  0.00    -0.269 OA
ATOM      4  N   UNL     1      35.020 -18.578 -21.637  0.00  0.00    -0.206 N 
ATOM      5  N   UNL     1      35.576 -19.852 -19.737  0.00  0.00    -0.214 N 
ATOM      6  C   UNL     1      34.379 -20.528 -19.821  0.00  0.00    +0.094 C 
ATOM      7  C   UNL     1      35.976 -18.850 -20.619  0.00  0.00    +0.321 C 
ATOM      8  C   UNL     1      33.784 -19.233 -21.786  0.00  0.00    +0.258 C 
ATOM      9  C   UNL     1      33.483 -20.278 -20.775  0.00  0.00    +0.080 C 
ATOM     10  C   UNL     1      36.304 -20.312 -18.664  0.00  0.00    +0.087 C 
ATOM     11  C   UNL     1      35.709 -21.278 -17.964  0.00  0.00    +0.122 C 
ENDROOT
BRANCH  11  13
ATOM     12  O   UNL     1      37.381 -21.662 -16.328  0.00  0.00    -0.244 OA
ATOM     13  C   UNL     1      36.275 -21.924 -16.792  0.00  0.00    +0.349 C 
BRANCH  13  14
ATOM     14  O   UNL     1      35.388 -22.841 -16.316  0.00  0.00    -0.440 OA
BRANCH  14  15
ATOM     15  C   UNL     1      35.102 -22.763 -14.916  0.00  0.00    +0.235 C 
BRANCH  15  16
ATOM     16  C   UNL     1      35.990 -23.723 -14.180  0.00  0.00    +0.021 C 
ATOM     17  C   UNL     1      36.735 -23.279 -13.094  0.00  0.00    -0.001 C 
ATOM     18  C   UNL     1      36.061 -25.049 -14.592  0.00  0.00    -0.001 C 
ATOM     19  C   UNL     1      37.561 -24.172 -12.410  0.00  0.00    -0.000 C 
ATOM     20  C   UNL     1      36.886 -25.942 -13.909  0.00  0.00    -0.000 C 
ATOM     21  C   UNL     1      37.635 -25.503 -12.818  0.00  0.00    -0.000 C 
ENDBRANCH  15  16
ENDBRANCH  14  15
ENDBRANCH  13  14
ENDBRANCH  11  13
BRANCH   4  22
ATOM     22  C   UNL     1      35.330 -17.545 -22.619  0.00  0.00    +0.129 C 
BRANCH  22  23
ATOM     23  C   UNL     1      34.683 -16.234 -22.278  0.00  0.00    -0.002 C 
ATOM     24  C   UNL     1      34.400 -15.932 -20.951  0.00  0.00    -0.003 C 
ATOM     25  C   UNL     1      34.375 -15.334 -23.292  0.00  0.00    -0.003 C 
ATOM     26  C   UNL     1      33.798 -14.714 -20.633  0.00  0.00    -0.000 C 
ATOM     27  C   UNL     1      33.776 -14.116 -22.974  0.00  0.00    -0.000 C 
ATOM     28  C   UNL     1      33.487 -13.806 -21.645  0.00  0.00    -0.000 C 
ENDBRANCH  22  23
ENDBRANCH   4  22
TORSDOF 6
ENDMDL
MODEL 7
REMARK VINA RESULT:     -11.4      3.769      9.787
REMARK  Name = 9896504
REMARK  6 active torsions:
REMARK  status: ('A' for Active; 'I' for Inactive)
REMARK    1  A    between atoms: N_4  and  C_22
REMARK    2  A    between atoms: C_11  and  C_13
REMARK    3  A    between atoms: C_13  and  O_14
REMARK    4  A    between atoms: O_14  and  C_15
REMARK    5  A    between atoms: C_15  and  C_16
REMARK    6  A    between atoms: C_22  and  C_23
REMARK                            x       y       z     vdW  Elec       q    Type
REMARK                         _______ _______ _______ _____ _____    ______ ____
ROOT
ATOM      1  S   UNL     1      33.884 -21.747 -18.769  0.00  0.00    -0.064 S 
ATOM      2  O   UNL     1      36.989 -18.314 -20.420  0.00  0.00    -0.251 OA
ATOM      3  O   UNL     1      32.995 -18.831 -22.814  0.00  0.00    -0.269 OA
ATOM      4  N   UNL     1      35.008 -18.515 -21.655  0.00  0.00    -0.206 N 
ATOM      5  N   UNL     1      35.417 -19.881 -19.781  0.00  0.00    -0.214 N 
ATOM      6  C   UNL     1      34.206 -20.511 -19.956  0.00  0.00    +0.094 C 
ATOM      7  C   UNL     1      35.897 -18.859 -20.599  0.00  0.00    +0.321 C 
ATOM      8  C   UNL     1      33.761 -19.122 -21.895  0.00  0.00    +0.258 C 
ATOM      9  C   UNL     1      33.372 -20.193 -20.946  0.00  0.00    +0.080 C 
ATOM     10  C   UNL     1      36.071 -20.406 -18.690  0.00  0.00    +0.087 C 
ATOM     11  C   UNL     1      35.409 -21.378 -18.062  0.00  0.00    +0.122 C 
ENDROOT
BRANCH  11  13
ATOM     12  O   UNL     1      37.022 -21.973 -16.431  0.00  0.00    -0.244 OA
ATOM     13  C   UNL     1      35.888 -22.087 -16.889  0.00  0.00    +0.349 C 
BRANCH  13  14
ATOM     14  O   UNL     1      34.889 -22.875 -16.404  0.00  0.00    -0.440 OA
BRANCH  14  15
ATOM     15  C   UNL     1      34.643 -22.774 -14.998  0.00  0.00    +0.235 C 
BRANCH  15  16
ATOM     16  C   UNL     1      33.223 -23.175 -14.720  0.00  0.00    +0.021 C 
ATOM     17  C   UNL     1      32.212 -22.775 -15.586  0.00  0.00    -0.001 C 
ATOM     18  C   UNL     1      32.932 -23.943 -13.598  0.00  0.00    -0.001 C 
ATOM     19  C   UNL     1      30.893 -23.148 -15.328  0.00  0.00    -0.000 C 
ATOM     20  C   UNL     1      31.612 -24.317 -13.340  0.00  0.00    -0.000 C 
ATOM     21  C   UNL     1      30.594 -23.919 -14.206  0.00  0.00    -0.000 C 
ENDBRANCH  15  16
ENDBRANCH  14  15
ENDBRANCH  13  14
ENDBRANCH  11  13
BRANCH   4  22
ATOM     22  C   UNL     1      35.403 -17.456 -22.577  0.00  0.00    +0.129 C 
BRANCH  22  23
ATOM     23  C   UNL     1      34.711 -16.160 -22.273  0.00  0.00    -0.002 C 
ATOM     24  C   UNL     1      34.390 -15.844 -20.958  0.00  0.00    -0.003 C 
ATOM     25  C   UNL     1      34.399 -15.288 -23.309  0.00  0.00    -0.003 C 
ATOM     26  C   UNL     1      33.746 -14.638 -20.674  0.00  0.00    -0.000 C 
ATOM     27  C   UNL     1      33.756 -14.082 -23.026  0.00  0.00    -0.000 C 
ATOM     28  C   UNL     1      33.430 -13.758 -21.709  0.00  0.00    -0.000 C 
ENDBRANCH  22  23
ENDBRANCH   4  22
TORSDOF 6
ENDMDL
MODEL 8
REMARK VINA RESULT:     -11.3      3.129      5.508
REMARK  Name = 9896504
REMARK  6 active torsions:
REMARK  status: ('A' for Active; 'I' for Inactive)
REMARK    1  A    between atoms: N_4  and  C_22
REMARK    2  A    between atoms: C_11  and  C_13
REMARK    3  A    between atoms: C_13  and  O_14
REMARK    4  A    between atoms: O_14  and  C_15
REMARK    5  A    between atoms: C_15  and  C_16
REMARK    6  A    between atoms: C_22  and  C_23
REMARK                            x       y       z     vdW  Elec       q    Type
REMARK                         _______ _______ _______ _____ _____    ______ ____
ROOT
ATOM      1  S   UNL     1      35.985 -18.754 -20.420  0.00  0.00    -0.064 S 
ATOM      2  O   UNL     1      32.123 -21.745 -19.887  0.00  0.00    -0.251 OA
ATOM      3  O   UNL     1      35.766 -22.526 -17.048  0.00  0.00    -0.269 OA
ATOM      4  N   UNL     1      33.906 -22.182 -18.432  0.00  0.00    -0.206 N 
ATOM      5  N   UNL     1      34.019 -20.432 -20.003  0.00  0.00    -0.214 N 
ATOM      6  C   UNL     1      35.284 -20.105 -19.570  0.00  0.00    +0.094 C 
ATOM      7  C   UNL     1      33.254 -21.472 -19.478  0.00  0.00    +0.321 C 
ATOM      8  C   UNL     1      35.198 -21.906 -17.946  0.00  0.00    +0.258 C 
ATOM      9  C   UNL     1      35.900 -20.770 -18.593  0.00  0.00    +0.080 C 
ATOM     10  C   UNL     1      33.632 -19.587 -21.017  0.00  0.00    +0.087 C 
ATOM     11  C   UNL     1      34.538 -18.667 -21.347  0.00  0.00    +0.122 C 
ENDROOT
BRANCH  11  13
ATOM     12  O   UNL     1      33.919 -17.902 -23.503  0.00  0.00    -0.244 OA
ATOM     13  C   UNL     1      34.366 -17.664 -22.385  0.00  0.00    +0.349 C 
BRANCH  13  14
ATOM     14  O   UNL     1      34.773 -16.455 -21.910  0.00  0.00    -0.440 OA
BRANCH  14  15
ATOM     15  C   UNL     1      34.596 -15.346 -22.796  0.00  0.00    +0.235 C 
BRANCH  15  16
ATOM     16  C   UNL     1      33.633 -14.375 -22.177  0.00  0.00    +0.021 C 
ATOM     17  C   UNL     1      33.014 -13.417 -22.971  0.00  0.00    -0.001 C 
ATOM     18  C   UNL     1      33.369 -14.442 -20.813  0.00  0.00    -0.001 C 
ATOM     19  C   UNL     1      32.118 -12.515 -22.396  0.00  0.00    -0.000 C 
ATOM     20  C   UNL     1      32.473 -13.540 -20.238  0.00  0.00    -0.000 C 
ATOM     21  C   UNL     1      31.849 -12.577 -21.030  0.00  0.00    -0.000 C 
ENDBRANCH  15  16
ENDBRANCH  14  15
ENDBRANCH  13  14
ENDBRANCH  11  13
BRANCH   4  22
ATOM     22  C   UNL     1      33.200 -23.293 -17.803  0.00  0.00    +0.129 C 
BRANCH  22  23
ATOM     23  C   UNL     1      32.470 -22.865 -16.564  0.00  0.00    -0.002 C 
ATOM     24  C   UNL     1      31.141 -22.466 -16.652  0.00  0.00    -0.003 C 
ATOM     25  C   UNL     1      33.128 -22.873 -15.340  0.00  0.00    -0.003 C 
ATOM     26  C   UNL     1      30.461 -22.068 -15.501  0.00  0.00    -0.000 C 
ATOM     27  C   UNL     1      32.448 -22.477 -14.188  0.00  0.00    -0.000 C 
ATOM     28  C   UNL     1      31.115 -22.074 -14.269  0.00  0.00    -0.000 C 
ENDBRANCH  22  23
ENDBRANCH   4  22
TORSDOF 6
ENDMDL
MODEL 9
REMARK VINA RESULT:     -10.8      3.514     10.767
REMARK  Name = 9896504
REMARK  6 active torsions:
REMARK  status: ('A' for Active; 'I' for Inactive)
REMARK    1  A    between atoms: N_4  and  C_22
REMARK    2  A    between atoms: C_11  and  C_13
REMARK    3  A    between atoms: C_13  and  O_14
REMARK    4  A    between atoms: O_14  and  C_15
REMARK    5  A    between atoms: C_15  and  C_16
REMARK    6  A    between atoms: C_22  and  C_23
REMARK                            x       y       z     vdW  Elec       q    Type
REMARK                         _______ _______ _______ _____ _____    ______ ____
ROOT
ATOM      1  S   UNL     1      31.367 -11.886 -22.177  0.00  0.00    -0.064 S 
ATOM      2  O   UNL     1      34.349  -8.317 -23.767  0.00  0.00    -0.251 OA
ATOM      3  O   UNL     1      31.218  -7.110 -20.499  0.00  0.00    -0.269 OA
ATOM      4  N   UNL     1      32.814  -7.651 -22.127  0.00  0.00    -0.206 N 
ATOM      5  N   UNL     1      32.872  -9.871 -22.909  0.00  0.00    -0.214 N 
ATOM      6  C   UNL     1      31.837 -10.211 -22.066  0.00  0.00    +0.094 C 
ATOM      7  C   UNL     1      33.424  -8.595 -23.000  0.00  0.00    +0.321 C 
ATOM      8  C   UNL     1      31.752  -7.928 -21.247  0.00  0.00    +0.258 C 
ATOM      9  C   UNL     1      31.262  -9.328 -21.249  0.00  0.00    +0.080 C 
ATOM     10  C   UNL     1      33.270 -10.969 -23.635  0.00  0.00    +0.087 C 
ATOM     11  C   UNL     1      32.590 -12.085 -23.371  0.00  0.00    +0.122 C 
ENDROOT
BRANCH  11  13
ATOM     12  O   UNL     1      32.761 -13.560 -25.218  0.00  0.00    -0.244 OA
ATOM     13  C   UNL     1      32.822 -13.370 -24.007  0.00  0.00    +0.349 C 
BRANCH  13  14
ATOM     14  O   UNL     1      33.110 -14.295 -23.051  0.00  0.00    -0.440 OA
BRANCH  14  15
ATOM     15  C   UNL     1      34.444 -14.813 -23.067  0.00  0.00    +0.235 C 
BRANCH  15  16
ATOM     16  C   UNL     1      34.399 -16.290 -22.800  0.00  0.00    +0.021 C 
ATOM     17  C   UNL     1      33.955 -17.156 -23.793  0.00  0.00    -0.001 C 
ATOM     18  C   UNL     1      34.801 -16.779 -21.562  0.00  0.00    -0.001 C 
ATOM     19  C   UNL     1      33.914 -18.528 -23.545  0.00  0.00    -0.000 C 
ATOM     20  C   UNL     1      34.760 -18.151 -21.315  0.00  0.00    -0.000 C 
ATOM     21  C   UNL     1      34.316 -19.025 -22.307  0.00  0.00    -0.000 C 
ENDBRANCH  15  16
ENDBRANCH  14  15
ENDBRANCH  13  14
ENDBRANCH  11  13
BRANCH   4  22
ATOM     22  C   UNL     1      33.311  -6.279 -22.134  0.00  0.00    +0.129 C 
BRANCH  22  23
ATOM     23  C   UNL     1      32.823  -5.511 -23.327  0.00  0.00    -0.002 C 
ATOM     24  C   UNL     1      33.741  -4.952 -24.208  0.00  0.00    -0.003 C 
ATOM     25  C   UNL     1      31.457  -5.367 -23.541  0.00  0.00    -0.003 C 
ATOM     26  C   UNL     1      33.288  -4.238 -25.318  0.00  0.00    -0.000 C 
ATOM     27  C   UNL     1      31.003  -4.654 -24.651  0.00  0.00    -0.000 C 
ATOM     28  C   UNL     1      31.919  -4.089 -25.538  0.00  0.00    -0.000 C 
ENDBRANCH  22  23
ENDBRANCH   4  22
TORSDOF 6
ENDMDL
