MODEL 1
REMARK VINA RESULT:     -11.5      0.000      0.000
REMARK  Name = 16662431
REMARK  6 active torsions:
REMARK  status: ('A' for Active; 'I' for Inactive)
REMARK    1  A    between atoms: N_2  and  C_26
REMARK    2  A    between atoms: C_10  and  C_16
REMARK    3  A    between atoms: C_26  and  C_27
REMARK    4  A    between atoms: C_27  and  N_28
REMARK    5  A    between atoms: N_28  and  C_30
REMARK    6  A    between atoms: N_28  and  C_32
REMARK                            x       y       z     vdW  Elec       q    Type
REMARK                         _______ _______ _______ _____ _____    ______ ____
ROOT
ATOM      1  O   UNL     1      34.547 -16.083 -20.271  0.00  0.00    -0.270 OA
ATOM      2  N   UNL     1      34.496 -17.336 -22.246  0.00  0.00    -0.278 N 
ATOM      3  N   UNL     1      33.385 -13.808 -24.047  0.00  0.00    -0.357 N 
ATOM      4  C   UNL     1      34.542 -17.326 -23.724  0.00  0.00    +0.100 C 
ATOM      5  C   UNL     1      33.580 -16.317 -24.360  0.00  0.00    +0.065 C 
ATOM      6  C   UNL     1      33.668 -15.061 -23.585  0.00  0.00    +0.039 A 
ATOM      7  C   UNL     1      34.035 -14.974 -22.261  0.00  0.00    +0.062 A 
ATOM      8  C   UNL     1      34.385 -16.152 -21.486  0.00  0.00    +0.250 C 
ATOM      9  C   UNL     1      33.959 -13.605 -21.902  0.00  0.00    -0.001 A 
ATOM     10  C   UNL     1      33.561 -12.908 -23.025  0.00  0.00    +0.053 A 
ATOM     11  C   UNL     1      34.247 -13.023 -20.574  0.00  0.00    +0.033 C 
ATOM     12  H   UNL     1      33.100 -13.586 -24.963  0.00  0.00    +0.166 HD
ENDROOT
BRANCH  10  16
ATOM     13  F   UNL     1      32.550  -6.164 -24.513  0.00  0.00    -0.204 F 
ATOM     14  O   UNL     1      31.199 -12.513 -21.446  0.00  0.00    -0.270 OA
ATOM     15  N   UNL     1      30.417 -10.289 -21.611  0.00  0.00    -0.280 N 
ATOM     16  C   UNL     1      33.323 -11.551 -23.299  0.00  0.00    +0.021 C 
ATOM     17  C   UNL     1      32.300 -10.816 -22.801  0.00  0.00    +0.056 C 
ATOM     18  C   UNL     1      31.991  -9.410 -23.040  0.00  0.00    +0.020 C 
ATOM     19  C   UNL     1      30.839  -9.143 -22.294  0.00  0.00    +0.051 C 
ATOM     20  C   UNL     1      31.263 -11.373 -21.868  0.00  0.00    +0.250 C 
ATOM     21  C   UNL     1      32.587  -8.420 -23.797  0.00  0.00    +0.031 C 
ATOM     22  C   UNL     1      30.244  -7.897 -22.273  0.00  0.00    +0.017 C 
ATOM     23  C   UNL     1      32.000  -7.150 -23.791  0.00  0.00    +0.140 C 
ATOM     24  C   UNL     1      30.841  -6.891 -23.037  0.00  0.00    +0.031 C 
ATOM     25  H   UNL     1      29.626 -10.329 -21.027  0.00  0.00    +0.155 HD
ENDBRANCH  10  16
BRANCH   2  26
ATOM     26  C   UNL     1      34.845 -18.587 -21.591  0.00  0.00    +0.071 C 
BRANCH  26  27
ATOM     27  C   UNL     1      33.605 -19.415 -21.290  0.00  0.00    -0.055 C 
BRANCH  27  28
ATOM     28  N   UNL     1      33.716 -20.032 -19.974  0.00  0.00    +0.388 N 
ATOM     29  H   UNL     1      34.036 -19.322 -19.317  0.00  0.00    -0.080 HD
BRANCH  28  30
ATOM     30  C   UNL     1      34.695 -21.122 -19.996  0.00  0.00    -0.077 C 
ATOM     31  C   UNL     1      35.789 -20.897 -18.967  0.00  0.00    -0.025 C 
ENDBRANCH  28  30
BRANCH  28  32
ATOM     32  C   UNL     1      32.414 -20.529 -19.526  0.00  0.00    -0.077 C 
ATOM     33  C   UNL     1      32.573 -21.656 -18.519  0.00  0.00    -0.025 C 
ENDBRANCH  28  32
ENDBRANCH  27  28
ENDBRANCH  26  27
ENDBRANCH   2  26
TORSDOF 6
ENDMDL
MODEL 2
REMARK VINA RESULT:     -10.9      3.479      9.816
REMARK  Name = 16662431
REMARK  6 active torsions:
REMARK  status: ('A' for Active; 'I' for Inactive)
REMARK    1  A    between atoms: N_2  and  C_26
REMARK    2  A    between atoms: C_10  and  C_16
REMARK    3  A    between atoms: C_26  and  C_27
REMARK    4  A    between atoms: C_27  and  N_28
REMARK    5  A    between atoms: N_28  and  C_30
REMARK    6  A    between atoms: N_28  and  C_32
REMARK                            x       y       z     vdW  Elec       q    Type
REMARK                         _______ _______ _______ _____ _____    ______ ____
ROOT
ATOM      1  O   UNL     1      30.325 -10.054 -20.939  0.00  0.00    -0.270 OA
ATOM      2  N   UNL     1      31.298  -9.031 -22.805  0.00  0.00    -0.278 N 
ATOM      3  N   UNL     1      33.913 -12.207 -22.750  0.00  0.00    -0.357 N 
ATOM      4  C   UNL     1      32.141  -9.190 -24.009  0.00  0.00    +0.100 C 
ATOM      5  C   UNL     1      33.465  -9.914 -23.738  0.00  0.00    +0.065 C 
ATOM      6  C   UNL     1      33.177 -11.061 -22.851  0.00  0.00    +0.039 A 
ATOM      7  C   UNL     1      32.120 -11.133 -21.970  0.00  0.00    +0.062 A 
ATOM      8  C   UNL     1      31.160 -10.051 -21.839  0.00  0.00    +0.250 C 
ATOM      9  C   UNL     1      32.229 -12.376 -21.298  0.00  0.00    -0.001 A 
ATOM     10  C   UNL     1      33.341 -13.020 -21.803  0.00  0.00    +0.053 A 
ATOM     11  C   UNL     1      31.327 -12.893 -20.248  0.00  0.00    +0.033 C 
ATOM     12  H   UNL     1      34.722 -12.415 -23.271  0.00  0.00    +0.166 HD
ENDROOT
BRANCH  10  16
ATOM     13  F   UNL     1      36.423 -19.113 -20.357  0.00  0.00    -0.204 F 
ATOM     14  O   UNL     1      32.770 -14.341 -24.284  0.00  0.00    -0.270 OA
ATOM     15  N   UNL     1      33.640 -16.537 -24.308  0.00  0.00    -0.280 N 
ATOM     16  C   UNL     1      33.950 -14.260 -21.551  0.00  0.00    +0.021 C 
ATOM     17  C   UNL     1      33.988 -15.306 -22.411  0.00  0.00    +0.056 C 
ATOM     18  C   UNL     1      34.598 -16.617 -22.219  0.00  0.00    +0.020 C 
ATOM     19  C   UNL     1      34.357 -17.325 -23.401  0.00  0.00    +0.051 C 
ATOM     20  C   UNL     1      33.368 -15.273 -23.777  0.00  0.00    +0.250 C 
ATOM     21  C   UNL     1      35.294 -17.201 -21.177  0.00  0.00    +0.031 C 
ATOM     22  C   UNL     1      34.793 -18.622 -23.588  0.00  0.00    +0.017 C 
ATOM     23  C   UNL     1      35.745 -18.514 -21.346  0.00  0.00    +0.140 C 
ATOM     24  C   UNL     1      35.497 -19.217 -22.539  0.00  0.00    +0.031 C 
ATOM     25  H   UNL     1      33.361 -16.836 -25.204  0.00  0.00    +0.155 HD
ENDBRANCH  10  16
BRANCH   2  26
ATOM     26  C   UNL     1      30.396  -7.890 -22.787  0.00  0.00    +0.071 C 
BRANCH  26  27
ATOM     27  C   UNL     1      31.159  -6.588 -22.592  0.00  0.00    -0.055 C 
BRANCH  27  28
ATOM     28  N   UNL     1      31.628  -6.477 -21.217  0.00  0.00    +0.388 N 
ATOM     29  H   UNL     1      31.183  -7.213 -20.669  0.00  0.00    -0.080 HD
BRANCH  28  30
ATOM     30  C   UNL     1      31.253  -5.181 -20.646  0.00  0.00    -0.077 C 
ATOM     31  C   UNL     1      30.227  -4.475 -21.516  0.00  0.00    -0.025 C 
ENDBRANCH  28  30
BRANCH  28  32
ATOM     32  C   UNL     1      33.079  -6.658 -21.150  0.00  0.00    -0.077 C 
ATOM     33  C   UNL     1      33.745  -6.241 -22.450  0.00  0.00    -0.025 C 
ENDBRANCH  28  32
ENDBRANCH  27  28
ENDBRANCH  26  27
ENDBRANCH   2  26
TORSDOF 6
ENDMDL
MODEL 3
REMARK VINA RESULT:     -10.8      1.617      2.406
REMARK  Name = 16662431
REMARK  6 active torsions:
REMARK  status: ('A' for Active; 'I' for Inactive)
REMARK    1  A    between atoms: N_2  and  C_26
REMARK    2  A    between atoms: C_10  and  C_16
REMARK    3  A    between atoms: C_26  and  C_27
REMARK    4  A    between atoms: C_27  and  N_28
REMARK    5  A    between atoms: N_28  and  C_30
REMARK    6  A    between atoms: N_28  and  C_32
REMARK                            x       y       z     vdW  Elec       q    Type
REMARK                         _______ _______ _______ _____ _____    ______ ____
ROOT
ATOM      1  O   UNL     1      33.160 -15.845 -25.462  0.00  0.00    -0.270 OA
ATOM      2  N   UNL     1      33.663 -16.534 -23.283  0.00  0.00    -0.278 N 
ATOM      3  N   UNL     1      33.898 -12.515 -22.437  0.00  0.00    -0.357 N 
ATOM      4  C   UNL     1      33.705 -16.181 -21.848  0.00  0.00    +0.100 C 
ATOM      5  C   UNL     1      34.400 -14.843 -21.567  0.00  0.00    +0.065 C 
ATOM      6  C   UNL     1      33.932 -13.872 -22.579  0.00  0.00    +0.039 A 
ATOM      7  C   UNL     1      33.476 -14.199 -23.837  0.00  0.00    +0.062 A 
ATOM      8  C   UNL     1      33.408 -15.578 -24.290  0.00  0.00    +0.250 C 
ATOM      9  C   UNL     1      33.161 -12.982 -24.489  0.00  0.00    -0.001 A 
ATOM     10  C   UNL     1      33.427 -11.959 -23.600  0.00  0.00    +0.053 A 
ATOM     11  C   UNL     1      32.649 -12.826 -25.867  0.00  0.00    +0.033 C 
ATOM     12  H   UNL     1      34.167 -12.016 -21.632  0.00  0.00    +0.166 HD
ENDROOT
BRANCH  10  16
ATOM     13  F   UNL     1      33.005  -5.005 -24.022  0.00  0.00    -0.204 F 
ATOM     14  O   UNL     1      31.209 -11.597 -21.818  0.00  0.00    -0.270 OA
ATOM     15  N   UNL     1      30.643  -9.313 -21.604  0.00  0.00    -0.280 N 
ATOM     16  C   UNL     1      33.309 -10.561 -23.658  0.00  0.00    +0.021 C 
ATOM     17  C   UNL     1      32.394  -9.821 -22.987  0.00  0.00    +0.056 C 
ATOM     18  C   UNL     1      32.212  -8.373 -22.998  0.00  0.00    +0.020 C 
ATOM     19  C   UNL     1      31.136  -8.119 -22.141  0.00  0.00    +0.051 C 
ATOM     20  C   UNL     1      31.362 -10.417 -22.074  0.00  0.00    +0.250 C 
ATOM     21  C   UNL     1      32.859  -7.337 -23.643  0.00  0.00    +0.031 C 
ATOM     22  C   UNL     1      30.669  -6.842 -21.899  0.00  0.00    +0.017 C 
ATOM     23  C   UNL     1      32.403  -6.036 -23.412  0.00  0.00    +0.140 C 
ATOM     24  C   UNL     1      31.319  -5.790 -22.549  0.00  0.00    +0.031 C 
ATOM     25  H   UNL     1      29.886  -9.369 -20.977  0.00  0.00    +0.155 HD
ENDBRANCH  10  16
BRANCH   2  26
ATOM     26  C   UNL     1      33.623 -17.952 -23.605  0.00  0.00    +0.071 C 
BRANCH  26  27
ATOM     27  C   UNL     1      34.764 -18.702 -22.935  0.00  0.00    -0.055 C 
BRANCH  27  28
ATOM     28  N   UNL     1      34.613 -18.665 -21.486  0.00  0.00    +0.388 N 
ATOM     29  H   UNL     1      34.131 -17.802 -21.239  0.00  0.00    -0.080 HD
BRANCH  28  30
ATOM     30  C   UNL     1      35.923 -18.672 -20.830  0.00  0.00    -0.077 C 
ATOM     31  C   UNL     1      37.013 -18.202 -21.777  0.00  0.00    -0.025 C 
ENDBRANCH  28  30
BRANCH  28  32
ATOM     32  C   UNL     1      33.809 -19.797 -21.021  0.00  0.00    -0.077 C 
ATOM     33  C   UNL     1      34.501 -20.535 -19.888  0.00  0.00    -0.025 C 
ENDBRANCH  28  32
ENDBRANCH  27  28
ENDBRANCH  26  27
ENDBRANCH   2  26
TORSDOF 6
ENDMDL
MODEL 4
REMARK VINA RESULT:     -10.7      2.199      3.659
REMARK  Name = 16662431
REMARK  6 active torsions:
REMARK  status: ('A' for Active; 'I' for Inactive)
REMARK    1  A    between atoms: N_2  and  C_26
REMARK    2  A    between atoms: C_10  and  C_16
REMARK    3  A    between atoms: C_26  and  C_27
REMARK    4  A    between atoms: C_27  and  N_28
REMARK    5  A    between atoms: N_28  and  C_30
REMARK    6  A    between atoms: N_28  and  C_32
REMARK                            x       y       z     vdW  Elec       q    Type
REMARK                         _______ _______ _______ _____ _____    ______ ____
ROOT
ATOM      1  O   UNL     1      32.839 -14.013 -20.151  0.00  0.00    -0.270 OA
ATOM      2  N   UNL     1      33.640 -14.610 -22.267  0.00  0.00    -0.278 N 
ATOM      3  N   UNL     1      32.179 -10.957 -23.470  0.00  0.00    -0.357 N 
ATOM      4  C   UNL     1      34.074 -14.153 -23.604  0.00  0.00    +0.100 C 
ATOM      5  C   UNL     1      33.089 -13.184 -24.270  0.00  0.00    +0.065 C 
ATOM      6  C   UNL     1      32.641 -12.221 -23.242  0.00  0.00    +0.039 A 
ATOM      7  C   UNL     1      32.607 -12.469 -21.888  0.00  0.00    +0.062 A 
ATOM      8  C   UNL     1      33.029 -13.744 -21.334  0.00  0.00    +0.250 C 
ATOM      9  C   UNL     1      32.089 -11.305 -21.269  0.00  0.00    -0.001 A 
ATOM     10  C   UNL     1      31.838 -10.386 -22.269  0.00  0.00    +0.053 A 
ATOM     11  C   UNL     1      31.853 -11.104 -19.824  0.00  0.00    +0.033 C 
ATOM     12  H   UNL     1      32.101 -10.526 -24.351  0.00  0.00    +0.166 HD
ENDROOT
BRANCH  10  16
ATOM     13  F   UNL     1      29.183  -3.931 -22.276  0.00  0.00    -0.204 F 
ATOM     14  O   UNL     1      34.156  -9.015 -23.257  0.00  0.00    -0.270 OA
ATOM     15  N   UNL     1      33.762  -6.694 -23.452  0.00  0.00    -0.280 N 
ATOM     16  C   UNL     1      31.341  -9.072 -22.285  0.00  0.00    +0.021 C 
ATOM     17  C   UNL     1      32.032  -7.976 -22.678  0.00  0.00    +0.056 C 
ATOM     18  C   UNL     1      31.584  -6.588 -22.722  0.00  0.00    +0.020 C 
ATOM     19  C   UNL     1      32.674  -5.852 -23.199  0.00  0.00    +0.051 C 
ATOM     20  C   UNL     1      33.454  -8.025 -23.157  0.00  0.00    +0.250 C 
ATOM     21  C   UNL     1      30.395  -5.960 -22.404  0.00  0.00    +0.031 C 
ATOM     22  C   UNL     1      32.622  -4.483 -23.376  0.00  0.00    +0.017 C 
ATOM     23  C   UNL     1      30.320  -4.574 -22.575  0.00  0.00    +0.140 C 
ATOM     24  C   UNL     1      31.422  -3.843 -23.056  0.00  0.00    +0.031 C 
ATOM     25  H   UNL     1      34.634  -6.387 -23.794  0.00  0.00    +0.155 HD
ENDBRANCH  10  16
BRANCH   2  26
ATOM     26  C   UNL     1      34.111 -15.918 -21.840  0.00  0.00    +0.071 C 
BRANCH  26  27
ATOM     27  C   UNL     1      34.705 -16.697 -23.005  0.00  0.00    -0.055 C 
BRANCH  27  28
ATOM     28  N   UNL     1      34.964 -18.076 -22.612  0.00  0.00    +0.388 N 
ATOM     29  H   UNL     1      35.893 -18.331 -22.946  0.00  0.00    -0.080 HD
BRANCH  28  30
ATOM     30  C   UNL     1      33.984 -18.979 -23.222  0.00  0.00    -0.077 C 
ATOM     31  C   UNL     1      33.302 -18.324 -24.411  0.00  0.00    -0.025 C 
ENDBRANCH  28  30
BRANCH  28  32
ATOM     32  C   UNL     1      34.938 -18.212 -21.155  0.00  0.00    -0.077 C 
ATOM     33  C   UNL     1      34.348 -19.548 -20.737  0.00  0.00    -0.025 C 
ENDBRANCH  28  32
ENDBRANCH  27  28
ENDBRANCH  26  27
ENDBRANCH   2  26
TORSDOF 6
ENDMDL
MODEL 5
REMARK VINA RESULT:     -10.7      3.867     10.529
REMARK  Name = 16662431
REMARK  6 active torsions:
REMARK  status: ('A' for Active; 'I' for Inactive)
REMARK    1  A    between atoms: N_2  and  C_26
REMARK    2  A    between atoms: C_10  and  C_16
REMARK    3  A    between atoms: C_26  and  C_27
REMARK    4  A    between atoms: C_27  and  N_28
REMARK    5  A    between atoms: N_28  and  C_30
REMARK    6  A    between atoms: N_28  and  C_32
REMARK                            x       y       z     vdW  Elec       q    Type
REMARK                         _______ _______ _______ _____ _____    ______ ____
ROOT
ATOM      1  O   UNL     1      30.187  -7.878 -22.358  0.00  0.00    -0.270 OA
ATOM      2  N   UNL     1      31.790  -6.769 -23.652  0.00  0.00    -0.278 N 
ATOM      3  N   UNL     1      34.010 -10.206 -23.223  0.00  0.00    -0.357 N 
ATOM      4  C   UNL     1      32.970  -6.887 -24.536  0.00  0.00    +0.100 C 
ATOM      5  C   UNL     1      34.076  -7.782 -23.964  0.00  0.00    +0.065 C 
ATOM      6  C   UNL     1      33.431  -8.981 -23.388  0.00  0.00    +0.039 A 
ATOM      7  C   UNL     1      32.141  -9.031 -22.909  0.00  0.00    +0.062 A 
ATOM      8  C   UNL     1      31.270  -7.869 -22.936  0.00  0.00    +0.250 C 
ATOM      9  C   UNL     1      31.934 -10.345 -22.421  0.00  0.00    -0.001 A 
ATOM     10  C   UNL     1      33.103 -11.050 -22.633  0.00  0.00    +0.053 A 
ATOM     11  C   UNL     1      30.702 -10.872 -21.797  0.00  0.00    +0.033 C 
ATOM     12  H   UNL     1      34.929 -10.445 -23.484  0.00  0.00    +0.166 HD
ENDROOT
BRANCH  10  16
ATOM     13  F   UNL     1      35.157 -17.560 -21.178  0.00  0.00    -0.204 F 
ATOM     14  O   UNL     1      32.495 -12.226 -25.178  0.00  0.00    -0.270 OA
ATOM     15  N   UNL     1      33.031 -14.526 -25.211  0.00  0.00    -0.280 N 
ATOM     16  C   UNL     1      33.505 -12.372 -22.380  0.00  0.00    +0.021 C 
ATOM     17  C   UNL     1      33.441 -13.395 -23.264  0.00  0.00    +0.056 C 
ATOM     18  C   UNL     1      33.838 -14.787 -23.073  0.00  0.00    +0.020 C 
ATOM     19  C   UNL     1      33.568 -15.428 -24.286  0.00  0.00    +0.051 C 
ATOM     20  C   UNL     1      32.917 -13.245 -24.663  0.00  0.00    +0.250 C 
ATOM     21  C   UNL     1      34.375 -15.486 -22.009  0.00  0.00    +0.031 C 
ATOM     22  C   UNL     1      33.819 -16.772 -24.483  0.00  0.00    +0.017 C 
ATOM     23  C   UNL     1      34.636 -16.848 -22.187  0.00  0.00    +0.140 C 
ATOM     24  C   UNL     1      34.361 -17.485 -23.412  0.00  0.00    +0.031 C 
ATOM     25  H   UNL     1      32.767 -14.764 -26.129  0.00  0.00    +0.155 HD
ENDBRANCH  10  16
BRANCH   2  26
ATOM     26  C   UNL     1      31.015  -5.543 -23.759  0.00  0.00    +0.071 C 
BRANCH  26  27
ATOM     27  C   UNL     1      31.859  -4.326 -23.408  0.00  0.00    -0.055 C 
BRANCH  27  28
ATOM     28  N   UNL     1      31.323  -3.661 -22.227  0.00  0.00    +0.388 N 
ATOM     29  H   UNL     1      32.106  -3.372 -21.643  0.00  0.00    -0.080 HD
BRANCH  28  30
ATOM     30  C   UNL     1      30.479  -4.579 -21.457  0.00  0.00    -0.077 C 
ATOM     31  C   UNL     1      31.238  -5.161 -20.277  0.00  0.00    -0.025 C 
ENDBRANCH  28  30
BRANCH  28  32
ATOM     32  C   UNL     1      30.560  -2.471 -22.607  0.00  0.00    -0.077 C 
ATOM     33  C   UNL     1      31.171  -1.790 -23.820  0.00  0.00    -0.025 C 
ENDBRANCH  28  32
ENDBRANCH  27  28
ENDBRANCH  26  27
ENDBRANCH   2  26
TORSDOF 6
ENDMDL
MODEL 6
REMARK VINA RESULT:     -10.6      3.317     10.027
REMARK  Name = 16662431
REMARK  6 active torsions:
REMARK  status: ('A' for Active; 'I' for Inactive)
REMARK    1  A    between atoms: N_2  and  C_26
REMARK    2  A    between atoms: C_10  and  C_16
REMARK    3  A    between atoms: C_26  and  C_27
REMARK    4  A    between atoms: C_27  and  N_28
REMARK    5  A    between atoms: N_28  and  C_30
REMARK    6  A    between atoms: N_28  and  C_32
REMARK                            x       y       z     vdW  Elec       q    Type
REMARK                         _______ _______ _______ _____ _____    ______ ____
ROOT
ATOM      1  O   UNL     1      33.045  -8.258 -23.464  0.00  0.00    -0.270 OA
ATOM      2  N   UNL     1      31.601  -8.228 -21.623  0.00  0.00    -0.278 N 
ATOM      3  N   UNL     1      31.515 -12.318 -22.063  0.00  0.00    -0.357 N 
ATOM      4  C   UNL     1      31.007  -8.983 -20.499  0.00  0.00    +0.100 C 
ATOM      5  C   UNL     1      30.423 -10.339 -20.913  0.00  0.00    +0.065 C 
ATOM      6  C   UNL     1      31.381 -10.978 -21.840  0.00  0.00    +0.039 A 
ATOM      7  C   UNL     1      32.278 -10.303 -22.638  0.00  0.00    +0.062 A 
ATOM      8  C   UNL     1      32.364  -8.853 -22.633  0.00  0.00    +0.250 C 
ATOM      9  C   UNL     1      32.978 -11.280 -23.387  0.00  0.00    -0.001 A 
ATOM     10  C   UNL     1      32.491 -12.515 -23.008  0.00  0.00    +0.053 A 
ATOM     11  C   UNL     1      34.033 -11.033 -24.393  0.00  0.00    +0.033 C 
ATOM     12  H   UNL     1      30.996 -13.027 -21.619  0.00  0.00    +0.166 HD
ENDROOT
BRANCH  10  16
ATOM     13  F   UNL     1      33.871 -19.050 -25.033  0.00  0.00    -0.204 F 
ATOM     14  O   UNL     1      33.828 -13.385 -20.624  0.00  0.00    -0.270 OA
ATOM     15  N   UNL     1      34.526 -15.635 -20.803  0.00  0.00    -0.280 N 
ATOM     16  C   UNL     1      32.787 -13.837 -23.377  0.00  0.00    +0.021 C 
ATOM     17  C   UNL     1      33.435 -14.742 -22.606  0.00  0.00    +0.056 C 
ATOM     18  C   UNL     1      33.776 -16.126 -22.921  0.00  0.00    +0.020 C 
ATOM     19  C   UNL     1      34.438 -16.620 -21.792  0.00  0.00    +0.051 C 
ATOM     20  C   UNL     1      33.932 -14.440 -21.222  0.00  0.00    +0.250 C 
ATOM     21  C   UNL     1      33.573 -16.928 -24.027  0.00  0.00    +0.031 C 
ATOM     22  C   UNL     1      34.915 -17.914 -21.722  0.00  0.00    +0.017 C 
ATOM     23  C   UNL     1      34.049 -18.242 -23.978  0.00  0.00    +0.140 C 
ATOM     24  C   UNL     1      34.713 -18.731 -22.837  0.00  0.00    +0.031 C 
ATOM     25  H   UNL     1      34.953 -15.765 -19.925  0.00  0.00    +0.155 HD
ENDBRANCH  10  16
BRANCH   2  26
ATOM     26  C   UNL     1      31.603  -6.778 -21.506  0.00  0.00    +0.071 C 
BRANCH  26  27
ATOM     27  C   UNL     1      30.589  -6.148 -22.449  0.00  0.00    -0.055 C 
BRANCH  27  28
ATOM     28  N   UNL     1      31.211  -5.080 -23.221  0.00  0.00    +0.388 N 
ATOM     29  H   UNL     1      30.709  -4.214 -23.026  0.00  0.00    -0.080 HD
BRANCH  28  30
ATOM     30  C   UNL     1      31.119  -5.359 -24.656  0.00  0.00    -0.077 C 
ATOM     31  C   UNL     1      30.408  -6.677 -24.914  0.00  0.00    -0.025 C 
ENDBRANCH  28  30
BRANCH  28  32
ATOM     32  C   UNL     1      32.610  -4.906 -22.827  0.00  0.00    -0.077 C 
ATOM     33  C   UNL     1      33.516  -4.815 -24.044  0.00  0.00    -0.025 C 
ENDBRANCH  28  32
ENDBRANCH  27  28
ENDBRANCH  26  27
ENDBRANCH   2  26
TORSDOF 6
ENDMDL
MODEL 7
REMARK VINA RESULT:     -10.2      6.074      9.445
REMARK  Name = 16662431
REMARK  6 active torsions:
REMARK  status: ('A' for Active; 'I' for Inactive)
REMARK    1  A    between atoms: N_2  and  C_26
REMARK    2  A    between atoms: C_10  and  C_16
REMARK    3  A    between atoms: C_26  and  C_27
REMARK    4  A    between atoms: C_27  and  N_28
REMARK    5  A    between atoms: N_28  and  C_30
REMARK    6  A    between atoms: N_28  and  C_32
REMARK                            x       y       z     vdW  Elec       q    Type
REMARK                         _______ _______ _______ _____ _____    ______ ____
ROOT
ATOM      1  O   UNL     1      33.554 -23.281 -15.523  0.00  0.00    -0.270 OA
ATOM      2  N   UNL     1      35.776 -22.700 -15.075  0.00  0.00    -0.278 N 
ATOM      3  N   UNL     1      35.712 -20.969 -18.806  0.00  0.00    -0.357 N 
ATOM      4  C   UNL     1      36.914 -21.811 -15.390  0.00  0.00    +0.100 C 
ATOM      5  C   UNL     1      37.205 -21.698 -16.891  0.00  0.00    +0.065 C 
ATOM      6  C   UNL     1      35.911 -21.559 -17.592  0.00  0.00    +0.039 A 
ATOM      7  C   UNL     1      34.705 -22.030 -17.123  0.00  0.00    +0.062 A 
ATOM      8  C   UNL     1      34.597 -22.723 -15.851  0.00  0.00    +0.250 C 
ATOM      9  C   UNL     1      33.732 -21.719 -18.106  0.00  0.00    -0.001 A 
ATOM     10  C   UNL     1      34.381 -21.059 -19.131  0.00  0.00    +0.053 A 
ATOM     11  C   UNL     1      32.291 -22.040 -18.054  0.00  0.00    +0.033 C 
ATOM     12  H   UNL     1      36.409 -20.547 -19.359  0.00  0.00    +0.166 HD
ENDROOT
BRANCH  10  16
ATOM     13  F   UNL     1      32.161 -18.436 -25.206  0.00  0.00    -0.204 F 
ATOM     14  O   UNL     1      36.271 -18.912 -19.339  0.00  0.00    -0.270 OA
ATOM     15  N   UNL     1      35.934 -17.659 -21.313  0.00  0.00    -0.280 N 
ATOM     16  C   UNL     1      33.965 -20.502 -20.351  0.00  0.00    +0.021 C 
ATOM     17  C   UNL     1      34.524 -19.426 -20.954  0.00  0.00    +0.056 C 
ATOM     18  C   UNL     1      34.148 -18.794 -22.215  0.00  0.00    +0.020 C 
ATOM     19  C   UNL     1      35.036 -17.727 -22.384  0.00  0.00    +0.051 C 
ATOM     20  C   UNL     1      35.690 -18.672 -20.381  0.00  0.00    +0.250 C 
ATOM     21  C   UNL     1      33.169 -19.053 -23.155  0.00  0.00    +0.031 C 
ATOM     22  C   UNL     1      34.984 -16.888 -23.481  0.00  0.00    +0.017 C 
ATOM     23  C   UNL     1      33.098 -18.216 -24.273  0.00  0.00    +0.140 C 
ATOM     24  C   UNL     1      33.996 -17.144 -24.434  0.00  0.00    +0.031 C 
ATOM     25  H   UNL     1      36.645 -16.984 -21.227  0.00  0.00    +0.155 HD
ENDBRANCH  10  16
BRANCH   2  26
ATOM     26  C   UNL     1      35.800 -23.356 -13.777  0.00  0.00    +0.071 C 
BRANCH  26  27
ATOM     27  C   UNL     1      37.227 -23.627 -13.323  0.00  0.00    -0.055 C 
BRANCH  27  28
ATOM     28  N   UNL     1      37.749 -24.819 -13.978  0.00  0.00    +0.388 N 
ATOM     29  H   UNL     1      37.766 -24.647 -14.983  0.00  0.00    -0.080 HD
BRANCH  28  30
ATOM     30  C   UNL     1      36.884 -25.972 -13.717  0.00  0.00    -0.077 C 
ATOM     31  C   UNL     1      36.357 -26.567 -15.011  0.00  0.00    -0.025 C 
ENDBRANCH  28  30
BRANCH  28  32
ATOM     32  C   UNL     1      39.115 -25.098 -13.531  0.00  0.00    -0.077 C 
ATOM     33  C   UNL     1      40.068 -25.209 -14.709  0.00  0.00    -0.025 C 
ENDBRANCH  28  32
ENDBRANCH  27  28
ENDBRANCH  26  27
ENDBRANCH   2  26
TORSDOF 6
ENDMDL
MODEL 8
REMARK VINA RESULT:     -10.0      2.162      3.330
REMARK  Name = 16662431
REMARK  6 active torsions:
REMARK  status: ('A' for Active; 'I' for Inactive)
REMARK    1  A    between atoms: N_2  and  C_26
REMARK    2  A    between atoms: C_10  and  C_16
REMARK    3  A    between atoms: C_26  and  C_27
REMARK    4  A    between atoms: C_27  and  N_28
REMARK    5  A    between atoms: N_28  and  C_30
REMARK    6  A    between atoms: N_28  and  C_32
REMARK                            x       y       z     vdW  Elec       q    Type
REMARK                         _______ _______ _______ _____ _____    ______ ____
ROOT
ATOM      1  O   UNL     1      33.605 -14.964 -25.250  0.00  0.00    -0.270 OA
ATOM      2  N   UNL     1      34.127 -15.793 -23.125  0.00  0.00    -0.278 N 
ATOM      3  N   UNL     1      32.959 -12.088 -21.772  0.00  0.00    -0.357 N 
ATOM      4  C   UNL     1      33.934 -15.674 -21.665  0.00  0.00    +0.100 C 
ATOM      5  C   UNL     1      34.125 -14.248 -21.136  0.00  0.00    +0.065 C 
ATOM      6  C   UNL     1      33.449 -13.326 -22.073  0.00  0.00    +0.039 A 
ATOM      7  C   UNL     1      33.230 -13.578 -23.409  0.00  0.00    +0.062 A 
ATOM      8  C   UNL     1      33.655 -14.819 -24.032  0.00  0.00    +0.250 C 
ATOM      9  C   UNL     1      32.587 -12.434 -23.943  0.00  0.00    -0.001 A 
ATOM     10  C   UNL     1      32.428 -11.532 -22.910  0.00  0.00    +0.053 A 
ATOM     11  C   UNL     1      32.166 -12.232 -25.346  0.00  0.00    +0.033 C 
ATOM     12  H   UNL     1      32.983 -11.662 -20.885  0.00  0.00    +0.166 HD
ENDROOT
BRANCH  10  16
ATOM     13  F   UNL     1      29.436  -5.251 -22.352  0.00  0.00    -0.204 F 
ATOM     14  O   UNL     1      34.687  -9.955 -23.707  0.00  0.00    -0.270 OA
ATOM     15  N   UNL     1      34.175  -7.649 -23.685  0.00  0.00    -0.280 N 
ATOM     16  C   UNL     1      31.862 -10.251 -22.810  0.00  0.00    +0.021 C 
ATOM     17  C   UNL     1      32.501  -9.087 -23.079  0.00  0.00    +0.056 C 
ATOM     18  C   UNL     1      31.982  -7.726 -22.998  0.00  0.00    +0.020 C 
ATOM     19  C   UNL     1      33.039  -6.893 -23.377  0.00  0.00    +0.051 C 
ATOM     20  C   UNL     1      33.932  -9.017 -23.528  0.00  0.00    +0.250 C 
ATOM     21  C   UNL     1      30.756  -7.194 -22.648  0.00  0.00    +0.031 C 
ATOM     22  C   UNL     1      32.918  -5.518 -23.421  0.00  0.00    +0.017 C 
ATOM     23  C   UNL     1      30.611  -5.804 -22.685  0.00  0.00    +0.140 C 
ATOM     24  C   UNL     1      31.681  -4.973 -23.068  0.00  0.00    +0.031 C 
ATOM     25  H   UNL     1      35.035  -7.267 -23.976  0.00  0.00    +0.155 HD
ENDBRANCH  10  16
BRANCH   2  26
ATOM     26  C   UNL     1      34.581 -17.083 -23.620  0.00  0.00    +0.071 C 
BRANCH  26  27
ATOM     27  C   UNL     1      33.768 -18.221 -23.020  0.00  0.00    -0.055 C 
BRANCH  27  28
ATOM     28  N   UNL     1      34.624 -19.092 -22.227  0.00  0.00    +0.388 N 
ATOM     29  H   UNL     1      34.543 -20.039 -22.597  0.00  0.00    -0.080 HD
BRANCH  28  30
ATOM     30  C   UNL     1      34.195 -19.101 -20.826  0.00  0.00    -0.077 C 
ATOM     31  C   UNL     1      34.173 -20.514 -20.268  0.00  0.00    -0.025 C 
ENDBRANCH  28  30
BRANCH  28  32
ATOM     32  C   UNL     1      36.023 -18.671 -22.326  0.00  0.00    -0.077 C 
ATOM     33  C   UNL     1      36.580 -18.291 -20.964  0.00  0.00    -0.025 C 
ENDBRANCH  28  32
ENDBRANCH  27  28
ENDBRANCH  26  27
ENDBRANCH   2  26
TORSDOF 6
ENDMDL
MODEL 9
REMARK VINA RESULT:     -10.0      3.174      5.743
REMARK  Name = 16662431
REMARK  6 active torsions:
REMARK  status: ('A' for Active; 'I' for Inactive)
REMARK    1  A    between atoms: N_2  and  C_26
REMARK    2  A    between atoms: C_10  and  C_16
REMARK    3  A    between atoms: C_26  and  C_27
REMARK    4  A    between atoms: C_27  and  N_28
REMARK    5  A    between atoms: N_28  and  C_30
REMARK    6  A    between atoms: N_28  and  C_32
REMARK                            x       y       z     vdW  Elec       q    Type
REMARK                         _______ _______ _______ _____ _____    ______ ____
ROOT
ATOM      1  O   UNL     1      36.760 -20.269 -19.040  0.00  0.00    -0.270 OA
ATOM      2  N   UNL     1      34.802 -21.489 -18.647  0.00  0.00    -0.278 N 
ATOM      3  N   UNL     1      33.056 -18.881 -21.306  0.00  0.00    -0.357 N 
ATOM      4  C   UNL     1      33.459 -21.869 -19.131  0.00  0.00    +0.100 C 
ATOM      5  C   UNL     1      32.605 -20.674 -19.571  0.00  0.00    +0.065 C 
ATOM      6  C   UNL     1      33.471 -19.767 -20.354  0.00  0.00    +0.039 A 
ATOM      7  C   UNL     1      34.838 -19.668 -20.221  0.00  0.00    +0.062 A 
ATOM      8  C   UNL     1      35.573 -20.482 -19.268  0.00  0.00    +0.250 C 
ATOM      9  C   UNL     1      35.269 -18.668 -21.127  0.00  0.00    -0.001 A 
ATOM     10  C   UNL     1      34.149 -18.203 -21.787  0.00  0.00    +0.053 A 
ATOM     11  C   UNL     1      36.656 -18.200 -21.331  0.00  0.00    +0.033 C 
ATOM     12  H   UNL     1      32.126 -18.749 -21.600  0.00  0.00    +0.166 HD
ENDROOT
BRANCH  10  16
ATOM     13  F   UNL     1      33.072 -13.578 -26.903  0.00  0.00    -0.204 F 
ATOM     14  O   UNL     1      34.204 -15.828 -20.180  0.00  0.00    -0.270 OA
ATOM     15  N   UNL     1      33.873 -13.893 -21.495  0.00  0.00    -0.280 N 
ATOM     16  C   UNL     1      33.934 -17.241 -22.788  0.00  0.00    +0.021 C 
ATOM     17  C   UNL     1      33.864 -15.903 -22.589  0.00  0.00    +0.056 C 
ATOM     18  C   UNL     1      33.644 -14.849 -23.574  0.00  0.00    +0.020 C 
ATOM     19  C   UNL     1      33.659 -13.649 -22.855  0.00  0.00    +0.051 C 
ATOM     20  C   UNL     1      34.010 -15.261 -21.240  0.00  0.00    +0.250 C 
ATOM     21  C   UNL     1      33.448 -14.849 -24.942  0.00  0.00    +0.031 C 
ATOM     22  C   UNL     1      33.481 -12.421 -23.463  0.00  0.00    +0.017 C 
ATOM     23  C   UNL     1      33.265 -13.617 -25.577  0.00  0.00    +0.140 C 
ATOM     24  C   UNL     1      33.282 -12.415 -24.845  0.00  0.00    +0.031 C 
ATOM     25  H   UNL     1      33.920 -13.192 -20.805  0.00  0.00    +0.155 HD
ENDBRANCH  10  16
BRANCH   2  26
ATOM     26  C   UNL     1      35.420 -22.376 -17.673  0.00  0.00    +0.071 C 
BRANCH  26  27
ATOM     27  C   UNL     1      34.890 -22.112 -16.272  0.00  0.00    -0.055 C 
BRANCH  27  28
ATOM     28  N   UNL     1      34.144 -23.266 -15.787  0.00  0.00    +0.388 N 
ATOM     29  H   UNL     1      33.902 -23.847 -16.589  0.00  0.00    -0.080 HD
BRANCH  28  30
ATOM     30  C   UNL     1      32.907 -22.841 -15.128  0.00  0.00    -0.077 C 
ATOM     31  C   UNL     1      31.729 -22.892 -16.087  0.00  0.00    -0.025 C 
ENDBRANCH  28  30
BRANCH  28  32
ATOM     32  C   UNL     1      34.962 -24.059 -14.866  0.00  0.00    -0.077 C 
ATOM     33  C   UNL     1      35.696 -23.169 -13.878  0.00  0.00    -0.025 C 
ENDBRANCH  28  32
ENDBRANCH  27  28
ENDBRANCH  26  27
ENDBRANCH   2  26
TORSDOF 6
ENDMDL
