MODEL 1
REMARK VINA RESULT:     -12.9      0.000      0.000
REMARK  Name = 6102777
REMARK  2 active torsions:
REMARK  status: ('A' for Active; 'I' for Inactive)
REMARK    1  A    between atoms: C_4  and  S_16
REMARK    2  A    between atoms: S_16  and  N_19
REMARK                            x       y       z     vdW  Elec       q    Type
REMARK                         _______ _______ _______ _____ _____    ______ ____
ROOT
ATOM      1  O   UNL     1      36.319 -20.304 -18.958  0.00  0.00    -0.453 OA
ATOM      2  O   UNL     1      32.434 -21.586 -18.860  0.00  0.00    -0.286 OA
ATOM      3  C   UNL     1      34.557 -21.573 -17.840  0.00  0.00    +0.075 A 
ATOM      4  C   UNL     1      35.105 -22.718 -15.788  0.00  0.00    +0.126 C 
ATOM      5  C   UNL     1      35.866 -21.101 -17.936  0.00  0.00    +0.148 A 
ATOM      6  C   UNL     1      34.171 -22.382 -16.768  0.00  0.00    +0.026 C 
ATOM      7  C   UNL     1      34.098 -20.347 -19.974  0.00  0.00    +0.074 A 
ATOM      8  C   UNL     1      33.594 -21.203 -18.888  0.00  0.00    +0.201 A 
ATOM      9  C   UNL     1      35.434 -19.947 -19.946  0.00  0.00    +0.148 A 
ATOM     10  C   UNL     1      36.415 -22.249 -15.880  0.00  0.00    +0.023 C 
ATOM     11  C   UNL     1      36.796 -21.442 -16.952  0.00  0.00    +0.039 C 
ATOM     12  C   UNL     1      33.257 -19.943 -21.014  0.00  0.00    +0.006 C 
ATOM     13  C   UNL     1      35.934 -19.135 -20.966  0.00  0.00    +0.038 C 
ATOM     14  C   UNL     1      33.763 -19.132 -22.030  0.00  0.00    +0.000 C 
ATOM     15  C   UNL     1      35.098 -18.729 -22.007  0.00  0.00    +0.003 C 
ENDROOT
BRANCH   4  16
ATOM     16  S   UNL     1      34.633 -23.728 -14.443  0.00  0.00    +0.081 S 
ATOM     17  O   UNL     1      33.202 -23.555 -14.226  0.00  0.00    -0.149 OA
ATOM     18  O   UNL     1      35.169 -25.063 -14.671  0.00  0.00    -0.149 OA
BRANCH  16  19
ATOM     19  N   UNL     1      35.485 -22.995 -13.158  0.00  0.00    -0.156 N 
ATOM     20  N   UNL     1      36.156 -22.824 -10.854  0.00  0.00    -0.094 NA
ATOM     21  N   UNL     1      34.755 -24.514 -11.411  0.00  0.00    -0.071 NA
ATOM     22  N   UNL     1      35.810 -23.609  -9.824  0.00  0.00    -0.139 N 
ATOM     23  N   UNL     1      34.980 -24.622 -10.108  0.00  0.00    -0.020 NA
ATOM     24  C   UNL     1      35.471 -23.434 -11.813  0.00  0.00    +0.145 C 
ATOM     25  H   UNL     1      36.031 -22.202 -13.371  0.00  0.00    +0.186 HD
ATOM     26  H   UNL     1      36.145 -23.450  -8.912  0.00  0.00    +0.197 HD
ENDBRANCH  16  19
ENDBRANCH   4  16
TORSDOF 2
ENDMDL
MODEL 2
REMARK VINA RESULT:     -12.8      2.915      4.203
REMARK  Name = 6102777
REMARK  2 active torsions:
REMARK  status: ('A' for Active; 'I' for Inactive)
REMARK    1  A    between atoms: C_4  and  S_16
REMARK    2  A    between atoms: S_16  and  N_19
REMARK                            x       y       z     vdW  Elec       q    Type
REMARK                         _______ _______ _______ _____ _____    ______ ____
ROOT
ATOM      1  O   UNL     1      33.352 -22.694 -16.400  0.00  0.00    -0.453 OA
ATOM      2  O   UNL     1      37.309 -21.650 -16.483  0.00  0.00    -0.286 OA
ATOM      3  C   UNL     1      35.535 -22.656 -15.304  0.00  0.00    +0.075 A 
ATOM      4  C   UNL     1      35.724 -23.640 -13.109  0.00  0.00    +0.126 C 
ATOM      5  C   UNL     1      34.179 -22.982 -15.342  0.00  0.00    +0.148 A 
ATOM      6  C   UNL     1      36.312 -22.983 -14.190  0.00  0.00    +0.026 C 
ATOM      7  C   UNL     1      35.226 -21.665 -17.582  0.00  0.00    +0.074 A 
ATOM      8  C   UNL     1      36.127 -21.963 -16.458  0.00  0.00    +0.201 A 
ATOM      9  C   UNL     1      33.888 -22.048 -17.488  0.00  0.00    +0.148 A 
ATOM     10  C   UNL     1      34.369 -23.967 -13.142  0.00  0.00    +0.023 C 
ATOM     11  C   UNL     1      33.596 -23.639 -14.257  0.00  0.00    +0.039 C 
ATOM     12  C   UNL     1      35.698 -21.010 -18.722  0.00  0.00    +0.006 C 
ATOM     13  C   UNL     1      33.015 -21.774 -18.542  0.00  0.00    +0.038 C 
ATOM     14  C   UNL     1      34.820 -20.739 -19.772  0.00  0.00    +0.000 C 
ATOM     15  C   UNL     1      33.482 -21.120 -19.683  0.00  0.00    +0.003 C 
ENDROOT
BRANCH   4  16
ATOM     16  S   UNL     1      36.687 -24.053 -11.711  0.00  0.00    +0.081 S 
ATOM     17  O   UNL     1      36.439 -23.055 -10.679  0.00  0.00    -0.149 OA
ATOM     18  O   UNL     1      36.470 -25.463 -11.414  0.00  0.00    -0.149 OA
BRANCH  16  19
ATOM     19  N   UNL     1      38.268 -23.847 -12.321  0.00  0.00    -0.156 N 
ATOM     20  N   UNL     1      40.161 -24.526 -13.643  0.00  0.00    -0.094 NA
ATOM     21  N   UNL     1      38.342 -25.877 -13.650  0.00  0.00    -0.071 NA
ATOM     22  N   UNL     1      40.296 -25.621 -14.405  0.00  0.00    -0.139 N 
ATOM     23  N   UNL     1      39.243 -26.450 -14.438  0.00  0.00    -0.020 NA
ATOM     24  C   UNL     1      38.928 -24.739 -13.199  0.00  0.00    +0.145 C 
ATOM     25  H   UNL     1      38.761 -23.041 -12.039  0.00  0.00    +0.186 HD
ATOM     26  H   UNL     1      41.120 -25.805 -14.910  0.00  0.00    +0.197 HD
ENDBRANCH  16  19
ENDBRANCH   4  16
TORSDOF 2
ENDMDL
MODEL 3
REMARK VINA RESULT:     -12.2      2.633      3.143
REMARK  Name = 6102777
REMARK  2 active torsions:
REMARK  status: ('A' for Active; 'I' for Inactive)
REMARK    1  A    between atoms: C_4  and  S_16
REMARK    2  A    between atoms: S_16  and  N_19
REMARK                            x       y       z     vdW  Elec       q    Type
REMARK                         _______ _______ _______ _____ _____    ______ ____
ROOT
ATOM      1  O   UNL     1      36.029 -20.834 -18.382  0.00  0.00    -0.453 OA
ATOM      2  O   UNL     1      32.553 -22.570 -17.097  0.00  0.00    -0.286 OA
ATOM      3  C   UNL     1      34.849 -22.192 -16.730  0.00  0.00    +0.075 A 
ATOM      4  C   UNL     1      36.102 -23.048 -14.854  0.00  0.00    +0.126 C 
ATOM      5  C   UNL     1      35.997 -21.574 -17.226  0.00  0.00    +0.148 A 
ATOM      6  C   UNL     1      34.896 -22.930 -15.545  0.00  0.00    +0.026 C 
ATOM      7  C   UNL     1      33.646 -21.253 -18.715  0.00  0.00    +0.074 A 
ATOM      8  C   UNL     1      33.592 -22.051 -17.480  0.00  0.00    +0.201 A 
ATOM      9  C   UNL     1      34.864 -20.690 -19.095  0.00  0.00    +0.148 A 
ATOM     10  C   UNL     1      37.253 -22.432 -15.346  0.00  0.00    +0.023 C 
ATOM     11  C   UNL     1      37.202 -21.697 -16.530  0.00  0.00    +0.039 C 
ATOM     12  C   UNL     1      32.502 -21.063 -19.493  0.00  0.00    +0.006 C 
ATOM     13  C   UNL     1      34.940 -19.930 -20.264  0.00  0.00    +0.038 C 
ATOM     14  C   UNL     1      32.584 -20.302 -20.660  0.00  0.00    +0.000 C 
ATOM     15  C   UNL     1      33.799 -19.737 -21.045  0.00  0.00    +0.003 C 
ENDROOT
BRANCH   4  16
ATOM     16  S   UNL     1      36.172 -23.968 -13.371  0.00  0.00    +0.081 S 
ATOM     17  O   UNL     1      36.973 -23.220 -12.410  0.00  0.00    -0.149 OA
ATOM     18  O   UNL     1      34.814 -24.363 -13.019  0.00  0.00    -0.149 OA
BRANCH  16  19
ATOM     19  N   UNL     1      37.044 -25.347 -13.874  0.00  0.00    -0.156 N 
ATOM     20  N   UNL     1      39.077 -26.528 -14.384  0.00  0.00    -0.094 NA
ATOM     21  N   UNL     1      39.262 -24.376 -13.699  0.00  0.00    -0.071 NA
ATOM     22  N   UNL     1      40.340 -26.081 -14.318  0.00  0.00    -0.139 N 
ATOM     23  N   UNL     1      40.497 -24.812 -13.917  0.00  0.00    -0.020 NA
ATOM     24  C   UNL     1      38.452 -25.426 -13.988  0.00  0.00    +0.145 C 
ATOM     25  H   UNL     1      36.525 -26.153 -14.102  0.00  0.00    +0.186 HD
ATOM     26  H   UNL     1      41.107 -26.653 -14.550  0.00  0.00    +0.197 HD
ENDBRANCH  16  19
ENDBRANCH   4  16
TORSDOF 2
ENDMDL
MODEL 4
REMARK VINA RESULT:     -12.2      6.769      9.187
REMARK  Name = 6102777
REMARK  2 active torsions:
REMARK  status: ('A' for Active; 'I' for Inactive)
REMARK    1  A    between atoms: C_4  and  S_16
REMARK    2  A    between atoms: S_16  and  N_19
REMARK                            x       y       z     vdW  Elec       q    Type
REMARK                         _______ _______ _______ _____ _____    ______ ____
ROOT
ATOM      1  O   UNL     1      33.356 -12.711 -23.422  0.00  0.00    -0.453 OA
ATOM      2  O   UNL     1      32.211 -13.841 -19.659  0.00  0.00    -0.286 OA
ATOM      3  C   UNL     1      33.371 -14.378 -21.637  0.00  0.00    +0.075 A 
ATOM      4  C   UNL     1      34.562 -16.442 -22.016  0.00  0.00    +0.126 C 
ATOM      5  C   UNL     1      33.726 -13.930 -22.910  0.00  0.00    +0.148 A 
ATOM      6  C   UNL     1      33.787 -15.633 -21.185  0.00  0.00    +0.026 C 
ATOM      7  C   UNL     1      32.169 -12.202 -21.350  0.00  0.00    +0.074 A 
ATOM      8  C   UNL     1      32.554 -13.503 -20.783  0.00  0.00    +0.201 A 
ATOM      9  C   UNL     1      32.592 -11.880 -22.639  0.00  0.00    +0.148 A 
ATOM     10  C   UNL     1      34.918 -16.000 -23.290  0.00  0.00    +0.023 C 
ATOM     11  C   UNL     1      34.501 -14.745 -23.737  0.00  0.00    +0.039 C 
ATOM     12  C   UNL     1      31.393 -11.303 -20.613  0.00  0.00    +0.006 C 
ATOM     13  C   UNL     1      32.239 -10.651 -23.197  0.00  0.00    +0.038 C 
ATOM     14  C   UNL     1      31.042 -10.076 -21.176  0.00  0.00    +0.000 C 
ATOM     15  C   UNL     1      31.463  -9.750 -22.465  0.00  0.00    +0.003 C 
ENDROOT
BRANCH   4  16
ATOM     16  S   UNL     1      35.087 -18.013 -21.462  0.00  0.00    +0.081 S 
ATOM     17  O   UNL     1      35.606 -18.749 -22.607  0.00  0.00    -0.149 OA
ATOM     18  O   UNL     1      35.931 -17.821 -20.290  0.00  0.00    -0.149 OA
BRANCH  16  19
ATOM     19  N   UNL     1      33.605 -18.708 -20.976  0.00  0.00    -0.156 N 
ATOM     20  N   UNL     1      32.286 -20.426 -19.926  0.00  0.00    -0.094 NA
ATOM     21  N   UNL     1      34.536 -20.688 -19.923  0.00  0.00    -0.071 NA
ATOM     22  N   UNL     1      32.705 -21.547 -19.321  0.00  0.00    -0.139 N 
ATOM     23  N   UNL     1      34.031 -21.744 -19.297  0.00  0.00    -0.020 NA
ATOM     24  C   UNL     1      33.467 -19.932 -20.279  0.00  0.00    +0.145 C 
ATOM     25  H   UNL     1      32.780 -18.218 -21.199  0.00  0.00    +0.186 HD
ATOM     26  H   UNL     1      32.076 -22.188 -18.919  0.00  0.00    +0.197 HD
ENDBRANCH  16  19
ENDBRANCH   4  16
TORSDOF 2
ENDMDL
MODEL 5
REMARK VINA RESULT:     -12.1      1.822      2.089
REMARK  Name = 6102777
REMARK  2 active torsions:
REMARK  status: ('A' for Active; 'I' for Inactive)
REMARK    1  A    between atoms: C_4  and  S_16
REMARK    2  A    between atoms: S_16  and  N_19
REMARK                            x       y       z     vdW  Elec       q    Type
REMARK                         _______ _______ _______ _____ _____    ______ ____
ROOT
ATOM      1  O   UNL     1      36.507 -20.032 -18.819  0.00  0.00    -0.453 OA
ATOM      2  O   UNL     1      32.825 -21.782 -19.177  0.00  0.00    -0.286 OA
ATOM      3  C   UNL     1      34.822 -21.571 -17.948  0.00  0.00    +0.075 A 
ATOM      4  C   UNL     1      35.314 -22.761 -15.907  0.00  0.00    +0.126 C 
ATOM      5  C   UNL     1      36.064 -20.939 -17.888  0.00  0.00    +0.148 A 
ATOM      6  C   UNL     1      34.442 -22.483 -16.960  0.00  0.00    +0.026 C 
ATOM      7  C   UNL     1      34.416 -20.285 -20.056  0.00  0.00    +0.074 A 
ATOM      8  C   UNL     1      33.924 -21.258 -19.070  0.00  0.00    +0.201 A 
ATOM      9  C   UNL     1      35.681 -19.727 -19.874  0.00  0.00    +0.148 A 
ATOM     10  C   UNL     1      36.557 -22.132 -15.843  0.00  0.00    +0.023 C 
ATOM     11  C   UNL     1      36.933 -21.222 -16.831  0.00  0.00    +0.039 C 
ATOM     12  C   UNL     1      33.633 -19.924 -21.156  0.00  0.00    +0.006 C 
ATOM     13  C   UNL     1      36.169 -18.801 -20.798  0.00  0.00    +0.038 C 
ATOM     14  C   UNL     1      34.126 -18.998 -22.076  0.00  0.00    +0.000 C 
ATOM     15  C   UNL     1      35.390 -18.438 -21.898  0.00  0.00    +0.003 C 
ENDROOT
BRANCH   4  16
ATOM     16  S   UNL     1      34.849 -23.900 -14.667  0.00  0.00    +0.081 S 
ATOM     17  O   UNL     1      33.700 -23.353 -13.956  0.00  0.00    -0.149 OA
ATOM     18  O   UNL     1      34.754 -25.219 -15.277  0.00  0.00    -0.149 OA
BRANCH  16  19
ATOM     19  N   UNL     1      36.213 -23.854 -13.642  0.00  0.00    -0.156 N 
ATOM     20  N   UNL     1      38.342 -24.669 -12.870  0.00  0.00    -0.094 NA
ATOM     21  N   UNL     1      37.365 -25.767 -14.594  0.00  0.00    -0.071 NA
ATOM     22  N   UNL     1      39.053 -25.710 -13.329  0.00  0.00    -0.139 N 
ATOM     23  N   UNL     1      38.511 -26.389 -14.349  0.00  0.00    -0.020 NA
ATOM     24  C   UNL     1      37.304 -24.753 -13.694  0.00  0.00    +0.145 C 
ATOM     25  H   UNL     1      36.243 -23.144 -12.959  0.00  0.00    +0.186 HD
ATOM     26  H   UNL     1      39.921 -25.960 -12.938  0.00  0.00    +0.197 HD
ENDBRANCH  16  19
ENDBRANCH   4  16
TORSDOF 2
ENDMDL
MODEL 6
REMARK VINA RESULT:     -12.1      4.533      5.423
REMARK  Name = 6102777
REMARK  2 active torsions:
REMARK  status: ('A' for Active; 'I' for Inactive)
REMARK    1  A    between atoms: C_4  and  S_16
REMARK    2  A    between atoms: S_16  and  N_19
REMARK                            x       y       z     vdW  Elec       q    Type
REMARK                         _______ _______ _______ _____ _____    ______ ____
ROOT
ATOM      1  O   UNL     1      34.942 -22.312 -16.944  0.00  0.00    -0.453 OA
ATOM      2  O   UNL     1      31.272 -21.391 -18.502  0.00  0.00    -0.286 OA
ATOM      3  C   UNL     1      32.508 -22.438 -16.792  0.00  0.00    +0.075 A 
ATOM      4  C   UNL     1      31.543 -23.616 -14.921  0.00  0.00    +0.126 C 
ATOM      5  C   UNL     1      33.789 -22.717 -16.318  0.00  0.00    +0.148 A 
ATOM      6  C   UNL     1      31.381 -22.885 -16.098  0.00  0.00    +0.026 C 
ATOM      7  C   UNL     1      33.614 -21.239 -18.691  0.00  0.00    +0.074 A 
ATOM      8  C   UNL     1      32.368 -21.665 -18.036  0.00  0.00    +0.201 A 
ATOM      9  C   UNL     1      34.831 -21.588 -18.107  0.00  0.00    +0.148 A 
ATOM     10  C   UNL     1      32.822 -23.899 -14.442  0.00  0.00    +0.023 C 
ATOM     11  C   UNL     1      33.945 -23.450 -15.139  0.00  0.00    +0.039 C 
ATOM     12  C   UNL     1      33.582 -20.501 -19.876  0.00  0.00    +0.006 C 
ATOM     13  C   UNL     1      36.027 -21.195 -18.711  0.00  0.00    +0.038 C 
ATOM     14  C   UNL     1      34.780 -20.111 -20.476  0.00  0.00    +0.000 C 
ATOM     15  C   UNL     1      35.999 -20.457 -19.896  0.00  0.00    +0.003 C 
ENDROOT
BRANCH   4  16
ATOM     16  S   UNL     1      30.141 -24.180 -14.045  0.00  0.00    +0.081 S 
ATOM     17  O   UNL     1      29.628 -25.363 -14.723  0.00  0.00    -0.149 OA
ATOM     18  O   UNL     1      30.491 -24.258 -12.632  0.00  0.00    -0.149 OA
BRANCH  16  19
ATOM     19  N   UNL     1      29.055 -22.885 -14.281  0.00  0.00    -0.156 N 
ATOM     20  N   UNL     1      27.335 -21.727 -15.503  0.00  0.00    -0.094 NA
ATOM     21  N   UNL     1      28.082 -23.687 -16.356  0.00  0.00    -0.071 NA
ATOM     22  N   UNL     1      26.738 -22.087 -16.648  0.00  0.00    -0.139 N 
ATOM     23  N   UNL     1      27.151 -23.241 -17.190  0.00  0.00    -0.020 NA
ATOM     24  C   UNL     1      28.160 -22.759 -15.370  0.00  0.00    +0.145 C 
ATOM     25  H   UNL     1      29.051 -22.167 -13.606  0.00  0.00    +0.186 HD
ATOM     26  H   UNL     1      26.039 -21.535 -17.067  0.00  0.00    +0.197 HD
ENDBRANCH  16  19
ENDBRANCH   4  16
TORSDOF 2
ENDMDL
MODEL 7
REMARK VINA RESULT:     -12.0      2.287      2.782
REMARK  Name = 6102777
REMARK  2 active torsions:
REMARK  status: ('A' for Active; 'I' for Inactive)
REMARK    1  A    between atoms: C_4  and  S_16
REMARK    2  A    between atoms: S_16  and  N_19
REMARK                            x       y       z     vdW  Elec       q    Type
REMARK                         _______ _______ _______ _____ _____    ______ ____
ROOT
ATOM      1  O   UNL     1      36.396 -20.000 -19.148  0.00  0.00    -0.453 OA
ATOM      2  O   UNL     1      32.553 -21.343 -19.571  0.00  0.00    -0.286 OA
ATOM      3  C   UNL     1      34.538 -21.343 -18.303  0.00  0.00    +0.075 A 
ATOM      4  C   UNL     1      34.859 -22.568 -16.249  0.00  0.00    +0.126 C 
ATOM      5  C   UNL     1      35.840 -20.848 -18.221  0.00  0.00    +0.148 A 
ATOM      6  C   UNL     1      34.043 -22.203 -17.320  0.00  0.00    +0.026 C 
ATOM      7  C   UNL     1      34.313 -20.032 -20.424  0.00  0.00    +0.074 A 
ATOM      8  C   UNL     1      33.700 -20.941 -19.444  0.00  0.00    +0.201 A 
ATOM      9  C   UNL     1      35.628 -19.613 -20.219  0.00  0.00    +0.148 A 
ATOM     10  C   UNL     1      36.162 -22.076 -16.163  0.00  0.00    +0.023 C 
ATOM     11  C   UNL     1      36.652 -21.217 -17.147  0.00  0.00    +0.039 C 
ATOM     12  C   UNL     1      33.595 -19.595 -21.540  0.00  0.00    +0.006 C 
ATOM     13  C   UNL     1      36.230 -18.751 -21.137  0.00  0.00    +0.038 C 
ATOM     14  C   UNL     1      34.202 -18.733 -22.454  0.00  0.00    +0.000 C 
ATOM     15  C   UNL     1      35.517 -18.312 -22.253  0.00  0.00    +0.003 C 
ENDROOT
BRANCH   4  16
ATOM     16  S   UNL     1      34.250 -23.642 -15.014  0.00  0.00    +0.081 S 
ATOM     17  O   UNL     1      34.687 -24.995 -15.334  0.00  0.00    -0.149 OA
ATOM     18  O   UNL     1      34.578 -23.070 -13.715  0.00  0.00    -0.149 OA
BRANCH  16  19
ATOM     19  N   UNL     1      32.566 -23.524 -15.269  0.00  0.00    -0.156 N 
ATOM     20  N   UNL     1      30.272 -23.799 -14.595  0.00  0.00    -0.094 NA
ATOM     21  N   UNL     1      31.876 -24.437 -13.128  0.00  0.00    -0.071 NA
ATOM     22  N   UNL     1      29.795 -24.289 -13.441  0.00  0.00    -0.139 N 
ATOM     23  N   UNL     1      30.710 -24.680 -12.543  0.00  0.00    -0.020 NA
ATOM     24  C   UNL     1      31.571 -23.915 -14.342  0.00  0.00    +0.145 C 
ATOM     25  H   UNL     1      32.263 -23.154 -16.130  0.00  0.00    +0.186 HD
ATOM     26  H   UNL     1      28.829 -24.358 -13.265  0.00  0.00    +0.197 HD
ENDBRANCH  16  19
ENDBRANCH   4  16
TORSDOF 2
ENDMDL
MODEL 8
REMARK VINA RESULT:     -11.9      5.743      8.742
REMARK  Name = 6102777
REMARK  2 active torsions:
REMARK  status: ('A' for Active; 'I' for Inactive)
REMARK    1  A    between atoms: C_4  and  S_16
REMARK    2  A    between atoms: S_16  and  N_19
REMARK                            x       y       z     vdW  Elec       q    Type
REMARK                         _______ _______ _______ _____ _____    ______ ____
ROOT
ATOM      1  O   UNL     1      33.870 -22.797 -17.000  0.00  0.00    -0.453 OA
ATOM      2  O   UNL     1      37.479 -20.882 -16.753  0.00  0.00    -0.286 OA
ATOM      3  C   UNL     1      35.473 -21.213 -17.942  0.00  0.00    +0.075 A 
ATOM      4  C   UNL     1      34.899 -20.104 -20.007  0.00  0.00    +0.126 C 
ATOM      5  C   UNL     1      34.259 -21.900 -17.964  0.00  0.00    +0.148 A 
ATOM      6  C   UNL     1      35.798 -20.314 -18.961  0.00  0.00    +0.026 C 
ATOM      7  C   UNL     1      35.965 -22.417 -15.803  0.00  0.00    +0.074 A 
ATOM      8  C   UNL     1      36.400 -21.453 -16.826  0.00  0.00    +0.201 A 
ATOM      9  C   UNL     1      34.723 -23.034 -15.950  0.00  0.00    +0.148 A 
ATOM     10  C   UNL     1      33.685 -20.789 -20.034  0.00  0.00    +0.023 C 
ATOM     11  C   UNL     1      33.364 -21.686 -19.014  0.00  0.00    +0.039 C 
ATOM     12  C   UNL     1      36.779 -22.710 -14.706  0.00  0.00    +0.006 C 
ATOM     13  C   UNL     1      34.290 -23.952 -14.991  0.00  0.00    +0.038 C 
ATOM     14  C   UNL     1      36.341 -23.629 -13.751  0.00  0.00    +0.000 C 
ATOM     15  C   UNL     1      35.099 -24.248 -13.893  0.00  0.00    +0.003 C 
ENDROOT
BRANCH   4  16
ATOM     16  S   UNL     1      35.296 -18.983 -21.286  0.00  0.00    +0.081 S 
ATOM     17  O   UNL     1      36.747 -18.929 -21.409  0.00  0.00    -0.149 OA
ATOM     18  O   UNL     1      34.489 -19.322 -22.451  0.00  0.00    -0.149 OA
BRANCH  16  19
ATOM     19  N   UNL     1      34.736 -17.511 -20.626  0.00  0.00    -0.156 N 
ATOM     20  N   UNL     1      34.121 -15.190 -20.782  0.00  0.00    -0.094 NA
ATOM     21  N   UNL     1      34.832 -16.211 -22.675  0.00  0.00    -0.071 NA
ATOM     22  N   UNL     1      34.139 -14.393 -21.860  0.00  0.00    -0.139 N 
ATOM     23  N   UNL     1      34.554 -14.956 -23.003  0.00  0.00    -0.020 NA
ATOM     24  C   UNL     1      34.561 -16.307 -21.349  0.00  0.00    +0.145 C 
ATOM     25  H   UNL     1      34.517 -17.499 -19.666  0.00  0.00    +0.186 HD
ATOM     26  H   UNL     1      33.863 -13.449 -21.814  0.00  0.00    +0.197 HD
ENDBRANCH  16  19
ENDBRANCH   4  16
TORSDOF 2
ENDMDL
MODEL 9
REMARK VINA RESULT:     -11.9      4.376      5.967
REMARK  Name = 6102777
REMARK  2 active torsions:
REMARK  status: ('A' for Active; 'I' for Inactive)
REMARK    1  A    between atoms: C_4  and  S_16
REMARK    2  A    between atoms: S_16  and  N_19
REMARK                            x       y       z     vdW  Elec       q    Type
REMARK                         _______ _______ _______ _____ _____    ______ ____
ROOT
ATOM      1  O   UNL     1      32.442 -22.417 -15.653  0.00  0.00    -0.453 OA
ATOM      2  O   UNL     1      31.309 -24.922 -12.621  0.00  0.00    -0.286 OA
ATOM      3  C   UNL     1      33.047 -23.756 -13.702  0.00  0.00    +0.075 A 
ATOM      4  C   UNL     1      35.361 -23.794 -13.019  0.00  0.00    +0.126 C 
ATOM      5  C   UNL     1      33.363 -22.900 -14.757  0.00  0.00    +0.148 A 
ATOM      6  C   UNL     1      34.041 -24.205 -12.830  0.00  0.00    +0.026 C 
ATOM      7  C   UNL     1      30.675 -23.644 -14.495  0.00  0.00    +0.074 A 
ATOM      8  C   UNL     1      31.647 -24.173 -13.526  0.00  0.00    +0.201 A 
ATOM      9  C   UNL     1      31.130 -22.795 -15.505  0.00  0.00    +0.148 A 
ATOM     10  C   UNL     1      35.683 -22.939 -14.074  0.00  0.00    +0.023 C 
ATOM     11  C   UNL     1      34.686 -22.492 -14.942  0.00  0.00    +0.039 C 
ATOM     12  C   UNL     1      29.323 -23.983 -14.409  0.00  0.00    +0.006 C 
ATOM     13  C   UNL     1      30.225 -22.281 -16.436  0.00  0.00    +0.038 C 
ATOM     14  C   UNL     1      28.424 -23.467 -15.343  0.00  0.00    +0.000 C 
ATOM     15  C   UNL     1      28.873 -22.618 -16.354  0.00  0.00    +0.003 C 
ENDROOT
BRANCH   4  16
ATOM     16  S   UNL     1      36.612 -24.350 -11.936  0.00  0.00    +0.081 S 
ATOM     17  O   UNL     1      37.517 -23.237 -11.678  0.00  0.00    -0.149 OA
ATOM     18  O   UNL     1      35.973 -25.030 -10.817  0.00  0.00    -0.149 OA
BRANCH  16  19
ATOM     19  N   UNL     1      37.410 -25.504 -12.910  0.00  0.00    -0.156 N 
ATOM     20  N   UNL     1      39.206 -26.229 -14.338  0.00  0.00    -0.094 NA
ATOM     21  N   UNL     1      39.298 -24.113 -13.534  0.00  0.00    -0.071 NA
ATOM     22  N   UNL     1      40.285 -25.539 -14.736  0.00  0.00    -0.139 N 
ATOM     23  N   UNL     1      40.380 -24.281 -14.285  0.00  0.00    -0.020 NA
ATOM     24  C   UNL     1      38.630 -25.292 -13.593  0.00  0.00    +0.145 C 
ATOM     25  H   UNL     1      36.986 -26.389 -13.003  0.00  0.00    +0.186 HD
ATOM     26  H   UNL     1      40.967 -25.934 -15.326  0.00  0.00    +0.197 HD
ENDBRANCH  16  19
ENDBRANCH   4  16
TORSDOF 2
ENDMDL
