MODEL 1
REMARK VINA RESULT:     -13.4      0.000      0.000
REMARK  Name = 6450813
REMARK  4 active torsions:
REMARK  status: ('A' for Active; 'I' for Inactive)
REMARK    1  A    between atoms: C_4  and  C_10
REMARK    2  A    between atoms: C_6  and  C_22
REMARK    3  A    between atoms: C_12  and  N_17
REMARK    4  A    between atoms: C_22  and  C_24
REMARK                            x       y       z     vdW  Elec       q    Type
REMARK                         _______ _______ _______ _____ _____    ______ ____
ROOT
ATOM      1  N   UNL     1      34.063 -15.567 -22.436  0.00  0.00    -0.191 N 
ATOM      2  N   UNL     1      34.241 -15.010 -21.206  0.00  0.00    -0.179 NA
ATOM      3  N   UNL     1      33.301 -14.947 -24.640  0.00  0.00    -0.231 NA
ATOM      4  C   UNL     1      34.305 -16.894 -22.828  0.00  0.00    +0.143 C 
ATOM      5  C   UNL     1      33.568 -14.624 -23.343  0.00  0.00    +0.141 C 
ATOM      6  C   UNL     1      33.445 -13.441 -22.651  0.00  0.00    +0.161 C 
ATOM      7  C   UNL     1      34.055 -17.256 -24.098  0.00  0.00    +0.020 C 
ATOM      8  C   UNL     1      33.870 -13.739 -21.351  0.00  0.00    +0.106 C 
ATOM      9  C   UNL     1      33.532 -16.179 -24.974  0.00  0.00    +0.097 C 
ENDROOT
BRANCH   4  10
ATOM     10  C   UNL     1      34.839 -17.896 -21.887  0.00  0.00    +0.003 C 
ATOM     11  C   UNL     1      33.974 -18.786 -21.249  0.00  0.00    +0.013 C 
ATOM     12  C   UNL     1      34.479 -19.734 -20.359  0.00  0.00    +0.054 C 
ATOM     13  C   UNL     1      36.209 -17.954 -21.633  0.00  0.00    -0.002 C 
ATOM     14  C   UNL     1      35.849 -19.791 -20.106  0.00  0.00    +0.015 C 
ATOM     15  C   UNL     1      36.715 -18.901 -20.743  0.00  0.00    +0.001 C 
BRANCH  12  17
ATOM     16  O   UNL     1      35.246 -21.821 -18.505  0.00  0.00    -0.275 OA
ATOM     17  N   UNL     1      33.614 -20.624 -19.720  0.00  0.00    -0.257 N 
ATOM     18  C   UNL     1      32.145 -20.482 -19.955  0.00  0.00    +0.120 C 
ATOM     19  C   UNL     1      34.061 -21.615 -18.779  0.00  0.00    +0.230 C 
ATOM     20  C   UNL     1      33.017 -22.430 -18.052  0.00  0.00    +0.095 C 
ENDBRANCH  12  17
ENDBRANCH   4  10
BRANCH   6  22
ATOM     21  O   UNL     1      33.246 -11.832 -24.345  0.00  0.00    -0.290 OA
ATOM     22  C   UNL     1      32.975 -12.198 -23.184  0.00  0.00    +0.191 C 
BRANCH  22  24
ATOM     23  S   UNL     1      31.996  -9.710 -22.739  0.00  0.00    -0.084 S 
ATOM     24  C   UNL     1      32.139 -11.336 -22.315  0.00  0.00    +0.065 C 
ATOM     25  C   UNL     1      31.469 -11.707 -21.211  0.00  0.00    +0.010 C 
ATOM     26  C   UNL     1      30.782 -10.591 -20.654  0.00  0.00    +0.008 C 
ATOM     27  C   UNL     1      30.982  -9.442 -21.385  0.00  0.00    +0.036 C 
ENDBRANCH  22  24
ENDBRANCH   6  22
TORSDOF 4
ENDMDL
MODEL 2
REMARK VINA RESULT:     -12.2      3.226      8.932
REMARK  Name = 6450813
REMARK  4 active torsions:
REMARK  status: ('A' for Active; 'I' for Inactive)
REMARK    1  A    between atoms: C_4  and  C_10
REMARK    2  A    between atoms: C_6  and  C_22
REMARK    3  A    between atoms: C_12  and  N_17
REMARK    4  A    between atoms: C_22  and  C_24
REMARK                            x       y       z     vdW  Elec       q    Type
REMARK                         _______ _______ _______ _____ _____    ______ ____
ROOT
ATOM      1  N   UNL     1      33.699 -14.717 -22.206  0.00  0.00    -0.191 N 
ATOM      2  N   UNL     1      33.837 -14.670 -20.852  0.00  0.00    -0.179 NA
ATOM      3  N   UNL     1      34.208 -16.180 -24.054  0.00  0.00    -0.231 NA
ATOM      4  C   UNL     1      33.133 -13.747 -23.052  0.00  0.00    +0.143 C 
ATOM      5  C   UNL     1      34.223 -15.907 -22.720  0.00  0.00    +0.141 C 
ATOM      6  C   UNL     1      34.693 -16.625 -21.643  0.00  0.00    +0.161 C 
ATOM      7  C   UNL     1      33.098 -13.976 -24.375  0.00  0.00    +0.020 C 
ATOM      8  C   UNL     1      34.430 -15.818 -20.531  0.00  0.00    +0.106 C 
ATOM      9  C   UNL     1      33.682 -15.269 -24.813  0.00  0.00    +0.097 C 
ENDROOT
BRANCH   4  10
ATOM     10  C   UNL     1      32.565 -12.493 -22.524  0.00  0.00    +0.003 C 
ATOM     11  C   UNL     1      32.873 -11.276 -23.132  0.00  0.00    +0.013 C 
ATOM     12  C   UNL     1      32.336 -10.090 -22.633  0.00  0.00    +0.054 C 
ATOM     13  C   UNL     1      31.719 -12.523 -21.416  0.00  0.00    -0.002 C 
ATOM     14  C   UNL     1      31.490 -10.120 -21.525  0.00  0.00    +0.015 C 
ATOM     15  C   UNL     1      31.181 -11.337 -20.915  0.00  0.00    +0.001 C 
BRANCH  12  17
ATOM     16  O   UNL     1      30.451  -8.003 -23.322  0.00  0.00    -0.275 OA
ATOM     17  N   UNL     1      32.644  -8.872 -23.241  0.00  0.00    -0.257 N 
ATOM     18  C   UNL     1      34.078  -8.564 -23.531  0.00  0.00    +0.120 C 
ATOM     19  C   UNL     1      31.660  -7.862 -23.521  0.00  0.00    +0.230 C 
ATOM     20  C   UNL     1      32.136  -6.531 -24.057  0.00  0.00    +0.095 C 
ENDBRANCH  12  17
ENDBRANCH   4  10
BRANCH   6  22
ATOM     21  O   UNL     1      36.349 -18.122 -22.360  0.00  0.00    -0.290 OA
ATOM     22  C   UNL     1      35.313 -17.914 -21.698  0.00  0.00    +0.191 C 
BRANCH  22  24
ATOM     23  S   UNL     1      35.714 -20.005 -20.021  0.00  0.00    -0.084 S 
ATOM     24  C   UNL     1      34.692 -19.022 -20.933  0.00  0.00    +0.065 C 
ATOM     25  C   UNL     1      33.387 -19.337 -20.881  0.00  0.00    +0.010 C 
ATOM     26  C   UNL     1      33.187 -20.467 -20.037  0.00  0.00    +0.008 C 
ATOM     27  C   UNL     1      34.368 -20.931 -19.504  0.00  0.00    +0.036 C 
ENDBRANCH  22  24
ENDBRANCH   6  22
TORSDOF 4
ENDMDL
MODEL 3
REMARK VINA RESULT:     -12.2      4.495      9.997
REMARK  Name = 6450813
REMARK  4 active torsions:
REMARK  status: ('A' for Active; 'I' for Inactive)
REMARK    1  A    between atoms: C_4  and  C_10
REMARK    2  A    between atoms: C_6  and  C_22
REMARK    3  A    between atoms: C_12  and  N_17
REMARK    4  A    between atoms: C_22  and  C_24
REMARK                            x       y       z     vdW  Elec       q    Type
REMARK                         _______ _______ _______ _____ _____    ______ ____
ROOT
ATOM      1  N   UNL     1      34.794 -21.152 -18.363  0.00  0.00    -0.191 N 
ATOM      2  N   UNL     1      36.090 -20.984 -17.978  0.00  0.00    -0.179 NA
ATOM      3  N   UNL     1      32.806 -22.323 -17.660  0.00  0.00    -0.231 NA
ATOM      4  C   UNL     1      34.146 -20.601 -19.482  0.00  0.00    +0.143 C 
ATOM      5  C   UNL     1      34.117 -21.997 -17.479  0.00  0.00    +0.141 C 
ATOM      6  C   UNL     1      35.024 -22.357 -16.508  0.00  0.00    +0.161 C 
ATOM      7  C   UNL     1      32.854 -20.896 -19.698  0.00  0.00    +0.020 C 
ATOM      8  C   UNL     1      36.210 -21.708 -16.867  0.00  0.00    +0.106 C 
ATOM      9  C   UNL     1      32.232 -21.802 -18.701  0.00  0.00    +0.097 C 
ENDROOT
BRANCH   4  10
ATOM     10  C   UNL     1      34.844 -19.698 -20.415  0.00  0.00    +0.003 C 
ATOM     11  C   UNL     1      34.133 -19.058 -21.432  0.00  0.00    +0.013 C 
ATOM     12  C   UNL     1      34.792 -18.204 -22.314  0.00  0.00    +0.054 C 
ATOM     13  C   UNL     1      36.215 -19.480 -20.282  0.00  0.00    -0.002 C 
ATOM     14  C   UNL     1      36.164 -17.987 -22.181  0.00  0.00    +0.015 C 
ATOM     15  C   UNL     1      36.876 -18.626 -21.165  0.00  0.00    +0.001 C 
BRANCH  12  17
ATOM     16  O   UNL     1      34.621 -15.345 -22.739  0.00  0.00    -0.275 OA
ATOM     17  N   UNL     1      34.082 -17.565 -23.332  0.00  0.00    -0.257 N 
ATOM     18  C   UNL     1      33.373 -18.408 -24.343  0.00  0.00    +0.120 C 
ATOM     19  C   UNL     1      34.071 -16.138 -23.507  0.00  0.00    +0.230 C 
ATOM     20  C   UNL     1      33.376 -15.574 -24.725  0.00  0.00    +0.095 C 
ENDBRANCH  12  17
ENDBRANCH   4  10
BRANCH   6  22
ATOM     21  O   UNL     1      33.607 -23.483 -15.017  0.00  0.00    -0.290 OA
ATOM     22  C   UNL     1      34.766 -23.216 -15.392  0.00  0.00    +0.191 C 
BRANCH  22  24
ATOM     23  S   UNL     1      36.662 -22.855 -13.490  0.00  0.00    -0.084 S 
ATOM     24  C   UNL     1      35.926 -23.799 -14.676  0.00  0.00    +0.065 C 
ATOM     25  C   UNL     1      36.467 -25.015 -14.867  0.00  0.00    +0.010 C 
ATOM     26  C   UNL     1      37.569 -25.206 -13.985  0.00  0.00    +0.008 C 
ATOM     27  C   UNL     1      37.785 -24.110 -13.180  0.00  0.00    +0.036 C 
ENDBRANCH  22  24
ENDBRANCH   6  22
TORSDOF 4
ENDMDL
MODEL 4
REMARK VINA RESULT:     -12.2      3.379      5.735
REMARK  Name = 6450813
REMARK  4 active torsions:
REMARK  status: ('A' for Active; 'I' for Inactive)
REMARK    1  A    between atoms: C_4  and  C_10
REMARK    2  A    between atoms: C_6  and  C_22
REMARK    3  A    between atoms: C_12  and  N_17
REMARK    4  A    between atoms: C_22  and  C_24
REMARK                            x       y       z     vdW  Elec       q    Type
REMARK                         _______ _______ _______ _____ _____    ______ ____
ROOT
ATOM      1  N   UNL     1      34.783 -20.056 -19.785  0.00  0.00    -0.191 N 
ATOM      2  N   UNL     1      36.073 -19.618 -19.805  0.00  0.00    -0.179 NA
ATOM      3  N   UNL     1      32.737 -19.799 -21.036  0.00  0.00    -0.231 NA
ATOM      4  C   UNL     1      34.178 -20.921 -18.858  0.00  0.00    +0.143 C 
ATOM      5  C   UNL     1      34.056 -19.514 -20.849  0.00  0.00    +0.141 C 
ATOM      6  C   UNL     1      34.931 -18.721 -21.558  0.00  0.00    +0.161 C 
ATOM      7  C   UNL     1      32.878 -21.229 -19.004  0.00  0.00    +0.020 C 
ATOM      8  C   UNL     1      36.146 -18.824 -20.872  0.00  0.00    +0.106 C 
ATOM      9  C   UNL     1      32.203 -20.599 -20.166  0.00  0.00    +0.097 C 
ENDROOT
BRANCH   4  10
ATOM     10  C   UNL     1      34.935 -21.510 -17.738  0.00  0.00    +0.003 C 
ATOM     11  C   UNL     1      34.295 -22.355 -16.829  0.00  0.00    +0.013 C 
ATOM     12  C   UNL     1      35.010 -22.913 -15.771  0.00  0.00    +0.054 C 
ATOM     13  C   UNL     1      36.291 -21.225 -17.586  0.00  0.00    -0.002 C 
ATOM     14  C   UNL     1      36.367 -22.626 -15.619  0.00  0.00    +0.015 C 
ATOM     15  C   UNL     1      37.008 -21.782 -16.526  0.00  0.00    +0.001 C 
BRANCH  12  17
ATOM     16  O   UNL     1      32.451 -22.431 -14.507  0.00  0.00    -0.275 OA
ATOM     17  N   UNL     1      34.371 -23.757 -14.862  0.00  0.00    -0.257 N 
ATOM     18  C   UNL     1      35.018 -25.062 -14.525  0.00  0.00    +0.120 C 
ATOM     19  C   UNL     1      33.079 -23.473 -14.300  0.00  0.00    +0.230 C 
ATOM     20  C   UNL     1      32.430 -24.526 -13.432  0.00  0.00    +0.095 C 
ENDBRANCH  12  17
ENDBRANCH   4  10
BRANCH   6  22
ATOM     21  O   UNL     1      34.556 -18.498 -23.861  0.00  0.00    -0.290 OA
ATOM     22  C   UNL     1      34.619 -17.968 -22.735  0.00  0.00    +0.191 C 
BRANCH  22  24
ATOM     23  S   UNL     1      34.103 -15.625 -23.996  0.00  0.00    -0.084 S 
ATOM     24  C   UNL     1      34.365 -16.515 -22.588  0.00  0.00    +0.065 C 
ATOM     25  C   UNL     1      34.317 -15.813 -21.443  0.00  0.00    +0.010 C 
ATOM     26  C   UNL     1      34.047 -14.442 -21.717  0.00  0.00    +0.008 C 
ATOM     27  C   UNL     1      33.908 -14.201 -23.065  0.00  0.00    +0.036 C 
ENDBRANCH  22  24
ENDBRANCH   6  22
TORSDOF 4
ENDMDL
MODEL 5
REMARK VINA RESULT:     -11.9      3.231      9.103
REMARK  Name = 6450813
REMARK  4 active torsions:
REMARK  status: ('A' for Active; 'I' for Inactive)
REMARK    1  A    between atoms: C_4  and  C_10
REMARK    2  A    between atoms: C_6  and  C_22
REMARK    3  A    between atoms: C_12  and  N_17
REMARK    4  A    between atoms: C_22  and  C_24
REMARK                            x       y       z     vdW  Elec       q    Type
REMARK                         _______ _______ _______ _____ _____    ______ ____
ROOT
ATOM      1  N   UNL     1      33.175 -13.747 -22.989  0.00  0.00    -0.191 N 
ATOM      2  N   UNL     1      33.444 -13.967 -21.671  0.00  0.00    -0.179 NA
ATOM      3  N   UNL     1      33.361 -14.871 -25.114  0.00  0.00    -0.231 NA
ATOM      4  C   UNL     1      32.630 -12.594 -23.579  0.00  0.00    +0.143 C 
ATOM      5  C   UNL     1      33.529 -14.856 -23.762  0.00  0.00    +0.141 C 
ATOM      6  C   UNL     1      34.026 -15.799 -22.891  0.00  0.00    +0.161 C 
ATOM      7  C   UNL     1      32.447 -12.566 -24.910  0.00  0.00    +0.020 C 
ATOM      8  C   UNL     1      33.949 -15.199 -21.630  0.00  0.00    +0.106 C 
ATOM      9  C   UNL     1      32.857 -13.795 -25.634  0.00  0.00    +0.097 C 
ENDROOT
BRANCH   4  10
ATOM     10  C   UNL     1      32.240 -11.421 -22.775  0.00  0.00    +0.003 C 
ATOM     11  C   UNL     1      32.497 -10.133 -23.247  0.00  0.00    +0.013 C 
ATOM     12  C   UNL     1      32.128  -9.024 -22.487  0.00  0.00    +0.054 C 
ATOM     13  C   UNL     1      31.613 -11.598 -21.542  0.00  0.00    -0.002 C 
ATOM     14  C   UNL     1      31.501  -9.202 -21.253  0.00  0.00    +0.015 C 
ATOM     15  C   UNL     1      31.244 -10.489 -20.780  0.00  0.00    +0.001 C 
BRANCH  12  17
ATOM     16  O   UNL     1      34.703  -7.996 -23.320  0.00  0.00    -0.275 OA
ATOM     17  N   UNL     1      32.385  -7.736 -22.958  0.00  0.00    -0.257 N 
ATOM     18  C   UNL     1      31.237  -6.789 -23.106  0.00  0.00    +0.120 C 
ATOM     19  C   UNL     1      33.685  -7.302 -23.392  0.00  0.00    +0.230 C 
ATOM     20  C   UNL     1      33.811  -5.928 -24.008  0.00  0.00    +0.095 C 
ENDBRANCH  12  17
ENDBRANCH   4  10
BRANCH   6  22
ATOM     21  O   UNL     1      34.476 -17.521 -24.417  0.00  0.00    -0.290 OA
ATOM     22  C   UNL     1      34.509 -17.100 -23.244  0.00  0.00    +0.191 C 
BRANCH  22  24
ATOM     23  S   UNL     1      34.037 -19.095 -21.472  0.00  0.00    -0.084 S 
ATOM     24  C   UNL     1      35.065 -17.955 -22.168  0.00  0.00    +0.065 C 
ATOM     25  C   UNL     1      36.315 -17.926 -21.676  0.00  0.00    +0.010 C 
ATOM     26  C   UNL     1      36.463 -18.903 -20.650  0.00  0.00    +0.008 C 
ATOM     27  C   UNL     1      35.301 -19.610 -20.437  0.00  0.00    +0.036 C 
ENDBRANCH  22  24
ENDBRANCH   6  22
TORSDOF 4
ENDMDL
MODEL 6
REMARK VINA RESULT:     -11.8      5.726      9.036
REMARK  Name = 6450813
REMARK  4 active torsions:
REMARK  status: ('A' for Active; 'I' for Inactive)
REMARK    1  A    between atoms: C_4  and  C_10
REMARK    2  A    between atoms: C_6  and  C_22
REMARK    3  A    between atoms: C_12  and  N_17
REMARK    4  A    between atoms: C_22  and  C_24
REMARK                            x       y       z     vdW  Elec       q    Type
REMARK                         _______ _______ _______ _____ _____    ______ ____
ROOT
ATOM      1  N   UNL     1      33.902 -22.292 -16.869  0.00  0.00    -0.191 N 
ATOM      2  N   UNL     1      35.222 -22.061 -17.122  0.00  0.00    -0.179 NA
ATOM      3  N   UNL     1      31.743 -21.869 -17.856  0.00  0.00    -0.231 NA
ATOM      4  C   UNL     1      33.336 -22.944 -15.761  0.00  0.00    +0.143 C 
ATOM      5  C   UNL     1      33.101 -21.769 -17.888  0.00  0.00    +0.141 C 
ATOM      6  C   UNL     1      33.955 -21.204 -18.809  0.00  0.00    +0.161 C 
ATOM      7  C   UNL     1      31.999 -23.064 -15.688  0.00  0.00    +0.020 C 
ATOM      8  C   UNL     1      35.236 -21.413 -18.285  0.00  0.00    +0.106 C 
ATOM      9  C   UNL     1      31.245 -22.474 -16.822  0.00  0.00    +0.097 C 
ENDROOT
BRANCH   4  10
ATOM     10  C   UNL     1      34.169 -23.511 -14.685  0.00  0.00    +0.003 C 
ATOM     11  C   UNL     1      35.361 -24.166 -14.996  0.00  0.00    +0.013 C 
ATOM     12  C   UNL     1      36.149 -24.702 -13.978  0.00  0.00    +0.054 C 
ATOM     13  C   UNL     1      33.766 -23.393 -13.355  0.00  0.00    -0.002 C 
ATOM     14  C   UNL     1      35.745 -24.584 -12.648  0.00  0.00    +0.015 C 
ATOM     15  C   UNL     1      34.553 -23.929 -12.336  0.00  0.00    +0.001 C 
BRANCH  12  17
ATOM     16  O   UNL     1      38.667 -23.439 -14.645  0.00  0.00    -0.275 OA
ATOM     17  N   UNL     1      37.341 -25.358 -14.288  0.00  0.00    -0.257 N 
ATOM     18  C   UNL     1      37.368 -26.852 -14.231  0.00  0.00    +0.120 C 
ATOM     19  C   UNL     1      38.569 -24.666 -14.573  0.00  0.00    +0.230 C 
ATOM     20  C   UNL     1      39.824 -25.487 -14.761  0.00  0.00    +0.095 C 
ENDBRANCH  12  17
ENDBRANCH   4  10
BRANCH   6  22
ATOM     21  O   UNL     1      32.438 -20.694 -20.521  0.00  0.00    -0.290 OA
ATOM     22  C   UNL     1      33.572 -20.551 -20.023  0.00  0.00    +0.191 C 
BRANCH  22  24
ATOM     23  S   UNL     1      34.126 -18.983 -22.163  0.00  0.00    -0.084 S 
ATOM     24  C   UNL     1      34.566 -19.678 -20.691  0.00  0.00    +0.065 C 
ATOM     25  C   UNL     1      35.799 -19.371 -20.252  0.00  0.00    +0.010 C 
ATOM     26  C   UNL     1      36.448 -18.503 -21.175  0.00  0.00    +0.008 C 
ATOM     27  C   UNL     1      35.652 -18.211 -22.260  0.00  0.00    +0.036 C 
ENDBRANCH  22  24
ENDBRANCH   6  22
TORSDOF 4
ENDMDL
MODEL 7
REMARK VINA RESULT:     -11.6      3.529      8.977
REMARK  Name = 6450813
REMARK  4 active torsions:
REMARK  status: ('A' for Active; 'I' for Inactive)
REMARK    1  A    between atoms: C_4  and  C_10
REMARK    2  A    between atoms: C_6  and  C_22
REMARK    3  A    between atoms: C_12  and  N_17
REMARK    4  A    between atoms: C_22  and  C_24
REMARK                            x       y       z     vdW  Elec       q    Type
REMARK                         _______ _______ _______ _____ _____    ______ ____
ROOT
ATOM      1  N   UNL     1      33.800 -20.519 -19.660  0.00  0.00    -0.191 N 
ATOM      2  N   UNL     1      32.458 -20.429 -19.880  0.00  0.00    -0.179 NA
ATOM      3  N   UNL     1      35.353 -21.684 -18.229  0.00  0.00    -0.231 NA
ATOM      4  C   UNL     1      34.832 -19.825 -20.315  0.00  0.00    +0.143 C 
ATOM      5  C   UNL     1      34.078 -21.429 -18.636  0.00  0.00    +0.141 C 
ATOM      6  C   UNL     1      32.865 -21.926 -18.213  0.00  0.00    +0.161 C 
ATOM      7  C   UNL     1      36.104 -20.046 -19.945  0.00  0.00    +0.020 C 
ATOM      8  C   UNL     1      31.914 -21.278 -19.009  0.00  0.00    +0.106 C 
ATOM      9  C   UNL     1      36.286 -21.030 -18.848  0.00  0.00    +0.097 C 
ENDROOT
BRANCH   4  10
ATOM     10  C   UNL     1      34.555 -18.873 -21.406  0.00  0.00    +0.003 C 
ATOM     11  C   UNL     1      34.454 -17.508 -21.133  0.00  0.00    +0.013 C 
ATOM     12  C   UNL     1      34.193 -16.607 -22.164  0.00  0.00    +0.054 C 
ATOM     13  C   UNL     1      34.396 -19.335 -22.712  0.00  0.00    -0.002 C 
ATOM     14  C   UNL     1      34.033 -17.070 -23.471  0.00  0.00    +0.015 C 
ATOM     15  C   UNL     1      34.135 -18.434 -23.745  0.00  0.00    +0.001 C 
BRANCH  12  17
ATOM     16  O   UNL     1      34.063 -14.482 -24.127  0.00  0.00    -0.275 OA
ATOM     17  N   UNL     1      34.091 -15.242 -21.892  0.00  0.00    -0.257 N 
ATOM     18  C   UNL     1      33.986 -14.806 -20.466  0.00  0.00    +0.120 C 
ATOM     19  C   UNL     1      33.992 -14.240 -22.919  0.00  0.00    +0.230 C 
ATOM     20  C   UNL     1      33.749 -12.809 -22.499  0.00  0.00    +0.095 C 
ENDBRANCH  12  17
ENDBRANCH   4  10
BRANCH   6  22
ATOM     21  O   UNL     1      33.393 -23.900 -17.065  0.00  0.00    -0.290 OA
ATOM     22  C   UNL     1      32.667 -22.893 -17.176  0.00  0.00    +0.191 C 
BRANCH  22  24
ATOM     23  S   UNL     1      31.932 -22.753 -14.572  0.00  0.00    -0.084 S 
ATOM     24  C   UNL     1      31.561 -22.670 -16.214  0.00  0.00    +0.065 C 
ATOM     25  C   UNL     1      30.277 -22.403 -16.505  0.00  0.00    +0.010 C 
ATOM     26  C   UNL     1      29.522 -22.253 -15.307  0.00  0.00    +0.008 C 
ATOM     27  C   UNL     1      30.298 -22.419 -14.182  0.00  0.00    +0.036 C 
ENDBRANCH  22  24
ENDBRANCH   6  22
TORSDOF 4
ENDMDL
MODEL 8
REMARK VINA RESULT:     -11.3      4.472      9.420
REMARK  Name = 6450813
REMARK  4 active torsions:
REMARK  status: ('A' for Active; 'I' for Inactive)
REMARK    1  A    between atoms: C_4  and  C_10
REMARK    2  A    between atoms: C_6  and  C_22
REMARK    3  A    between atoms: C_12  and  N_17
REMARK    4  A    between atoms: C_22  and  C_24
REMARK                            x       y       z     vdW  Elec       q    Type
REMARK                         _______ _______ _______ _____ _____    ______ ____
ROOT
ATOM      1  N   UNL     1      34.733 -21.140 -18.542  0.00  0.00    -0.191 N 
ATOM      2  N   UNL     1      35.998 -20.922 -18.083  0.00  0.00    -0.179 NA
ATOM      3  N   UNL     1      32.772 -22.427 -17.981  0.00  0.00    -0.231 NA
ATOM      4  C   UNL     1      34.118 -20.585 -19.677  0.00  0.00    +0.143 C 
ATOM      5  C   UNL     1      34.054 -22.045 -17.721  0.00  0.00    +0.141 C 
ATOM      6  C   UNL     1      34.926 -22.392 -16.714  0.00  0.00    +0.161 C 
ATOM      7  C   UNL     1      32.855 -20.935 -19.971  0.00  0.00    +0.020 C 
ATOM      8  C   UNL     1      36.096 -21.675 -16.989  0.00  0.00    +0.106 C 
ATOM      9  C   UNL     1      32.228 -21.902 -19.035  0.00  0.00    +0.097 C 
ENDROOT
BRANCH   4  10
ATOM     10  C   UNL     1      34.817 -19.619 -20.544  0.00  0.00    +0.003 C 
ATOM     11  C   UNL     1      34.122 -18.961 -21.560  0.00  0.00    +0.013 C 
ATOM     12  C   UNL     1      34.783 -18.048 -22.380  0.00  0.00    +0.054 C 
ATOM     13  C   UNL     1      36.174 -19.361 -20.349  0.00  0.00    -0.002 C 
ATOM     14  C   UNL     1      36.140 -17.791 -22.185  0.00  0.00    +0.015 C 
ATOM     15  C   UNL     1      36.836 -18.448 -21.169  0.00  0.00    +0.001 C 
BRANCH  12  17
ATOM     16  O   UNL     1      34.632 -15.183 -22.765  0.00  0.00    -0.275 OA
ATOM     17  N   UNL     1      34.089 -17.391 -23.397  0.00  0.00    -0.257 N 
ATOM     18  C   UNL     1      33.389 -18.215 -24.429  0.00  0.00    +0.120 C 
ATOM     19  C   UNL     1      34.087 -15.962 -23.552  0.00  0.00    +0.230 C 
ATOM     20  C   UNL     1      33.411 -15.376 -24.770  0.00  0.00    +0.095 C 
ENDBRANCH  12  17
ENDBRANCH   4  10
BRANCH   6  22
ATOM     21  O   UNL     1      35.407 -24.256 -15.375  0.00  0.00    -0.290 OA
ATOM     22  C   UNL     1      34.654 -23.298 -15.639  0.00  0.00    +0.191 C 
BRANCH  22  24
ATOM     23  S   UNL     1      33.391 -23.756 -13.285  0.00  0.00    -0.084 S 
ATOM     24  C   UNL     1      33.435 -23.072 -14.826  0.00  0.00    +0.065 C 
ATOM     25  C   UNL     1      32.344 -22.372 -15.179  0.00  0.00    +0.010 C 
ATOM     26  C   UNL     1      31.388 -22.385 -14.124  0.00  0.00    +0.008 C 
ATOM     27  C   UNL     1      31.828 -23.101 -13.034  0.00  0.00    +0.036 C 
ENDBRANCH  22  24
ENDBRANCH   6  22
TORSDOF 4
ENDMDL
MODEL 9
REMARK VINA RESULT:     -11.2      3.216      8.741
REMARK  Name = 6450813
REMARK  4 active torsions:
REMARK  status: ('A' for Active; 'I' for Inactive)
REMARK    1  A    between atoms: C_4  and  C_10
REMARK    2  A    between atoms: C_6  and  C_22
REMARK    3  A    between atoms: C_12  and  N_17
REMARK    4  A    between atoms: C_22  and  C_24
REMARK                            x       y       z     vdW  Elec       q    Type
REMARK                         _______ _______ _______ _____ _____    ______ ____
ROOT
ATOM      1  N   UNL     1      34.202 -19.207 -20.958  0.00  0.00    -0.191 N 
ATOM      2  N   UNL     1      32.856 -19.392 -21.064  0.00  0.00    -0.179 NA
ATOM      3  N   UNL     1      36.101 -20.151 -19.810  0.00  0.00    -0.231 NA
ATOM      4  C   UNL     1      34.993 -18.234 -21.593  0.00  0.00    +0.143 C 
ATOM      5  C   UNL     1      34.766 -20.140 -20.084  0.00  0.00    +0.141 C 
ATOM      6  C   UNL     1      33.734 -20.937 -19.641  0.00  0.00    +0.161 C 
ATOM      7  C   UNL     1      36.315 -18.208 -21.350  0.00  0.00    +0.020 C 
ATOM      8  C   UNL     1      32.593 -20.431 -20.273  0.00  0.00    +0.106 C 
ATOM      9  C   UNL     1      36.808 -19.242 -20.407  0.00  0.00    +0.097 C 
ENDROOT
BRANCH   4  10
ATOM     10  C   UNL     1      34.414 -17.252 -22.527  0.00  0.00    +0.003 C 
ATOM     11  C   UNL     1      34.264 -15.920 -22.137  0.00  0.00    +0.013 C 
ATOM     12  C   UNL     1      33.718 -14.991 -23.020  0.00  0.00    +0.054 C 
ATOM     13  C   UNL     1      34.017 -17.652 -23.802  0.00  0.00    -0.002 C 
ATOM     14  C   UNL     1      33.320 -15.392 -24.296  0.00  0.00    +0.015 C 
ATOM     15  C   UNL     1      33.469 -16.723 -24.687  0.00  0.00    +0.001 C 
BRANCH  12  17
ATOM     16  O   UNL     1      32.895 -12.799 -24.723  0.00  0.00    -0.275 OA
ATOM     17  N   UNL     1      33.566 -13.659 -22.630  0.00  0.00    -0.257 N 
ATOM     18  C   UNL     1      33.795 -13.307 -21.196  0.00  0.00    +0.120 C 
ATOM     19  C   UNL     1      33.116 -12.625 -23.522  0.00  0.00    +0.230 C 
ATOM     20  C   UNL     1      32.862 -11.250 -22.949  0.00  0.00    +0.095 C 
ENDBRANCH  12  17
ENDBRANCH   4  10
BRANCH   6  22
ATOM     21  O   UNL     1      33.199 -23.086 -18.873  0.00  0.00    -0.290 OA
ATOM     22  C   UNL     1      33.849 -22.032 -18.727  0.00  0.00    +0.191 C 
BRANCH  22  24
ATOM     23  S   UNL     1      34.249 -22.449 -16.079  0.00  0.00    -0.084 S 
ATOM     24  C   UNL     1      34.777 -21.892 -17.579  0.00  0.00    +0.065 C 
ATOM     25  C   UNL     1      36.013 -21.362 -17.598  0.00  0.00    +0.010 C 
ATOM     26  C   UNL     1      36.587 -21.407 -16.295  0.00  0.00    +0.008 C 
ATOM     27  C   UNL     1      35.735 -21.973 -15.373  0.00  0.00    +0.036 C 
ENDBRANCH  22  24
ENDBRANCH   6  22
TORSDOF 4
ENDMDL
