MODEL 1
REMARK VINA RESULT:     -12.7      0.000      0.000
REMARK  Name = 25031915
REMARK  8 active torsions:
REMARK  status: ('A' for Active; 'I' for Inactive)
REMARK    1  A    between atoms: C_2  and  O_13
REMARK    2  A    between atoms: C_3  and  O_11
REMARK    3  A    between atoms: C_8  and  O_22
REMARK    4  A    between atoms: O_13  and  C_14
REMARK    5  A    between atoms: C_14  and  C_15
REMARK    6  A    between atoms: C_15  and  N_18
REMARK    7  A    between atoms: O_22  and  C_23
REMARK    8  A    between atoms: C_27  and  C_35
REMARK                            x       y       z     vdW  Elec       q    Type
REMARK                         _______ _______ _______ _____ _____    ______ ____
ROOT
ATOM      1  N   UNL     1      32.120 -21.479 -19.165  0.00  0.00    -0.244 NA
ATOM      2  C   UNL     1      34.888 -22.379 -16.948  0.00  0.00    +0.174 C 
ATOM      3  C   UNL     1      35.933 -21.643 -17.490  0.00  0.00    +0.173 C 
ATOM      4  C   UNL     1      33.615 -22.313 -17.521  0.00  0.00    +0.059 C 
ATOM      5  C   UNL     1      33.358 -21.520 -18.636  0.00  0.00    +0.087 C 
ATOM      6  C   UNL     1      35.704 -20.842 -18.605  0.00  0.00    +0.045 C 
ATOM      7  C   UNL     1      34.425 -20.776 -19.182  0.00  0.00    +0.055 C 
ATOM      8  C   UNL     1      34.167 -19.978 -20.304  0.00  0.00    +0.148 C 
ATOM      9  C   UNL     1      32.892 -19.933 -20.851  0.00  0.00    +0.058 C 
ATOM     10  C   UNL     1      31.913 -20.696 -20.249  0.00  0.00    +0.102 C 
ENDROOT
BRANCH   3  11
ATOM     11  O   UNL     1      37.179 -21.696 -16.942  0.00  0.00    -0.468 OA
ATOM     12  C   UNL     1      37.609 -20.560 -16.195  0.00  0.00    +0.253 C 
ENDBRANCH   3  11
BRANCH   2  13
ATOM     13  O   UNL     1      35.088 -23.169 -15.856  0.00  0.00    -0.475 OA
BRANCH  13  14
ATOM     14  C   UNL     1      34.504 -22.740 -14.629  0.00  0.00    +0.186 C 
BRANCH  14  15
ATOM     15  C   UNL     1      35.316 -23.245 -13.486  0.00  0.00    -0.008 C 
ATOM     16  C   UNL     1      36.160 -24.461 -13.731  0.00  0.00    -0.018 C 
ATOM     17  C   UNL     1      36.806 -23.113 -13.597  0.00  0.00    -0.018 C 
BRANCH  15  18
ATOM     18  N   UNL     1      34.683 -23.072 -12.172  0.00  0.00    +0.385 N 
ATOM     19  H   UNL     1      34.049 -23.851 -11.996  0.00  0.00    -0.089 HD
ATOM     20  H   UNL     1      34.159 -22.197 -12.159  0.00  0.00    -0.089 HD
ATOM     21  H   UNL     1      35.401 -23.048 -11.448  0.00  0.00    -0.089 HD
ENDBRANCH  15  18
ENDBRANCH  14  15
ENDBRANCH  13  14
ENDBRANCH   2  13
BRANCH   8  22
ATOM     22  O   UNL     1      35.160 -19.217 -20.897  0.00  0.00    -0.453 OA
BRANCH  22  23
ATOM     23  C   UNL     1      34.790 -18.056 -21.504  0.00  0.00    +0.145 C 
ATOM     24  C   UNL     1      34.024 -15.660 -22.753  0.00  0.00    +0.005 C 
ATOM     25  C   UNL     1      34.236 -15.691 -21.355  0.00  0.00    +0.003 C 
ATOM     26  C   UNL     1      34.619 -16.897 -20.745  0.00  0.00    +0.037 C 
ATOM     27  C   UNL     1      33.642 -14.454 -23.363  0.00  0.00    +0.053 C 
ATOM     28  C   UNL     1      34.582 -18.025 -22.879  0.00  0.00    +0.037 C 
ATOM     29  C   UNL     1      34.201 -16.836 -23.501  0.00  0.00    +0.003 C 
ATOM     30  C   UNL     1      34.060 -14.516 -20.607  0.00  0.00    +0.000 C 
ATOM     31  C   UNL     1      33.471 -13.295 -22.605  0.00  0.00    +0.005 C 
ATOM     32  C   UNL     1      33.679 -13.327 -21.229  0.00  0.00    +0.000 C 
BRANCH  27  35
ATOM     33  O   UNL     1      33.551 -15.331 -25.536  0.00  0.00    -0.270 OA
ATOM     34  N   UNL     1      32.992 -13.096 -25.276  0.00  0.00    -0.299 N 
ATOM     35  C   UNL     1      33.405 -14.343 -24.800  0.00  0.00    +0.246 C 
ATOM     36  C   UNL     1      32.694 -12.835 -26.665  0.00  0.00    +0.111 C 
ATOM     37  H   UNL     1      32.898 -12.357 -24.631  0.00  0.00    +0.150 HD
ENDBRANCH  27  35
ENDBRANCH  22  23
ENDBRANCH   8  22
TORSDOF 8
ENDMDL
MODEL 2
REMARK VINA RESULT:     -11.8      1.418      2.307
REMARK  Name = 25031915
REMARK  8 active torsions:
REMARK  status: ('A' for Active; 'I' for Inactive)
REMARK    1  A    between atoms: C_2  and  O_13
REMARK    2  A    between atoms: C_3  and  O_11
REMARK    3  A    between atoms: C_8  and  O_22
REMARK    4  A    between atoms: O_13  and  C_14
REMARK    5  A    between atoms: C_14  and  C_15
REMARK    6  A    between atoms: C_15  and  N_18
REMARK    7  A    between atoms: O_22  and  C_23
REMARK    8  A    between atoms: C_27  and  C_35
REMARK                            x       y       z     vdW  Elec       q    Type
REMARK                         _______ _______ _______ _____ _____    ______ ____
ROOT
ATOM      1  N   UNL     1      32.124 -21.459 -19.330  0.00  0.00    -0.244 NA
ATOM      2  C   UNL     1      34.871 -22.416 -17.110  0.00  0.00    +0.174 C 
ATOM      3  C   UNL     1      35.903 -21.613 -17.576  0.00  0.00    +0.173 C 
ATOM      4  C   UNL     1      33.609 -22.353 -17.708  0.00  0.00    +0.059 C 
ATOM      5  C   UNL     1      33.352 -21.496 -18.775  0.00  0.00    +0.087 C 
ATOM      6  C   UNL     1      35.673 -20.748 -18.642  0.00  0.00    +0.045 C 
ATOM      7  C   UNL     1      34.405 -20.684 -19.245  0.00  0.00    +0.055 C 
ATOM      8  C   UNL     1      34.146 -19.821 -20.318  0.00  0.00    +0.148 C 
ATOM      9  C   UNL     1      32.883 -19.781 -20.892  0.00  0.00    +0.058 C 
ATOM     10  C   UNL     1      31.916 -20.613 -20.365  0.00  0.00    +0.102 C 
ENDROOT
BRANCH   3  11
ATOM     11  O   UNL     1      37.137 -21.664 -17.003  0.00  0.00    -0.468 OA
ATOM     12  C   UNL     1      37.548 -20.527 -16.244  0.00  0.00    +0.253 C 
ENDBRANCH   3  11
BRANCH   2  13
ATOM     13  O   UNL     1      35.072 -23.271 -16.067  0.00  0.00    -0.475 OA
BRANCH  13  14
ATOM     14  C   UNL     1      35.108 -22.702 -14.761  0.00  0.00    +0.186 C 
BRANCH  14  15
ATOM     15  C   UNL     1      36.201 -23.337 -13.971  0.00  0.00    -0.008 C 
ATOM     16  C   UNL     1      36.488 -22.761 -12.615  0.00  0.00    -0.018 C 
ATOM     17  C   UNL     1      35.803 -24.090 -12.737  0.00  0.00    -0.018 C 
BRANCH  15  18
ATOM     18  N   UNL     1      37.319 -23.838 -14.780  0.00  0.00    +0.385 N 
ATOM     19  H   UNL     1      38.158 -23.892 -14.204  0.00  0.00    -0.089 HD
ATOM     20  H   UNL     1      37.484 -23.204 -15.563  0.00  0.00    -0.089 HD
ATOM     21  H   UNL     1      37.091 -24.766 -15.138  0.00  0.00    -0.089 HD
ENDBRANCH  15  18
ENDBRANCH  14  15
ENDBRANCH  13  14
ENDBRANCH   2  13
BRANCH   8  22
ATOM     22  O   UNL     1      35.127 -18.992 -20.835  0.00  0.00    -0.453 OA
BRANCH  22  23
ATOM     23  C   UNL     1      34.732 -17.803 -21.369  0.00  0.00    +0.145 C 
ATOM     24  C   UNL     1      33.920 -15.350 -22.470  0.00  0.00    +0.005 C 
ATOM     25  C   UNL     1      34.111 -16.473 -23.309  0.00  0.00    +0.003 C 
ATOM     26  C   UNL     1      34.517 -17.693 -22.743  0.00  0.00    +0.037 C 
ATOM     27  C   UNL     1      33.514 -14.131 -23.036  0.00  0.00    +0.053 C 
ATOM     28  C   UNL     1      34.545 -16.699 -20.543  0.00  0.00    +0.037 C 
ATOM     29  C   UNL     1      34.142 -15.480 -21.089  0.00  0.00    +0.003 C 
ATOM     30  C   UNL     1      33.889 -16.344 -24.689  0.00  0.00    +0.000 C 
ATOM     31  C   UNL     1      33.299 -14.021 -24.410  0.00  0.00    +0.005 C 
ATOM     32  C   UNL     1      33.486 -15.125 -25.235  0.00  0.00    +0.000 C 
BRANCH  27  35
ATOM     33  O   UNL     1      34.090 -11.978 -22.308  0.00  0.00    -0.270 OA
ATOM     34  N   UNL     1      32.160 -12.910 -21.423  0.00  0.00    -0.299 N 
ATOM     35  C   UNL     1      33.297 -12.929 -22.235  0.00  0.00    +0.246 C 
ATOM     36  C   UNL     1      31.795 -11.786 -20.592  0.00  0.00    +0.111 C 
ATOM     37  H   UNL     1      31.577 -13.704 -21.418  0.00  0.00    +0.150 HD
ENDBRANCH  27  35
ENDBRANCH  22  23
ENDBRANCH   8  22
TORSDOF 8
ENDMDL
MODEL 3
REMARK VINA RESULT:     -11.7      5.782     13.039
REMARK  Name = 25031915
REMARK  8 active torsions:
REMARK  status: ('A' for Active; 'I' for Inactive)
REMARK    1  A    between atoms: C_2  and  O_13
REMARK    2  A    between atoms: C_3  and  O_11
REMARK    3  A    between atoms: C_8  and  O_22
REMARK    4  A    between atoms: O_13  and  C_14
REMARK    5  A    between atoms: C_14  and  C_15
REMARK    6  A    between atoms: C_15  and  N_18
REMARK    7  A    between atoms: O_22  and  C_23
REMARK    8  A    between atoms: C_27  and  C_35
REMARK                            x       y       z     vdW  Elec       q    Type
REMARK                         _______ _______ _______ _____ _____    ______ ____
ROOT
ATOM      1  N   UNL     1      30.788  -9.408 -20.519  0.00  0.00    -0.244 NA
ATOM      2  C   UNL     1      32.413  -6.526 -22.081  0.00  0.00    +0.174 C 
ATOM      3  C   UNL     1      33.116  -7.127 -23.118  0.00  0.00    +0.173 C 
ATOM      4  C   UNL     1      31.637  -7.305 -21.219  0.00  0.00    +0.059 C 
ATOM      5  C   UNL     1      31.545  -8.686 -21.368  0.00  0.00    +0.087 C 
ATOM      6  C   UNL     1      33.042  -8.506 -23.290  0.00  0.00    +0.045 C 
ATOM      7  C   UNL     1      32.262  -9.290 -22.423  0.00  0.00    +0.055 C 
ATOM      8  C   UNL     1      32.170 -10.679 -22.574  0.00  0.00    +0.148 C 
ATOM      9  C   UNL     1      31.390 -11.426 -21.701  0.00  0.00    +0.058 C 
ATOM     10  C   UNL     1      30.726 -10.748 -20.699  0.00  0.00    +0.102 C 
ENDROOT
BRANCH   3  11
ATOM     11  O   UNL     1      33.876  -6.381 -23.966  0.00  0.00    -0.468 OA
ATOM     12  C   UNL     1      33.292  -6.025 -25.219  0.00  0.00    +0.253 C 
ENDBRANCH   3  11
BRANCH   2  13
ATOM     13  O   UNL     1      32.470  -5.177 -21.893  0.00  0.00    -0.475 OA
BRANCH  13  14
ATOM     14  C   UNL     1      31.292  -4.541 -21.405  0.00  0.00    +0.186 C 
BRANCH  14  15
ATOM     15  C   UNL     1      30.811  -3.548 -22.407  0.00  0.00    -0.008 C 
ATOM     16  C   UNL     1      31.767  -3.155 -23.494  0.00  0.00    -0.018 C 
ATOM     17  C   UNL     1      30.596  -4.039 -23.808  0.00  0.00    -0.018 C 
BRANCH  15  18
ATOM     18  N   UNL     1      29.898  -2.534 -21.862  0.00  0.00    +0.385 N 
ATOM     19  H   UNL     1      28.937  -2.865 -21.938  0.00  0.00    -0.089 HD
ATOM     20  H   UNL     1      30.001  -1.666 -22.389  0.00  0.00    -0.089 HD
ATOM     21  H   UNL     1      30.124  -2.365 -20.882  0.00  0.00    -0.089 HD
ENDBRANCH  15  18
ENDBRANCH  14  15
ENDBRANCH  13  14
ENDBRANCH   2  13
BRANCH   8  22
ATOM     22  O   UNL     1      32.842 -11.346 -23.584  0.00  0.00    -0.453 OA
BRANCH  22  23
ATOM     23  C   UNL     1      33.209 -12.637 -23.354  0.00  0.00    +0.145 C 
ATOM     24  C   UNL     1      33.964 -15.300 -22.882  0.00  0.00    +0.005 C 
ATOM     25  C   UNL     1      33.348 -14.947 -24.105  0.00  0.00    +0.003 C 
ATOM     26  C   UNL     1      32.977 -13.610 -24.326  0.00  0.00    +0.037 C 
ATOM     27  C   UNL     1      34.336 -16.636 -22.660  0.00  0.00    +0.053 C 
ATOM     28  C   UNL     1      33.815 -12.984 -22.151  0.00  0.00    +0.037 C 
ATOM     29  C   UNL     1      34.190 -14.307 -21.914  0.00  0.00    +0.003 C 
ATOM     30  C   UNL     1      33.123 -15.939 -25.072  0.00  0.00    +0.000 C 
ATOM     31  C   UNL     1      34.103 -17.610 -23.632  0.00  0.00    +0.005 C 
ATOM     32  C   UNL     1      33.498 -17.262 -24.836  0.00  0.00    +0.000 C 
BRANCH  27  35
ATOM     33  O   UNL     1      34.763 -16.474 -20.361  0.00  0.00    -0.270 OA
ATOM     34  N   UNL     1      35.797 -18.204 -21.507  0.00  0.00    -0.299 N 
ATOM     35  C   UNL     1      34.975 -17.077 -21.423  0.00  0.00    +0.246 C 
ATOM     36  C   UNL     1      36.479 -18.776 -20.368  0.00  0.00    +0.111 C 
ATOM     37  H   UNL     1      35.918 -18.630 -22.387  0.00  0.00    +0.150 HD
ENDBRANCH  27  35
ENDBRANCH  22  23
ENDBRANCH   8  22
TORSDOF 8
ENDMDL
MODEL 4
REMARK VINA RESULT:     -11.7      5.647     13.224
REMARK  Name = 25031915
REMARK  8 active torsions:
REMARK  status: ('A' for Active; 'I' for Inactive)
REMARK    1  A    between atoms: C_2  and  O_13
REMARK    2  A    between atoms: C_3  and  O_11
REMARK    3  A    between atoms: C_8  and  O_22
REMARK    4  A    between atoms: O_13  and  C_14
REMARK    5  A    between atoms: C_14  and  C_15
REMARK    6  A    between atoms: C_15  and  N_18
REMARK    7  A    between atoms: O_22  and  C_23
REMARK    8  A    between atoms: C_27  and  C_35
REMARK                            x       y       z     vdW  Elec       q    Type
REMARK                         _______ _______ _______ _____ _____    ______ ____
ROOT
ATOM      1  N   UNL     1      32.171  -7.733 -19.143  0.00  0.00    -0.244 NA
ATOM      2  C   UNL     1      32.174  -6.296 -22.507  0.00  0.00    +0.174 C 
ATOM      3  C   UNL     1      31.645  -7.337 -23.259  0.00  0.00    +0.173 C 
ATOM      4  C   UNL     1      32.344  -6.444 -21.128  0.00  0.00    +0.059 C 
ATOM      5  C   UNL     1      31.994  -7.622 -20.474  0.00  0.00    +0.087 C 
ATOM      6  C   UNL     1      31.288  -8.526 -22.630  0.00  0.00    +0.045 C 
ATOM      7  C   UNL     1      31.458  -8.676 -21.243  0.00  0.00    +0.055 C 
ATOM      8  C   UNL     1      31.106  -9.862 -20.586  0.00  0.00    +0.148 C 
ATOM      9  C   UNL     1      31.287  -9.979 -19.214  0.00  0.00    +0.058 C 
ATOM     10  C   UNL     1      31.818  -8.895 -18.546  0.00  0.00    +0.102 C 
ENDROOT
BRANCH   3  11
ATOM     11  O   UNL     1      31.474  -7.207 -24.604  0.00  0.00    -0.468 OA
ATOM     12  C   UNL     1      30.139  -7.029 -25.074  0.00  0.00    +0.253 C 
ENDBRANCH   3  11
BRANCH   2  13
ATOM     13  O   UNL     1      32.531  -5.122 -23.101  0.00  0.00    -0.475 OA
BRANCH  13  14
ATOM     14  C   UNL     1      33.839  -5.053 -23.666  0.00  0.00    +0.186 C 
BRANCH  14  15
ATOM     15  C   UNL     1      33.736  -4.807 -25.132  0.00  0.00    -0.008 C 
ATOM     16  C   UNL     1      34.975  -4.332 -25.833  0.00  0.00    -0.018 C 
ATOM     17  C   UNL     1      34.491  -5.738 -26.035  0.00  0.00    -0.018 C 
BRANCH  15  18
ATOM     18  N   UNL     1      32.431  -4.295 -25.569  0.00  0.00    +0.385 N 
ATOM     19  H   UNL     1      32.569  -3.573 -26.276  0.00  0.00    -0.089 HD
ATOM     20  H   UNL     1      31.937  -3.899 -24.769  0.00  0.00    -0.089 HD
ATOM     21  H   UNL     1      31.881  -5.058 -25.965  0.00  0.00    -0.089 HD
ENDBRANCH  15  18
ENDBRANCH  14  15
ENDBRANCH  13  14
ENDBRANCH   2  13
BRANCH   8  22
ATOM     22  O   UNL     1      30.573 -10.941 -21.270  0.00  0.00    -0.453 OA
BRANCH  22  23
ATOM     23  C   UNL     1      31.413 -11.964 -21.589  0.00  0.00    +0.145 C 
ATOM     24  C   UNL     1      33.144 -14.076 -22.248  0.00  0.00    +0.005 C 
ATOM     25  C   UNL     1      32.590 -13.270 -23.271  0.00  0.00    +0.003 C 
ATOM     26  C   UNL     1      31.727 -12.218 -22.925  0.00  0.00    +0.037 C 
ATOM     27  C   UNL     1      34.008 -15.128 -22.593  0.00  0.00    +0.053 C 
ATOM     28  C   UNL     1      31.957 -12.756 -20.583  0.00  0.00    +0.037 C 
ATOM     29  C   UNL     1      32.816 -13.806 -20.908  0.00  0.00    +0.003 C 
ATOM     30  C   UNL     1      32.918 -13.539 -24.609  0.00  0.00    +0.000 C 
ATOM     31  C   UNL     1      34.322 -15.381 -23.929  0.00  0.00    +0.005 C 
ATOM     32  C   UNL     1      33.777 -14.589 -24.935  0.00  0.00    +0.000 C 
BRANCH  27  35
ATOM     33  O   UNL     1      34.432 -15.794 -20.386  0.00  0.00    -0.270 OA
ATOM     34  N   UNL     1      35.379 -17.070 -22.074  0.00  0.00    -0.299 N 
ATOM     35  C   UNL     1      34.617 -16.002 -21.595  0.00  0.00    +0.246 C 
ATOM     36  C   UNL     1      36.024 -18.035 -21.213  0.00  0.00    +0.111 C 
ATOM     37  H   UNL     1      35.481 -17.171 -23.048  0.00  0.00    +0.150 HD
ENDBRANCH  27  35
ENDBRANCH  22  23
ENDBRANCH   8  22
TORSDOF 8
ENDMDL
MODEL 5
REMARK VINA RESULT:     -11.2      1.586      2.599
REMARK  Name = 25031915
REMARK  8 active torsions:
REMARK  status: ('A' for Active; 'I' for Inactive)
REMARK    1  A    between atoms: C_2  and  O_13
REMARK    2  A    between atoms: C_3  and  O_11
REMARK    3  A    between atoms: C_8  and  O_22
REMARK    4  A    between atoms: O_13  and  C_14
REMARK    5  A    between atoms: C_14  and  C_15
REMARK    6  A    between atoms: C_15  and  N_18
REMARK    7  A    between atoms: O_22  and  C_23
REMARK    8  A    between atoms: C_27  and  C_35
REMARK                            x       y       z     vdW  Elec       q    Type
REMARK                         _______ _______ _______ _____ _____    ______ ____
ROOT
ATOM      1  N   UNL     1      32.758 -22.278 -17.677  0.00  0.00    -0.244 NA
ATOM      2  C   UNL     1      35.635 -22.842 -15.489  0.00  0.00    +0.174 C 
ATOM      3  C   UNL     1      36.636 -22.144 -16.154  0.00  0.00    +0.173 C 
ATOM      4  C   UNL     1      34.340 -22.877 -16.013  0.00  0.00    +0.059 C 
ATOM      5  C   UNL     1      34.017 -22.225 -17.200  0.00  0.00    +0.087 C 
ATOM      6  C   UNL     1      36.339 -21.483 -17.342  0.00  0.00    +0.045 C 
ATOM      7  C   UNL     1      35.037 -21.519 -17.870  0.00  0.00    +0.055 C 
ATOM      8  C   UNL     1      34.712 -20.862 -19.064  0.00  0.00    +0.148 C 
ATOM      9  C   UNL     1      33.416 -20.915 -19.559  0.00  0.00    +0.058 C 
ATOM     10  C   UNL     1      32.485 -21.631 -18.834  0.00  0.00    +0.102 C 
ENDROOT
BRANCH   3  11
ATOM     11  O   UNL     1      37.902 -22.100 -15.655  0.00  0.00    -0.468 OA
ATOM     12  C   UNL     1      38.631 -23.326 -15.625  0.00  0.00    +0.253 C 
ENDBRANCH   3  11
BRANCH   2  13
ATOM     13  O   UNL     1      35.902 -23.496 -14.324  0.00  0.00    -0.475 OA
BRANCH  13  14
ATOM     14  C   UNL     1      35.966 -22.708 -13.138  0.00  0.00    +0.186 C 
BRANCH  14  15
ATOM     15  C   UNL     1      36.591 -23.503 -12.043  0.00  0.00    -0.008 C 
ATOM     16  C   UNL     1      36.780 -24.971 -12.288  0.00  0.00    -0.018 C 
ATOM     17  C   UNL     1      37.965 -24.050 -12.295  0.00  0.00    -0.018 C 
BRANCH  15  18
ATOM     18  N   UNL     1      36.244 -23.046 -10.691  0.00  0.00    +0.385 N 
ATOM     19  H   UNL     1      37.037 -22.547 -10.288  0.00  0.00    -0.089 HD
ATOM     20  H   UNL     1      36.018 -23.853 -10.108  0.00  0.00    -0.089 HD
ATOM     21  H   UNL     1      35.438 -22.424 -10.738  0.00  0.00    -0.089 HD
ENDBRANCH  15  18
ENDBRANCH  14  15
ENDBRANCH  13  14
ENDBRANCH   2  13
BRANCH   8  22
ATOM     22  O   UNL     1      35.657 -20.147 -19.780  0.00  0.00    -0.453 OA
BRANCH  22  23
ATOM     23  C   UNL     1      35.207 -19.259 -20.709  0.00  0.00    +0.145 C 
ATOM     24  C   UNL     1      34.281 -17.428 -22.627  0.00  0.00    +0.005 C 
ATOM     25  C   UNL     1      34.162 -18.818 -22.861  0.00  0.00    +0.003 C 
ATOM     26  C   UNL     1      34.630 -19.721 -21.892  0.00  0.00    +0.037 C 
ATOM     27  C   UNL     1      33.814 -16.526 -23.596  0.00  0.00    +0.053 C 
ATOM     28  C   UNL     1      35.325 -17.892 -20.478  0.00  0.00    +0.037 C 
ATOM     29  C   UNL     1      34.866 -16.981 -21.430  0.00  0.00    +0.003 C 
ATOM     30  C   UNL     1      33.578 -19.265 -24.057  0.00  0.00    +0.000 C 
ATOM     31  C   UNL     1      33.236 -16.987 -24.779  0.00  0.00    +0.005 C 
ATOM     32  C   UNL     1      33.119 -18.355 -25.009  0.00  0.00    +0.000 C 
BRANCH  27  35
ATOM     33  O   UNL     1      34.844 -14.580 -22.788  0.00  0.00    -0.270 OA
ATOM     34  N   UNL     1      32.903 -14.310 -24.029  0.00  0.00    -0.299 N 
ATOM     35  C   UNL     1      33.903 -15.078 -23.426  0.00  0.00    +0.246 C 
ATOM     36  C   UNL     1      32.866 -12.867 -23.971  0.00  0.00    +0.111 C 
ATOM     37  H   UNL     1      32.187 -14.777 -24.518  0.00  0.00    +0.150 HD
ENDBRANCH  27  35
ENDBRANCH  22  23
ENDBRANCH   8  22
TORSDOF 8
ENDMDL
MODEL 6
REMARK VINA RESULT:     -10.9      2.071      9.846
REMARK  Name = 25031915
REMARK  8 active torsions:
REMARK  status: ('A' for Active; 'I' for Inactive)
REMARK    1  A    between atoms: C_2  and  O_13
REMARK    2  A    between atoms: C_3  and  O_11
REMARK    3  A    between atoms: C_8  and  O_22
REMARK    4  A    between atoms: O_13  and  C_14
REMARK    5  A    between atoms: C_14  and  C_15
REMARK    6  A    between atoms: C_15  and  N_18
REMARK    7  A    between atoms: O_22  and  C_23
REMARK    8  A    between atoms: C_27  and  C_35
REMARK                            x       y       z     vdW  Elec       q    Type
REMARK                         _______ _______ _______ _____ _____    ______ ____
ROOT
ATOM      1  N   UNL     1      33.244 -17.978 -24.967  0.00  0.00    -0.244 NA
ATOM      2  C   UNL     1      33.334 -14.565 -23.651  0.00  0.00    +0.174 C 
ATOM      3  C   UNL     1      34.159 -14.712 -22.543  0.00  0.00    +0.173 C 
ATOM      4  C   UNL     1      33.037 -15.670 -24.454  0.00  0.00    +0.059 C 
ATOM      5  C   UNL     1      33.550 -16.934 -24.173  0.00  0.00    +0.087 C 
ATOM      6  C   UNL     1      34.684 -15.965 -22.239  0.00  0.00    +0.045 C 
ATOM      7  C   UNL     1      34.386 -17.076 -23.046  0.00  0.00    +0.055 C 
ATOM      8  C   UNL     1      34.902 -18.347 -22.762  0.00  0.00    +0.148 C 
ATOM      9  C   UNL     1      34.589 -19.425 -23.578  0.00  0.00    +0.058 C 
ATOM     10  C   UNL     1      33.763 -19.189 -24.658  0.00  0.00    +0.102 C 
ENDROOT
BRANCH   3  11
ATOM     11  O   UNL     1      34.457 -13.645 -21.752  0.00  0.00    -0.468 OA
ATOM     12  C   UNL     1      33.900 -13.634 -20.438  0.00  0.00    +0.253 C 
ENDBRANCH   3  11
BRANCH   2  13
ATOM     13  O   UNL     1      32.808 -13.349 -23.969  0.00  0.00    -0.475 OA
BRANCH  13  14
ATOM     14  C   UNL     1      31.819 -12.821 -23.089  0.00  0.00    +0.186 C 
BRANCH  14  15
ATOM     15  C   UNL     1      32.199 -11.438 -22.684  0.00  0.00    -0.008 C 
ATOM     16  C   UNL     1      31.089 -10.440 -22.537  0.00  0.00    -0.018 C 
ATOM     17  C   UNL     1      31.773 -10.985 -21.319  0.00  0.00    -0.018 C 
BRANCH  15  18
ATOM     18  N   UNL     1      33.494 -10.989 -23.211  0.00  0.00    +0.385 N 
ATOM     19  H   UNL     1      33.376 -10.665 -24.171  0.00  0.00    -0.089 HD
ATOM     20  H   UNL     1      34.156 -11.765 -23.192  0.00  0.00    -0.089 HD
ATOM     21  H   UNL     1      33.849 -10.225 -22.635  0.00  0.00    -0.089 HD
ENDBRANCH  15  18
ENDBRANCH  14  15
ENDBRANCH  13  14
ENDBRANCH   2  13
BRANCH   8  22
ATOM     22  O   UNL     1      35.730 -18.568 -21.675  0.00  0.00    -0.453 OA
BRANCH  22  23
ATOM     23  C   UNL     1      35.276 -19.394 -20.692  0.00  0.00    +0.145 C 
ATOM     24  C   UNL     1      34.339 -21.096 -18.664  0.00  0.00    +0.005 C 
ATOM     25  C   UNL     1      33.422 -20.465 -19.537  0.00  0.00    +0.003 C 
ATOM     26  C   UNL     1      33.906 -19.617 -20.546  0.00  0.00    +0.037 C 
ATOM     27  C   UNL     1      33.854 -21.944 -17.655  0.00  0.00    +0.053 C 
ATOM     28  C   UNL     1      36.178 -20.014 -19.833  0.00  0.00    +0.037 C 
ATOM     29  C   UNL     1      35.714 -20.860 -18.825  0.00  0.00    +0.003 C 
ATOM     30  C   UNL     1      32.047 -20.701 -19.377  0.00  0.00    +0.000 C 
ATOM     31  C   UNL     1      32.484 -22.167 -17.509  0.00  0.00    +0.005 C 
ATOM     32  C   UNL     1      31.583 -21.546 -18.369  0.00  0.00    +0.000 C 
BRANCH  27  35
ATOM     33  O   UNL     1      34.419 -23.734 -16.250  0.00  0.00    -0.270 OA
ATOM     34  N   UNL     1      35.941 -21.992 -16.404  0.00  0.00    -0.299 N 
ATOM     35  C   UNL     1      34.738 -22.630 -16.716  0.00  0.00    +0.246 C 
ATOM     36  C   UNL     1      36.930 -22.553 -15.512  0.00  0.00    +0.111 C 
ATOM     37  H   UNL     1      36.125 -21.115 -16.814  0.00  0.00    +0.150 HD
ENDBRANCH  27  35
ENDBRANCH  22  23
ENDBRANCH   8  22
TORSDOF 8
ENDMDL
MODEL 7
REMARK VINA RESULT:     -10.9      6.105     10.421
REMARK  Name = 25031915
REMARK  8 active torsions:
REMARK  status: ('A' for Active; 'I' for Inactive)
REMARK    1  A    between atoms: C_2  and  O_13
REMARK    2  A    between atoms: C_3  and  O_11
REMARK    3  A    between atoms: C_8  and  O_22
REMARK    4  A    between atoms: O_13  and  C_14
REMARK    5  A    between atoms: C_14  and  C_15
REMARK    6  A    between atoms: C_15  and  N_18
REMARK    7  A    between atoms: O_22  and  C_23
REMARK    8  A    between atoms: C_27  and  C_35
REMARK                            x       y       z     vdW  Elec       q    Type
REMARK                         _______ _______ _______ _____ _____    ______ ____
ROOT
ATOM      1  N   UNL     1      32.363 -11.979 -19.714  0.00  0.00    -0.244 NA
ATOM      2  C   UNL     1      33.586 -14.016 -22.496  0.00  0.00    +0.174 C 
ATOM      3  C   UNL     1      33.002 -13.384 -23.586  0.00  0.00    +0.173 C 
ATOM      4  C   UNL     1      33.361 -13.533 -21.204  0.00  0.00    +0.059 C 
ATOM      5  C   UNL     1      32.558 -12.420 -20.972  0.00  0.00    +0.087 C 
ATOM      6  C   UNL     1      32.194 -12.269 -23.382  0.00  0.00    +0.045 C 
ATOM      7  C   UNL     1      31.968 -11.783 -22.083  0.00  0.00    +0.055 C 
ATOM      8  C   UNL     1      31.160 -10.662 -21.850  0.00  0.00    +0.148 C 
ATOM      9  C   UNL     1      30.956 -10.206 -20.555  0.00  0.00    +0.058 C 
ATOM     10  C   UNL     1      31.575 -10.894 -19.531  0.00  0.00    +0.102 C 
ENDROOT
BRANCH   3  11
ATOM     11  O   UNL     1      33.212 -13.843 -24.851  0.00  0.00    -0.468 OA
ATOM     12  C   UNL     1      32.676 -13.066 -25.921  0.00  0.00    +0.253 C 
ENDBRANCH   3  11
BRANCH   2  13
ATOM     13  O   UNL     1      34.381 -15.109 -22.671  0.00  0.00    -0.475 OA
BRANCH  13  14
ATOM     14  C   UNL     1      34.503 -16.005 -21.569  0.00  0.00    +0.186 C 
BRANCH  14  15
ATOM     15  C   UNL     1      34.759 -17.384 -22.073  0.00  0.00    -0.008 C 
ATOM     16  C   UNL     1      36.081 -18.003 -21.728  0.00  0.00    -0.018 C 
ATOM     17  C   UNL     1      34.829 -18.482 -21.054  0.00  0.00    -0.018 C 
BRANCH  15  18
ATOM     18  N   UNL     1      34.161 -17.668 -23.384  0.00  0.00    +0.385 N 
ATOM     19  H   UNL     1      34.266 -18.660 -23.597  0.00  0.00    -0.089 HD
ATOM     20  H   UNL     1      34.633 -17.115 -24.100  0.00  0.00    -0.089 HD
ATOM     21  H   UNL     1      33.170 -17.427 -23.366  0.00  0.00    -0.089 HD
ENDBRANCH  15  18
ENDBRANCH  14  15
ENDBRANCH  13  14
ENDBRANCH   2  13
BRANCH   8  22
ATOM     22  O   UNL     1      30.546  -9.982 -22.888  0.00  0.00    -0.453 OA
BRANCH  22  23
ATOM     23  C   UNL     1      30.864  -8.669 -23.058  0.00  0.00    +0.145 C 
ATOM     24  C   UNL     1      31.521  -5.960 -23.408  0.00  0.00    +0.005 C 
ATOM     25  C   UNL     1      32.517  -6.954 -23.554  0.00  0.00    +0.003 C 
ATOM     26  C   UNL     1      32.173  -8.304 -23.376  0.00  0.00    +0.037 C 
ATOM     27  C   UNL     1      31.865  -4.611 -23.586  0.00  0.00    +0.053 C 
ATOM     28  C   UNL     1      29.884  -7.692 -22.913  0.00  0.00    +0.037 C 
ATOM     29  C   UNL     1      30.209  -6.346 -23.086  0.00  0.00    +0.003 C 
ATOM     30  C   UNL     1      33.829  -6.569 -23.876  0.00  0.00    +0.000 C 
ATOM     31  C   UNL     1      33.174  -4.246 -23.904  0.00  0.00    +0.005 C 
ATOM     32  C   UNL     1      34.153  -5.224 -24.049  0.00  0.00    +0.000 C 
BRANCH  27  35
ATOM     33  O   UNL     1      30.132  -3.251 -24.390  0.00  0.00    -0.270 OA
ATOM     34  N   UNL     1      30.859  -2.864 -22.222  0.00  0.00    -0.299 N 
ATOM     35  C   UNL     1      30.893  -3.529 -23.450  0.00  0.00    +0.246 C 
ATOM     36  C   UNL     1      29.938  -1.790 -21.926  0.00  0.00    +0.111 C 
ATOM     37  H   UNL     1      31.495  -3.141 -21.523  0.00  0.00    +0.150 HD
ENDBRANCH  27  35
ENDBRANCH  22  23
ENDBRANCH   8  22
TORSDOF 8
ENDMDL
MODEL 8
REMARK VINA RESULT:     -10.6      4.793      8.603
REMARK  Name = 25031915
REMARK  8 active torsions:
REMARK  status: ('A' for Active; 'I' for Inactive)
REMARK    1  A    between atoms: C_2  and  O_13
REMARK    2  A    between atoms: C_3  and  O_11
REMARK    3  A    between atoms: C_8  and  O_22
REMARK    4  A    between atoms: O_13  and  C_14
REMARK    5  A    between atoms: C_14  and  C_15
REMARK    6  A    between atoms: C_15  and  N_18
REMARK    7  A    between atoms: O_22  and  C_23
REMARK    8  A    between atoms: C_27  and  C_35
REMARK                            x       y       z     vdW  Elec       q    Type
REMARK                         _______ _______ _______ _____ _____    ______ ____
ROOT
ATOM      1  N   UNL     1      33.213 -14.300 -25.827  0.00  0.00    -0.244 NA
ATOM      2  C   UNL     1      34.528 -16.316 -23.072  0.00  0.00    +0.174 C 
ATOM      3  C   UNL     1      34.199 -15.536 -21.970  0.00  0.00    +0.173 C 
ATOM      4  C   UNL     1      34.190 -15.887 -24.358  0.00  0.00    +0.059 C 
ATOM      5  C   UNL     1      33.524 -14.684 -24.574  0.00  0.00    +0.087 C 
ATOM      6  C   UNL     1      33.533 -14.328 -22.158  0.00  0.00    +0.045 C 
ATOM      7  C   UNL     1      33.193 -13.897 -23.451  0.00  0.00    +0.055 C 
ATOM      8  C   UNL     1      32.523 -12.685 -23.667  0.00  0.00    +0.148 C 
ATOM      9  C   UNL     1      32.201 -12.287 -24.957  0.00  0.00    +0.058 C 
ATOM     10  C   UNL     1      32.565 -13.123 -25.993  0.00  0.00    +0.102 C 
ENDROOT
BRANCH   3  11
ATOM     11  O   UNL     1      34.521 -15.941 -20.711  0.00  0.00    -0.468 OA
ATOM     12  C   UNL     1      33.836 -15.309 -19.630  0.00  0.00    +0.253 C 
ENDBRANCH   3  11
BRANCH   2  13
ATOM     13  O   UNL     1      35.179 -17.502 -22.913  0.00  0.00    -0.475 OA
BRANCH  13  14
ATOM     14  C   UNL     1      34.384 -18.640 -22.589  0.00  0.00    +0.186 C 
BRANCH  14  15
ATOM     15  C   UNL     1      34.747 -19.130 -21.229  0.00  0.00    -0.008 C 
ATOM     16  C   UNL     1      33.625 -19.598 -20.350  0.00  0.00    -0.018 C 
ATOM     17  C   UNL     1      34.566 -20.595 -20.960  0.00  0.00    -0.018 C 
BRANCH  15  18
ATOM     18  N   UNL     1      35.884 -18.430 -20.618  0.00  0.00    +0.385 N 
ATOM     19  H   UNL     1      36.079 -18.834 -19.702  0.00  0.00    -0.089 HD
ATOM     20  H   UNL     1      35.658 -17.441 -20.513  0.00  0.00    -0.089 HD
ATOM     21  H   UNL     1      36.705 -18.530 -21.215  0.00  0.00    -0.089 HD
ENDBRANCH  15  18
ENDBRANCH  14  15
ENDBRANCH  13  14
ENDBRANCH   2  13
BRANCH   8  22
ATOM     22  O   UNL     1      32.164 -11.858 -22.618  0.00  0.00    -0.453 OA
BRANCH  22  23
ATOM     23  C   UNL     1      32.221 -10.513 -22.825  0.00  0.00    +0.145 C 
ATOM     24  C   UNL     1      32.339  -7.739 -23.251  0.00  0.00    +0.005 C 
ATOM     25  C   UNL     1      33.482  -8.540 -23.485  0.00  0.00    +0.003 C 
ATOM     26  C   UNL     1      33.406  -9.926 -23.267  0.00  0.00    +0.037 C 
ATOM     27  C   UNL     1      32.415  -6.354 -23.469  0.00  0.00    +0.053 C 
ATOM     28  C   UNL     1      31.097  -9.726 -22.594  0.00  0.00    +0.037 C 
ATOM     29  C   UNL     1      31.154  -8.348 -22.805  0.00  0.00    +0.003 C 
ATOM     30  C   UNL     1      34.667  -7.933 -23.931  0.00  0.00    +0.000 C 
ATOM     31  C   UNL     1      33.601  -5.767 -23.911  0.00  0.00    +0.005 C 
ATOM     32  C   UNL     1      34.724  -6.555 -24.141  0.00  0.00    +0.000 C 
BRANCH  27  35
ATOM     33  O   UNL     1      30.486  -5.221 -24.172  0.00  0.00    -0.270 OA
ATOM     34  N   UNL     1      31.132  -4.936 -21.963  0.00  0.00    -0.299 N 
ATOM     35  C   UNL     1      31.279  -5.463 -23.249  0.00  0.00    +0.246 C 
ATOM     36  C   UNL     1      30.047  -4.060 -21.583  0.00  0.00    +0.111 C 
ATOM     37  H   UNL     1      31.803  -5.173 -21.282  0.00  0.00    +0.150 HD
ENDBRANCH  27  35
ENDBRANCH  22  23
ENDBRANCH   8  22
TORSDOF 8
ENDMDL
MODEL 9
REMARK VINA RESULT:     -10.4      4.673      8.519
REMARK  Name = 25031915
REMARK  8 active torsions:
REMARK  status: ('A' for Active; 'I' for Inactive)
REMARK    1  A    between atoms: C_2  and  O_13
REMARK    2  A    between atoms: C_3  and  O_11
REMARK    3  A    between atoms: C_8  and  O_22
REMARK    4  A    between atoms: O_13  and  C_14
REMARK    5  A    between atoms: C_14  and  C_15
REMARK    6  A    between atoms: C_15  and  N_18
REMARK    7  A    between atoms: O_22  and  C_23
REMARK    8  A    between atoms: C_27  and  C_35
REMARK                            x       y       z     vdW  Elec       q    Type
REMARK                         _______ _______ _______ _____ _____    ______ ____
ROOT
ATOM      1  N   UNL     1      33.217 -14.383 -25.879  0.00  0.00    -0.244 NA
ATOM      2  C   UNL     1      34.473 -16.377 -23.081  0.00  0.00    +0.174 C 
ATOM      3  C   UNL     1      34.253 -15.525 -22.007  0.00  0.00    +0.173 C 
ATOM      4  C   UNL     1      34.121 -15.979 -24.374  0.00  0.00    +0.059 C 
ATOM      5  C   UNL     1      33.546 -14.736 -24.621  0.00  0.00    +0.087 C 
ATOM      6  C   UNL     1      33.680 -14.276 -22.227  0.00  0.00    +0.045 C 
ATOM      7  C   UNL     1      33.325 -13.875 -23.526  0.00  0.00    +0.055 C 
ATOM      8  C   UNL     1      32.746 -12.624 -23.775  0.00  0.00    +0.148 C 
ATOM      9  C   UNL     1      32.406 -12.257 -25.070  0.00  0.00    +0.058 C 
ATOM     10  C   UNL     1      32.660 -13.165 -26.077  0.00  0.00    +0.102 C 
ENDROOT
BRANCH   3  11
ATOM     11  O   UNL     1      34.591 -15.899 -20.742  0.00  0.00    -0.468 OA
ATOM     12  C   UNL     1      33.869 -15.294 -19.671  0.00  0.00    +0.253 C 
ENDBRANCH   3  11
BRANCH   2  13
ATOM     13  O   UNL     1      35.033 -17.605 -22.890  0.00  0.00    -0.475 OA
BRANCH  13  14
ATOM     14  C   UNL     1      34.161 -18.659 -22.489  0.00  0.00    +0.186 C 
BRANCH  14  15
ATOM     15  C   UNL     1      34.581 -19.173 -21.155  0.00  0.00    -0.008 C 
ATOM     16  C   UNL     1      33.497 -19.659 -20.238  0.00  0.00    -0.018 C 
ATOM     17  C   UNL     1      34.413 -20.642 -20.905  0.00  0.00    -0.018 C 
BRANCH  15  18
ATOM     18  N   UNL     1      35.742 -18.482 -20.579  0.00  0.00    +0.385 N 
ATOM     19  H   UNL     1      35.443 -17.596 -20.172  0.00  0.00    -0.089 HD
ATOM     20  H   UNL     1      36.429 -18.304 -21.312  0.00  0.00    -0.089 HD
ATOM     21  H   UNL     1      36.161 -19.065 -19.855  0.00  0.00    -0.089 HD
ENDBRANCH  15  18
ENDBRANCH  14  15
ENDBRANCH  13  14
ENDBRANCH   2  13
BRANCH   8  22
ATOM     22  O   UNL     1      32.497 -11.724 -22.753  0.00  0.00    -0.453 OA
BRANCH  22  23
ATOM     23  C   UNL     1      32.517 -10.397 -23.060  0.00  0.00    +0.145 C 
ATOM     24  C   UNL     1      32.559  -7.661 -23.694  0.00  0.00    +0.005 C 
ATOM     25  C   UNL     1      31.372  -8.256 -23.203  0.00  0.00    +0.003 C 
ATOM     26  C   UNL     1      31.368  -9.625 -22.890  0.00  0.00    +0.037 C 
ATOM     27  C   UNL     1      32.563  -6.292 -24.007  0.00  0.00    +0.053 C 
ATOM     28  C   UNL     1      33.684  -9.814 -23.544  0.00  0.00    +0.037 C 
ATOM     29  C   UNL     1      33.706  -8.455 -23.860  0.00  0.00    +0.003 C 
ATOM     30  C   UNL     1      30.225  -7.463 -23.037  0.00  0.00    +0.000 C 
ATOM     31  C   UNL     1      31.413  -5.520 -23.837  0.00  0.00    +0.005 C 
ATOM     32  C   UNL     1      30.247  -6.104 -23.353  0.00  0.00    +0.000 C 
BRANCH  27  35
ATOM     33  O   UNL     1      34.482  -4.970 -23.751  0.00  0.00    -0.270 OA
ATOM     34  N   UNL     1      34.007  -5.739 -25.886  0.00  0.00    -0.299 N 
ATOM     35  C   UNL     1      33.748  -5.609 -24.520  0.00  0.00    +0.246 C 
ATOM     36  C   UNL     1      35.151  -5.143 -26.537  0.00  0.00    +0.111 C 
ATOM     37  H   UNL     1      33.377  -6.262 -26.434  0.00  0.00    +0.150 HD
ENDBRANCH  27  35
ENDBRANCH  22  23
ENDBRANCH   8  22
TORSDOF 8
ENDMDL
