MODEL 1
REMARK VINA RESULT:     -11.6      0.000      0.000
REMARK  Name = 5489638
REMARK  7 active torsions:
REMARK  status: ('A' for Active; 'I' for Inactive)
REMARK    1  A    between atoms: C_1  and  N_2
REMARK    2  A    between atoms: C_1  and  C_16
REMARK    3  A    between atoms: N_2  and  C_5
REMARK    4  A    between atoms: C_5  and  C_7
REMARK    5  A    between atoms: C_7  and  C_8
REMARK    6  A    between atoms: C_7  and  O_14
REMARK    7  A    between atoms: C_16  and  N_19
REMARK                            x       y       z     vdW  Elec       q    Type
REMARK                         _______ _______ _______ _____ _____    ______ ____
ROOT
ATOM      1  C   UNL     1      35.200 -21.274 -19.285  0.00  0.00    -0.064 C 
ENDROOT
BRANCH   1   2
ATOM      2  N   UNL     1      35.712 -20.017 -19.819  0.00  0.00    +0.388 N 
ATOM      3  H   UNL     1      35.662 -19.301 -19.095  0.00  0.00    -0.084 HD
ATOM      4  H   UNL     1      36.678 -20.159 -20.115  0.00  0.00    -0.084 HD
BRANCH   2   5
ATOM      5  C   UNL     1      34.931 -19.585 -20.971  0.00  0.00    -0.030 C 
ATOM      6  C   UNL     1      33.459 -19.558 -20.559  0.00  0.00    -0.021 C 
BRANCH   5   7
ATOM      7  C   UNL     1      35.440 -18.209 -21.454  0.00  0.00    +0.113 C 
BRANCH   7   8
ATOM      8  C   UNL     1      34.678 -17.663 -22.643  0.00  0.00    +0.002 C 
ATOM      9  C   UNL     1      33.996 -18.542 -23.468  0.00  0.00    -0.002 C 
ATOM     10  C   UNL     1      34.680 -16.300 -22.879  0.00  0.00    -0.002 C 
ATOM     11  C   UNL     1      33.294 -18.040 -24.564  0.00  0.00    -0.000 C 
ATOM     12  C   UNL     1      33.978 -15.798 -23.976  0.00  0.00    -0.000 C 
ATOM     13  C   UNL     1      33.285 -16.668 -24.818  0.00  0.00    -0.000 C 
ENDBRANCH   7   8
BRANCH   7  14
ATOM     14  O   UNL     1      35.313 -17.244 -20.406  0.00  0.00    -0.382 OA
ATOM     15  H   UNL     1      35.656 -16.389 -20.709  0.00  0.00    +0.211 HD
ENDBRANCH   7  14
ENDBRANCH   5   7
ENDBRANCH   2   5
ENDBRANCH   1   2
BRANCH   1  16
ATOM     16  C   UNL     1      35.741 -21.505 -17.877  0.00  0.00    +0.051 C 
BRANCH  16  19
ATOM     17  O   UNL     1      37.132 -21.937 -15.204  0.00  0.00    -0.272 OA
ATOM     18  O   UNL     1      34.404 -23.995 -11.988  0.00  0.00    -0.252 OA
ATOM     19  N   UNL     1      34.765 -22.138 -17.022  0.00  0.00    -0.242 NA
ATOM     20  N   UNL     1      33.502 -23.586 -14.093  0.00  0.00    -0.228 N 
ATOM     21  N   UNL     1      35.785 -22.966 -13.577  0.00  0.00    -0.211 N 
ATOM     22  N   UNL     1      32.822 -23.032 -16.394  0.00  0.00    -0.240 NA
ATOM     23  C   UNL     1      34.926 -22.527 -15.723  0.00  0.00    +0.192 C 
ATOM     24  C   UNL     1      33.723 -23.072 -15.364  0.00  0.00    +0.136 C 
ATOM     25  C   UNL     1      33.483 -22.463 -17.381  0.00  0.00    +0.203 C 
ATOM     26  C   UNL     1      36.060 -22.428 -14.862  0.00  0.00    +0.254 C 
ATOM     27  C   UNL     1      34.544 -23.551 -13.134  0.00  0.00    +0.318 C 
ATOM     28  C   UNL     1      32.202 -24.155 -13.757  0.00  0.00    +0.123 C 
ATOM     29  C   UNL     1      36.871 -22.923 -12.604  0.00  0.00    +0.124 C 
ENDBRANCH  16  19
ENDBRANCH   1  16
TORSDOF 7
ENDMDL
MODEL 2
REMARK VINA RESULT:     -11.4      3.597      9.977
REMARK  Name = 5489638
REMARK  7 active torsions:
REMARK  status: ('A' for Active; 'I' for Inactive)
REMARK    1  A    between atoms: C_1  and  N_2
REMARK    2  A    between atoms: C_1  and  C_16
REMARK    3  A    between atoms: N_2  and  C_5
REMARK    4  A    between atoms: C_5  and  C_7
REMARK    5  A    between atoms: C_7  and  C_8
REMARK    6  A    between atoms: C_7  and  O_14
REMARK    7  A    between atoms: C_16  and  N_19
REMARK                            x       y       z     vdW  Elec       q    Type
REMARK                         _______ _______ _______ _____ _____    ______ ____
ROOT
ATOM      1  C   UNL     1      33.973 -18.840 -21.704  0.00  0.00    -0.064 C 
ENDROOT
BRANCH   1   2
ATOM      2  N   UNL     1      34.655 -19.889 -20.957  0.00  0.00    +0.388 N 
ATOM      3  H   UNL     1      34.798 -20.695 -21.565  0.00  0.00    -0.084 HD
ATOM      4  H   UNL     1      35.551 -19.526 -20.630  0.00  0.00    -0.084 HD
BRANCH   2   5
ATOM      5  C   UNL     1      33.871 -20.298 -19.800  0.00  0.00    -0.030 C 
ATOM      6  C   UNL     1      32.391 -20.204 -20.176  0.00  0.00    -0.021 C 
BRANCH   5   7
ATOM      7  C   UNL     1      34.286 -21.723 -19.369  0.00  0.00    +0.113 C 
BRANCH   7   8
ATOM      8  C   UNL     1      34.931 -21.780 -18.001  0.00  0.00    +0.002 C 
ATOM      9  C   UNL     1      36.183 -21.216 -17.821  0.00  0.00    -0.002 C 
ATOM     10  C   UNL     1      34.256 -22.395 -16.961  0.00  0.00    -0.002 C 
ATOM     11  C   UNL     1      36.778 -21.269 -16.561  0.00  0.00    -0.000 C 
ATOM     12  C   UNL     1      34.852 -22.448 -15.701  0.00  0.00    -0.000 C 
ATOM     13  C   UNL     1      36.113 -21.885 -15.501  0.00  0.00    -0.000 C 
ENDBRANCH   7   8
BRANCH   7  14
ATOM     14  O   UNL     1      33.137 -22.573 -19.319  0.00  0.00    -0.382 OA
ATOM     15  H   UNL     1      33.342 -23.364 -18.797  0.00  0.00    +0.211 HD
ENDBRANCH   7  14
ENDBRANCH   5   7
ENDBRANCH   2   5
ENDBRANCH   1   2
BRANCH   1  16
ATOM     16  C   UNL     1      34.918 -17.667 -21.944  0.00  0.00    +0.051 C 
BRANCH  16  19
ATOM     17  O   UNL     1      34.212 -15.089 -20.487  0.00  0.00    -0.272 OA
ATOM     18  O   UNL     1      32.498 -11.755 -23.307  0.00  0.00    -0.252 OA
ATOM     19  N   UNL     1      34.414 -16.766 -22.955  0.00  0.00    -0.242 NA
ATOM     20  N   UNL     1      33.092 -13.795 -24.255  0.00  0.00    -0.228 N 
ATOM     21  N   UNL     1      33.352 -13.404 -21.878  0.00  0.00    -0.211 N 
ATOM     22  N   UNL     1      33.802 -16.040 -24.972  0.00  0.00    -0.240 NA
ATOM     23  C   UNL     1      33.971 -15.487 -22.781  0.00  0.00    +0.192 C 
ATOM     24  C   UNL     1      33.602 -15.066 -24.030  0.00  0.00    +0.136 C 
ATOM     25  C   UNL     1      34.293 -17.054 -24.290  0.00  0.00    +0.203 C 
ATOM     26  C   UNL     1      33.877 -14.693 -21.599  0.00  0.00    +0.254 C 
ATOM     27  C   UNL     1      32.946 -12.898 -23.167  0.00  0.00    +0.318 C 
ATOM     28  C   UNL     1      32.713 -13.392 -25.603  0.00  0.00    +0.123 C 
ATOM     29  C   UNL     1      33.207 -12.497 -20.745  0.00  0.00    +0.124 C 
ENDBRANCH  16  19
ENDBRANCH   1  16
TORSDOF 7
ENDMDL
MODEL 3
REMARK VINA RESULT:     -11.4      3.744      9.947
REMARK  Name = 5489638
REMARK  7 active torsions:
REMARK  status: ('A' for Active; 'I' for Inactive)
REMARK    1  A    between atoms: C_1  and  N_2
REMARK    2  A    between atoms: C_1  and  C_16
REMARK    3  A    between atoms: N_2  and  C_5
REMARK    4  A    between atoms: C_5  and  C_7
REMARK    5  A    between atoms: C_7  and  C_8
REMARK    6  A    between atoms: C_7  and  O_14
REMARK    7  A    between atoms: C_16  and  N_19
REMARK                            x       y       z     vdW  Elec       q    Type
REMARK                         _______ _______ _______ _____ _____    ______ ____
ROOT
ATOM      1  C   UNL     1      34.064 -19.174 -22.113  0.00  0.00    -0.064 C 
ENDROOT
BRANCH   1   2
ATOM      2  N   UNL     1      34.844 -19.837 -21.075  0.00  0.00    +0.388 N 
ATOM      3  H   UNL     1      35.266 -20.681 -21.461  0.00  0.00    -0.084 HD
ATOM      4  H   UNL     1      35.566 -19.194 -20.749  0.00  0.00    -0.084 HD
BRANCH   2   5
ATOM      5  C   UNL     1      34.001 -20.201 -19.943  0.00  0.00    -0.030 C 
ATOM      6  C   UNL     1      32.542 -20.024 -20.366  0.00  0.00    -0.021 C 
BRANCH   5   7
ATOM      7  C   UNL     1      34.321 -21.646 -19.503  0.00  0.00    +0.113 C 
BRANCH   7   8
ATOM      8  C   UNL     1      34.922 -21.739 -18.116  0.00  0.00    +0.002 C 
ATOM      9  C   UNL     1      34.194 -22.344 -17.105  0.00  0.00    -0.002 C 
ATOM     10  C   UNL     1      36.184 -21.220 -17.890  0.00  0.00    -0.002 C 
ATOM     11  C   UNL     1      34.746 -22.430 -15.827  0.00  0.00    -0.000 C 
ATOM     12  C   UNL     1      36.737 -21.306 -16.612  0.00  0.00    -0.000 C 
ATOM     13  C   UNL     1      36.018 -21.911 -15.580  0.00  0.00    -0.000 C 
ENDBRANCH   7   8
BRANCH   7  14
ATOM     14  O   UNL     1      33.125 -22.430 -19.487  0.00  0.00    -0.382 OA
ATOM     15  H   UNL     1      33.316 -23.305 -19.114  0.00  0.00    +0.211 HD
ENDBRANCH   7  14
ENDBRANCH   5   7
ENDBRANCH   2   5
ENDBRANCH   1   2
BRANCH   1  16
ATOM     16  C   UNL     1      34.869 -18.031 -22.725  0.00  0.00    +0.051 C 
BRANCH  16  19
ATOM     17  O   UNL     1      33.942 -16.304 -25.053  0.00  0.00    -0.272 OA
ATOM     18  O   UNL     1      32.642 -11.981 -23.775  0.00  0.00    -0.252 OA
ATOM     19  N   UNL     1      34.512 -16.754 -22.152  0.00  0.00    -0.242 NA
ATOM     20  N   UNL     1      33.380 -13.440 -22.119  0.00  0.00    -0.228 N 
ATOM     21  N   UNL     1      33.285 -14.134 -24.438  0.00  0.00    -0.211 N 
ATOM     22  N   UNL     1      34.199 -15.190 -20.595  0.00  0.00    -0.240 NA
ATOM     23  C   UNL     1      34.039 -15.653 -22.806  0.00  0.00    +0.192 C 
ATOM     24  C   UNL     1      33.857 -14.711 -21.831  0.00  0.00    +0.136 C 
ATOM     25  C   UNL     1      34.591 -16.426 -20.823  0.00  0.00    +0.203 C 
ATOM     26  C   UNL     1      33.770 -15.447 -24.193  0.00  0.00    +0.254 C 
ATOM     27  C   UNL     1      33.069 -13.097 -23.459  0.00  0.00    +0.318 C 
ATOM     28  C   UNL     1      33.202 -12.470 -21.045  0.00  0.00    +0.123 C 
ATOM     29  C   UNL     1      32.973 -13.801 -25.823  0.00  0.00    +0.124 C 
ENDBRANCH  16  19
ENDBRANCH   1  16
TORSDOF 7
ENDMDL
MODEL 4
REMARK VINA RESULT:     -11.3      2.072      3.324
REMARK  Name = 5489638
REMARK  7 active torsions:
REMARK  status: ('A' for Active; 'I' for Inactive)
REMARK    1  A    between atoms: C_1  and  N_2
REMARK    2  A    between atoms: C_1  and  C_16
REMARK    3  A    between atoms: N_2  and  C_5
REMARK    4  A    between atoms: C_5  and  C_7
REMARK    5  A    between atoms: C_7  and  C_8
REMARK    6  A    between atoms: C_7  and  O_14
REMARK    7  A    between atoms: C_16  and  N_19
REMARK                            x       y       z     vdW  Elec       q    Type
REMARK                         _______ _______ _______ _____ _____    ______ ____
ROOT
ATOM      1  C   UNL     1      35.324 -20.078 -20.007  0.00  0.00    -0.064 C 
ENDROOT
BRANCH   1   2
ATOM      2  N   UNL     1      34.423 -19.112 -20.624  0.00  0.00    +0.388 N 
ATOM      3  H   UNL     1      33.996 -19.531 -21.449  0.00  0.00    -0.084 HD
ATOM      4  H   UNL     1      33.707 -18.854 -19.944  0.00  0.00    -0.084 HD
BRANCH   2   5
ATOM      5  C   UNL     1      35.143 -17.909 -21.019  0.00  0.00    -0.030 C 
ATOM      6  C   UNL     1      36.592 -18.300 -21.308  0.00  0.00    -0.021 C 
BRANCH   5   7
ATOM      7  C   UNL     1      34.446 -17.265 -22.239  0.00  0.00    +0.113 C 
BRANCH   7   8
ATOM      8  C   UNL     1      34.191 -15.782 -22.080  0.00  0.00    +0.002 C 
ATOM      9  C   UNL     1      34.043 -15.255 -20.807  0.00  0.00    -0.002 C 
ATOM     10  C   UNL     1      34.111 -14.985 -23.208  0.00  0.00    -0.002 C 
ATOM     11  C   UNL     1      33.807 -13.888 -20.660  0.00  0.00    -0.000 C 
ATOM     12  C   UNL     1      33.876 -13.618 -23.061  0.00  0.00    -0.000 C 
ATOM     13  C   UNL     1      33.724 -13.069 -21.787  0.00  0.00    -0.000 C 
ENDBRANCH   7   8
BRANCH   7  14
ATOM     14  O   UNL     1      35.258 -17.421 -23.405  0.00  0.00    -0.382 OA
ATOM     15  H   UNL     1      36.180 -17.571 -23.140  0.00  0.00    +0.211 HD
ENDBRANCH   7  14
ENDBRANCH   5   7
ENDBRANCH   2   5
ENDBRANCH   1   2
BRANCH   1  16
ATOM     16  C   UNL     1      34.535 -21.283 -19.503  0.00  0.00    +0.051 C 
BRANCH  16  19
ATOM     17  O   UNL     1      32.005 -22.253 -18.116  0.00  0.00    -0.272 OA
ATOM     18  O   UNL     1      32.717 -23.664 -13.698  0.00  0.00    -0.252 OA
ATOM     19  N   UNL     1      34.938 -21.673 -18.172  0.00  0.00    -0.242 NA
ATOM     20  N   UNL     1      34.545 -22.890 -14.912  0.00  0.00    -0.228 N 
ATOM     21  N   UNL     1      32.336 -22.966 -15.902  0.00  0.00    -0.211 N 
ATOM     22  N   UNL     1      36.281 -22.027 -16.429  0.00  0.00    -0.240 NA
ATOM     23  C   UNL     1      34.148 -22.174 -17.178  0.00  0.00    +0.192 C 
ATOM     24  C   UNL     1      34.995 -22.381 -16.122  0.00  0.00    +0.136 C 
ATOM     25  C   UNL     1      36.213 -21.603 -17.674  0.00  0.00    +0.203 C 
ATOM     26  C   UNL     1      32.748 -22.447 -17.159  0.00  0.00    +0.254 C 
ATOM     27  C   UNL     1      33.174 -23.208 -14.753  0.00  0.00    +0.318 C 
ATOM     28  C   UNL     1      35.485 -23.093 -13.816  0.00  0.00    +0.123 C 
ATOM     29  C   UNL     1      30.921 -23.286 -15.759  0.00  0.00    +0.124 C 
ENDBRANCH  16  19
ENDBRANCH   1  16
TORSDOF 7
ENDMDL
MODEL 5
REMARK VINA RESULT:     -11.3      1.915      2.826
REMARK  Name = 5489638
REMARK  7 active torsions:
REMARK  status: ('A' for Active; 'I' for Inactive)
REMARK    1  A    between atoms: C_1  and  N_2
REMARK    2  A    between atoms: C_1  and  C_16
REMARK    3  A    between atoms: N_2  and  C_5
REMARK    4  A    between atoms: C_5  and  C_7
REMARK    5  A    between atoms: C_7  and  C_8
REMARK    6  A    between atoms: C_7  and  O_14
REMARK    7  A    between atoms: C_16  and  N_19
REMARK                            x       y       z     vdW  Elec       q    Type
REMARK                         _______ _______ _______ _____ _____    ______ ____
ROOT
ATOM      1  C   UNL     1      34.973 -19.768 -20.844  0.00  0.00    -0.064 C 
ENDROOT
BRANCH   1   2
ATOM      2  N   UNL     1      35.136 -18.415 -20.325  0.00  0.00    +0.388 N 
ATOM      3  H   UNL     1      34.230 -18.064 -20.015  0.00  0.00    -0.084 HD
ATOM      4  H   UNL     1      35.794 -18.442 -19.546  0.00  0.00    -0.084 HD
BRANCH   2   5
ATOM      5  C   UNL     1      35.666 -17.526 -21.350  0.00  0.00    -0.030 C 
ATOM      6  C   UNL     1      36.759 -18.279 -22.109  0.00  0.00    -0.021 C 
BRANCH   5   7
ATOM      7  C   UNL     1      34.519 -17.054 -22.271  0.00  0.00    +0.113 C 
BRANCH   7   8
ATOM      8  C   UNL     1      34.202 -15.580 -22.141  0.00  0.00    +0.002 C 
ATOM      9  C   UNL     1      34.041 -15.034 -20.878  0.00  0.00    -0.002 C 
ATOM     10  C   UNL     1      34.080 -14.811 -23.284  0.00  0.00    -0.002 C 
ATOM     11  C   UNL     1      33.748 -13.675 -20.757  0.00  0.00    -0.000 C 
ATOM     12  C   UNL     1      33.787 -13.452 -23.163  0.00  0.00    -0.000 C 
ATOM     13  C   UNL     1      33.622 -12.884 -21.900  0.00  0.00    -0.000 C 
ENDBRANCH   7   8
BRANCH   7  14
ATOM     14  O   UNL     1      34.866 -17.282 -23.640  0.00  0.00    -0.382 OA
ATOM     15  H   UNL     1      34.192 -16.885 -24.214  0.00  0.00    +0.211 HD
ENDBRANCH   7  14
ENDBRANCH   5   7
ENDBRANCH   2   5
ENDBRANCH   1   2
BRANCH   1  16
ATOM     16  C   UNL     1      35.423 -20.787 -19.802  0.00  0.00    +0.051 C 
BRANCH  16  19
ATOM     17  O   UNL     1      36.579 -21.682 -17.132  0.00  0.00    -0.272 OA
ATOM     18  O   UNL     1      33.378 -23.493 -14.219  0.00  0.00    -0.252 OA
ATOM     19  N   UNL     1      34.310 -21.310 -19.044  0.00  0.00    -0.242 NA
ATOM     20  N   UNL     1      32.668 -22.756 -16.309  0.00  0.00    -0.228 N 
ATOM     21  N   UNL     1      34.995 -22.592 -15.656  0.00  0.00    -0.211 N 
ATOM     22  N   UNL     1      32.213 -21.899 -18.571  0.00  0.00    -0.240 NA
ATOM     23  C   UNL     1      34.335 -21.829 -17.782  0.00  0.00    +0.192 C 
ATOM     24  C   UNL     1      33.039 -22.183 -17.518  0.00  0.00    +0.136 C 
ATOM     25  C   UNL     1      33.011 -21.374 -19.477  0.00  0.00    +0.203 C 
ATOM     26  C   UNL     1      35.423 -22.004 -16.875  0.00  0.00    +0.254 C 
ATOM     27  C   UNL     1      33.650 -22.986 -15.314  0.00  0.00    +0.318 C 
ATOM     28  C   UNL     1      31.275 -23.115 -16.074  0.00  0.00    +0.123 C 
ATOM     29  C   UNL     1      36.021 -22.822 -14.645  0.00  0.00    +0.124 C 
ENDBRANCH  16  19
ENDBRANCH   1  16
TORSDOF 7
ENDMDL
MODEL 6
REMARK VINA RESULT:     -11.2      1.178      2.238
REMARK  Name = 5489638
REMARK  7 active torsions:
REMARK  status: ('A' for Active; 'I' for Inactive)
REMARK    1  A    between atoms: C_1  and  N_2
REMARK    2  A    between atoms: C_1  and  C_16
REMARK    3  A    between atoms: N_2  and  C_5
REMARK    4  A    between atoms: C_5  and  C_7
REMARK    5  A    between atoms: C_7  and  C_8
REMARK    6  A    between atoms: C_7  and  O_14
REMARK    7  A    between atoms: C_16  and  N_19
REMARK                            x       y       z     vdW  Elec       q    Type
REMARK                         _______ _______ _______ _____ _____    ______ ____
ROOT
ATOM      1  C   UNL     1      35.270 -21.558 -19.234  0.00  0.00    -0.064 C 
ENDROOT
BRANCH   1   2
ATOM      2  N   UNL     1      35.271 -20.120 -19.471  0.00  0.00    +0.388 N 
ATOM      3  H   UNL     1      34.697 -19.663 -18.763  0.00  0.00    -0.084 HD
ATOM      4  H   UNL     1      36.232 -19.782 -19.423  0.00  0.00    -0.084 HD
BRANCH   2   5
ATOM      5  C   UNL     1      34.736 -19.810 -20.790  0.00  0.00    -0.030 C 
ATOM      6  C   UNL     1      33.255 -19.462 -20.629  0.00  0.00    -0.021 C 
BRANCH   5   7
ATOM      7  C   UNL     1      35.551 -18.660 -21.423  0.00  0.00    +0.113 C 
BRANCH   7   8
ATOM      8  C   UNL     1      34.808 -17.916 -22.513  0.00  0.00    +0.002 C 
ATOM      9  C   UNL     1      34.135 -18.639 -23.484  0.00  0.00    -0.002 C 
ATOM     10  C   UNL     1      34.816 -16.533 -22.513  0.00  0.00    -0.002 C 
ATOM     11  C   UNL     1      33.450 -17.954 -24.489  0.00  0.00    -0.000 C 
ATOM     12  C   UNL     1      34.132 -15.848 -23.518  0.00  0.00    -0.000 C 
ATOM     13  C   UNL     1      33.448 -16.559 -24.505  0.00  0.00    -0.000 C 
ENDBRANCH   7   8
BRANCH   7  14
ATOM     14  O   UNL     1      35.892 -17.695 -20.425  0.00  0.00    -0.382 OA
ATOM     15  H   UNL     1      35.520 -16.832 -20.668  0.00  0.00    +0.211 HD
ENDBRANCH   7  14
ENDBRANCH   5   7
ENDBRANCH   2   5
ENDBRANCH   1   2
BRANCH   1  16
ATOM     16  C   UNL     1      34.355 -21.895 -18.060  0.00  0.00    +0.051 C 
BRANCH  16  19
ATOM     17  O   UNL     1      32.409 -23.163 -16.093  0.00  0.00    -0.272 OA
ATOM     18  O   UNL     1      34.294 -24.006 -11.879  0.00  0.00    -0.252 OA
ATOM     19  N   UNL     1      35.097 -22.081 -16.835  0.00  0.00    -0.242 NA
ATOM     20  N   UNL     1      35.641 -23.038 -13.510  0.00  0.00    -0.228 N 
ATOM     21  N   UNL     1      33.330 -23.595 -13.975  0.00  0.00    -0.211 N 
ATOM     22  N   UNL     1      36.819 -22.027 -15.421  0.00  0.00    -0.240 NA
ATOM     23  C   UNL     1      34.646 -22.618 -15.664  0.00  0.00    +0.192 C 
ATOM     24  C   UNL     1      35.719 -22.573 -14.816  0.00  0.00    +0.136 C 
ATOM     25  C   UNL     1      36.410 -21.741 -16.640  0.00  0.00    +0.203 C 
ATOM     26  C   UNL     1      33.360 -23.133 -15.318  0.00  0.00    +0.254 C 
ATOM     27  C   UNL     1      34.421 -23.577 -13.032  0.00  0.00    +0.318 C 
ATOM     28  C   UNL     1      36.812 -22.968 -12.644  0.00  0.00    +0.123 C 
ATOM     29  C   UNL     1      32.065 -24.146 -13.501  0.00  0.00    +0.124 C 
ENDBRANCH  16  19
ENDBRANCH   1  16
TORSDOF 7
ENDMDL
MODEL 7
REMARK VINA RESULT:     -10.5      5.965     10.928
REMARK  Name = 5489638
REMARK  7 active torsions:
REMARK  status: ('A' for Active; 'I' for Inactive)
REMARK    1  A    between atoms: C_1  and  N_2
REMARK    2  A    between atoms: C_1  and  C_16
REMARK    3  A    between atoms: N_2  and  C_5
REMARK    4  A    between atoms: C_5  and  C_7
REMARK    5  A    between atoms: C_7  and  C_8
REMARK    6  A    between atoms: C_7  and  O_14
REMARK    7  A    between atoms: C_16  and  N_19
REMARK                            x       y       z     vdW  Elec       q    Type
REMARK                         _______ _______ _______ _____ _____    ______ ____
ROOT
ATOM      1  C   UNL     1      34.395 -15.104 -22.505  0.00  0.00    -0.064 C 
ENDROOT
BRANCH   1   2
ATOM      2  N   UNL     1      34.583 -16.229 -23.413  0.00  0.00    +0.388 N 
ATOM      3  H   UNL     1      33.979 -16.108 -24.225  0.00  0.00    -0.084 HD
ATOM      4  H   UNL     1      35.562 -16.258 -23.697  0.00  0.00    -0.084 HD
BRANCH   2   5
ATOM      5  C   UNL     1      34.252 -17.487 -22.757  0.00  0.00    -0.030 C 
ATOM      6  C   UNL     1      34.221 -18.581 -23.825  0.00  0.00    -0.021 C 
BRANCH   5   7
ATOM      7  C   UNL     1      35.280 -17.775 -21.641  0.00  0.00    +0.113 C 
BRANCH   7   8
ATOM      8  C   UNL     1      34.954 -19.002 -20.815  0.00  0.00    +0.002 C 
ATOM      9  C   UNL     1      33.628 -19.361 -20.637  0.00  0.00    -0.002 C 
ATOM     10  C   UNL     1      35.985 -19.737 -20.259  0.00  0.00    -0.002 C 
ATOM     11  C   UNL     1      33.326 -20.491 -19.876  0.00  0.00    -0.000 C 
ATOM     12  C   UNL     1      35.683 -20.866 -19.498  0.00  0.00    -0.000 C 
ATOM     13  C   UNL     1      34.354 -21.244 -19.307  0.00  0.00    -0.000 C 
ENDBRANCH   7   8
BRANCH   7  14
ATOM     14  O   UNL     1      36.574 -17.995 -22.211  0.00  0.00    -0.382 OA
ATOM     15  H   UNL     1      37.093 -17.178 -22.159  0.00  0.00    +0.211 HD
ENDBRANCH   7  14
ENDBRANCH   5   7
ENDBRANCH   2   5
ENDBRANCH   1   2
BRANCH   1  16
ATOM     16  C   UNL     1      33.297 -14.183 -23.031  0.00  0.00    +0.051 C 
BRANCH  16  19
ATOM     17  O   UNL     1      32.886 -11.450 -24.306  0.00  0.00    -0.272 OA
ATOM     18  O   UNL     1      31.132  -8.253 -21.355  0.00  0.00    -0.252 OA
ATOM     19  N   UNL     1      32.759 -13.338 -21.991  0.00  0.00    -0.242 NA
ATOM     20  N   UNL     1      31.511 -10.401 -20.547  0.00  0.00    -0.228 N 
ATOM     21  N   UNL     1      32.008  -9.831 -22.848  0.00  0.00    -0.211 N 
ATOM     22  N   UNL     1      32.012 -12.743 -19.976  0.00  0.00    -0.240 NA
ATOM     23  C   UNL     1      32.411 -12.022 -22.087  0.00  0.00    +0.192 C 
ATOM     24  C   UNL     1      31.958 -11.682 -20.840  0.00  0.00    +0.136 C 
ATOM     25  C   UNL     1      32.501 -13.728 -20.702  0.00  0.00    +0.203 C 
ATOM     26  C   UNL     1      32.475 -11.127 -23.196  0.00  0.00    +0.254 C 
ATOM     27  C   UNL     1      31.518  -9.409 -21.558  0.00  0.00    +0.318 C 
ATOM     28  C   UNL     1      31.038 -10.088 -19.204  0.00  0.00    +0.123 C 
ATOM     29  C   UNL     1      32.025  -8.824 -23.903  0.00  0.00    +0.124 C 
ENDBRANCH  16  19
ENDBRANCH   1  16
TORSDOF 7
ENDMDL
MODEL 8
REMARK VINA RESULT:     -10.3      5.918     11.215
REMARK  Name = 5489638
REMARK  7 active torsions:
REMARK  status: ('A' for Active; 'I' for Inactive)
REMARK    1  A    between atoms: C_1  and  N_2
REMARK    2  A    between atoms: C_1  and  C_16
REMARK    3  A    between atoms: N_2  and  C_5
REMARK    4  A    between atoms: C_5  and  C_7
REMARK    5  A    between atoms: C_7  and  C_8
REMARK    6  A    between atoms: C_7  and  O_14
REMARK    7  A    between atoms: C_16  and  N_19
REMARK                            x       y       z     vdW  Elec       q    Type
REMARK                         _______ _______ _______ _____ _____    ______ ____
ROOT
ATOM      1  C   UNL     1      33.830 -14.907 -23.250  0.00  0.00    -0.064 C 
ENDROOT
BRANCH   1   2
ATOM      2  N   UNL     1      34.895 -15.639 -22.573  0.00  0.00    +0.388 N 
ATOM      3  H   UNL     1      35.726 -15.643 -23.164  0.00  0.00    -0.084 HD
ATOM      4  H   UNL     1      35.092 -15.179 -21.684  0.00  0.00    -0.084 HD
BRANCH   2   5
ATOM      5  C   UNL     1      34.493 -17.013 -22.306  0.00  0.00    -0.030 C 
ATOM      6  C   UNL     1      34.187 -17.684 -23.646  0.00  0.00    -0.021 C 
BRANCH   5   7
ATOM      7  C   UNL     1      35.610 -17.736 -21.521  0.00  0.00    +0.113 C 
BRANCH   7   8
ATOM      8  C   UNL     1      35.129 -18.957 -20.766  0.00  0.00    +0.002 C 
ATOM      9  C   UNL     1      33.772 -19.232 -20.722  0.00  0.00    -0.002 C 
ATOM     10  C   UNL     1      36.054 -19.770 -20.136  0.00  0.00    -0.002 C 
ATOM     11  C   UNL     1      33.328 -20.357 -20.026  0.00  0.00    -0.000 C 
ATOM     12  C   UNL     1      35.610 -20.895 -19.440  0.00  0.00    -0.000 C 
ATOM     13  C   UNL     1      34.247 -21.188 -19.385  0.00  0.00    -0.000 C 
ENDBRANCH   7   8
BRANCH   7  14
ATOM     14  O   UNL     1      36.630 -18.182 -22.419  0.00  0.00    -0.382 OA
ATOM     15  H   UNL     1      37.215 -18.806 -21.960  0.00  0.00    +0.211 HD
ENDBRANCH   7  14
ENDBRANCH   5   7
ENDBRANCH   2   5
ENDBRANCH   1   2
BRANCH   1  16
ATOM     16  C   UNL     1      33.077 -14.034 -22.250  0.00  0.00    +0.051 C 
BRANCH  16  19
ATOM     17  O   UNL     1      32.005 -12.406 -19.913  0.00  0.00    -0.272 OA
ATOM     18  O   UNL     1      31.000  -7.962 -21.034  0.00  0.00    -0.252 OA
ATOM     19  N   UNL     1      32.827 -12.711 -22.772  0.00  0.00    -0.242 NA
ATOM     20  N   UNL     1      31.833  -9.354 -22.703  0.00  0.00    -0.228 N 
ATOM     21  N   UNL     1      31.495 -10.176 -20.449  0.00  0.00    -0.211 N 
ATOM     22  N   UNL     1      32.722 -11.047 -24.252  0.00  0.00    -0.240 NA
ATOM     23  C   UNL     1      32.341 -11.630 -22.096  0.00  0.00    +0.192 C 
ATOM     24  C   UNL     1      32.285 -10.626 -23.024  0.00  0.00    +0.136 C 
ATOM     25  C   UNL     1      33.041 -12.311 -24.066  0.00  0.00    +0.203 C 
ATOM     26  C   UNL     1      31.950 -11.492 -20.730  0.00  0.00    +0.254 C 
ATOM     27  C   UNL     1      31.413  -9.075 -21.378  0.00  0.00    +0.318 C 
ATOM     28  C   UNL     1      31.793  -8.317 -23.726  0.00  0.00    +0.123 C 
ATOM     29  C   UNL     1      31.066  -9.911 -19.081  0.00  0.00    +0.124 C 
ENDBRANCH  16  19
ENDBRANCH   1  16
TORSDOF 7
ENDMDL
MODEL 9
REMARK VINA RESULT:     -10.0      6.998     11.565
REMARK  Name = 5489638
REMARK  7 active torsions:
REMARK  status: ('A' for Active; 'I' for Inactive)
REMARK    1  A    between atoms: C_1  and  N_2
REMARK    2  A    between atoms: C_1  and  C_16
REMARK    3  A    between atoms: N_2  and  C_5
REMARK    4  A    between atoms: C_5  and  C_7
REMARK    5  A    between atoms: C_7  and  C_8
REMARK    6  A    between atoms: C_7  and  O_14
REMARK    7  A    between atoms: C_16  and  N_19
REMARK                            x       y       z     vdW  Elec       q    Type
REMARK                         _______ _______ _______ _____ _____    ______ ____
ROOT
ATOM      1  C   UNL     1      33.653 -13.411 -23.531  0.00  0.00    -0.064 C 
ENDROOT
BRANCH   1   2
ATOM      2  N   UNL     1      33.482 -14.856 -23.616  0.00  0.00    +0.388 N 
ATOM      3  H   UNL     1      32.572 -15.109 -23.231  0.00  0.00    -0.084 HD
ATOM      4  H   UNL     1      33.545 -15.134 -24.595  0.00  0.00    -0.084 HD
BRANCH   2   5
ATOM      5  C   UNL     1      34.524 -15.548 -22.869  0.00  0.00    -0.030 C 
ATOM      6  C   UNL     1      34.175 -15.460 -21.382  0.00  0.00    -0.021 C 
BRANCH   5   7
ATOM      7  C   UNL     1      34.639 -17.005 -23.368  0.00  0.00    +0.113 C 
BRANCH   7   8
ATOM      8  C   UNL     1      34.929 -18.003 -22.267  0.00  0.00    +0.002 C 
ATOM      9  C   UNL     1      36.172 -17.991 -21.656  0.00  0.00    -0.002 C 
ATOM     10  C   UNL     1      33.947 -18.904 -21.895  0.00  0.00    -0.002 C 
ATOM     11  C   UNL     1      36.441 -18.911 -20.642  0.00  0.00    -0.000 C 
ATOM     12  C   UNL     1      34.216 -19.824 -20.881  0.00  0.00    -0.000 C 
ATOM     13  C   UNL     1      35.462 -19.827 -20.254  0.00  0.00    -0.000 C 
ENDBRANCH   7   8
BRANCH   7  14
ATOM     14  O   UNL     1      33.411 -17.412 -23.979  0.00  0.00    -0.382 OA
ATOM     15  H   UNL     1      32.916 -17.977 -23.365  0.00  0.00    +0.211 HD
ENDBRANCH   7  14
ENDBRANCH   5   7
ENDBRANCH   2   5
ENDBRANCH   1   2
BRANCH   1  16
ATOM     16  C   UNL     1      32.291 -12.722 -23.513  0.00  0.00    +0.051 C 
BRANCH  16  19
ATOM     17  O   UNL     1      32.106  -9.729 -24.035  0.00  0.00    -0.272 OA
ATOM     18  O   UNL     1      31.204  -7.210 -20.181  0.00  0.00    -0.252 OA
ATOM     19  N   UNL     1      32.012 -12.114 -22.233  0.00  0.00    -0.242 NA
ATOM     20  N   UNL     1      31.379  -9.520 -19.966  0.00  0.00    -0.228 N 
ATOM     21  N   UNL     1      31.655  -8.446 -22.120  0.00  0.00    -0.211 N 
ATOM     22  N   UNL     1      31.617 -11.969 -20.044  0.00  0.00    -0.240 NA
ATOM     23  C   UNL     1      31.841 -10.787 -21.964  0.00  0.00    +0.192 C 
ATOM     24  C   UNL     1      31.603 -10.726 -20.617  0.00  0.00    +0.136 C 
ATOM     25  C   UNL     1      31.868 -12.785 -21.047  0.00  0.00    +0.203 C 
ATOM     26  C   UNL     1      31.889  -9.654 -22.830  0.00  0.00    +0.254 C 
ATOM     27  C   UNL     1      31.396  -8.312 -20.707  0.00  0.00    +0.318 C 
ATOM     28  C   UNL     1      31.128  -9.506 -18.531  0.00  0.00    +0.123 C 
ATOM     29  C   UNL     1      31.678  -7.214 -22.900  0.00  0.00    +0.124 C 
ENDBRANCH  16  19
ENDBRANCH   1  16
TORSDOF 7
ENDMDL
