MODEL 1
REMARK VINA RESULT:      -9.9      0.000      0.000
REMARK  Name = 52951810
REMARK  5 active torsions:
REMARK  status: ('A' for Active; 'I' for Inactive)
REMARK    1  A    between atoms: N_4  and  C_17
REMARK    2  A    between atoms: C_17  and  C_18
REMARK    3  A    between atoms: C_18  and  C_21
REMARK    4  A    between atoms: C_18  and  C_24
REMARK    5  A    between atoms: C_24  and  C_26
REMARK                            x       y       z     vdW  Elec       q    Type
REMARK                         _______ _______ _______ _____ _____    ______ ____
ROOT
ATOM      1  S   UNL     1      30.184  -4.318 -21.848  0.00  0.00    -0.060 S 
ATOM      2  F   UNL     1      29.359  -1.786 -21.435  0.00  0.00    -0.197 F 
ATOM      3  O   UNL     1      32.575  -5.767 -24.771  0.00  0.00    -0.354 OA
ATOM      4  N   UNL     1      32.258  -8.788 -22.998  0.00  0.00    +0.387 N 
ATOM      5  C   UNL     1      31.862  -5.910 -23.511  0.00  0.00    +0.113 C 
ATOM      6  C   UNL     1      30.770  -6.966 -23.775  0.00  0.00    +0.009 C 
ATOM      7  C   UNL     1      32.819  -6.446 -22.428  0.00  0.00    +0.009 C 
ATOM      8  C   UNL     1      31.371  -8.344 -24.082  0.00  0.00    -0.075 C 
ATOM      9  C   UNL     1      33.357  -7.837 -22.783  0.00  0.00    -0.075 C 
ATOM     10  C   UNL     1      31.276  -4.561 -23.139  0.00  0.00    +0.030 C 
ATOM     11  C   UNL     1      31.588  -3.372 -23.774  0.00  0.00    -0.013 C 
ATOM     12  C   UNL     1      33.404  -4.605 -24.894  0.00  0.00    +0.147 C 
ATOM     13  C   UNL     1      32.533  -3.349 -24.926  0.00  0.00    +0.059 C 
ATOM     14  C   UNL     1      30.905  -2.260 -23.203  0.00  0.00    +0.032 C 
ATOM     15  C   UNL     1      30.106  -2.636 -22.146  0.00  0.00    +0.169 C 
ATOM     16  H   UNL     1      31.707  -8.828 -22.141  0.00  0.00    -0.080 HD
ENDROOT
BRANCH   4  17
ATOM     17  C   UNL     1      32.784 -10.123 -23.282  0.00  0.00    -0.068 C 
BRANCH  17  18
ATOM     18  C   UNL     1      32.349 -11.155 -22.225  0.00  0.00    +0.060 C 
BRANCH  18  21
ATOM     19  O   UNL     1      30.106 -10.419 -21.746  0.00  0.00    -0.275 OA
ATOM     20  N   UNL     1      31.690 -10.176 -20.074  0.00  0.00    -0.303 N 
ATOM     21  C   UNL     1      31.258 -10.550 -21.334  0.00  0.00    +0.220 C 
ATOM     22  C   UNL     1      30.806  -9.583 -19.100  0.00  0.00    +0.111 C 
ATOM     23  H   UNL     1      32.634 -10.321 -19.833  0.00  0.00    +0.149 HD
ENDBRANCH  18  21
BRANCH  18  24
ATOM     24  C   UNL     1      31.900 -12.494 -22.847  0.00  0.00    +0.036 C 
BRANCH  24  26
ATOM     25  F   UNL     1      33.034 -14.170 -24.834  0.00  0.00    -0.205 F 
ATOM     26  C   UNL     1      32.837 -13.638 -22.529  0.00  0.00    +0.006 C 
ATOM     27  C   UNL     1      33.357 -14.422 -23.558  0.00  0.00    +0.136 C 
ATOM     28  C   UNL     1      33.179 -13.907 -21.204  0.00  0.00    -0.002 C 
ATOM     29  C   UNL     1      34.221 -15.477 -23.262  0.00  0.00    +0.029 C 
ATOM     30  C   UNL     1      34.044 -14.961 -20.908  0.00  0.00    -0.000 C 
ATOM     31  C   UNL     1      34.565 -15.746 -21.937  0.00  0.00    +0.002 C 
ENDBRANCH  24  26
ENDBRANCH  18  24
ENDBRANCH  17  18
ENDBRANCH   4  17
TORSDOF 5
ENDMDL
MODEL 2
REMARK VINA RESULT:      -9.3     13.739     17.757
REMARK  Name = 52951810
REMARK  5 active torsions:
REMARK  status: ('A' for Active; 'I' for Inactive)
REMARK    1  A    between atoms: N_4  and  C_17
REMARK    2  A    between atoms: C_17  and  C_18
REMARK    3  A    between atoms: C_18  and  C_21
REMARK    4  A    between atoms: C_18  and  C_24
REMARK    5  A    between atoms: C_24  and  C_26
REMARK                            x       y       z     vdW  Elec       q    Type
REMARK                         _______ _______ _______ _____ _____    ______ ____
ROOT
ATOM      1  S   UNL     1      38.050 -25.399 -15.034  0.00  0.00    -0.060 S 
ATOM      2  F   UNL     1      40.488 -26.478 -14.638  0.00  0.00    -0.197 F 
ATOM      3  O   UNL     1      35.829 -23.144 -12.516  0.00  0.00    -0.354 OA
ATOM      4  N   UNL     1      33.643 -22.923 -15.261  0.00  0.00    +0.387 N 
ATOM      5  C   UNL     1      36.099 -23.709 -13.829  0.00  0.00    +0.113 C 
ATOM      6  C   UNL     1      34.937 -24.687 -14.100  0.00  0.00    +0.009 C 
ATOM      7  C   UNL     1      36.068 -22.595 -14.893  0.00  0.00    +0.009 C 
ATOM      8  C   UNL     1      33.593 -23.957 -14.219  0.00  0.00    -0.075 C 
ATOM      9  C   UNL     1      34.689 -21.932 -14.980  0.00  0.00    -0.075 C 
ATOM     10  C   UNL     1      37.441 -24.415 -13.777  0.00  0.00    +0.030 C 
ATOM     11  C   UNL     1      38.339 -24.311 -12.730  0.00  0.00    -0.013 C 
ATOM     12  C   UNL     1      36.928 -22.477 -11.883  0.00  0.00    +0.147 C 
ATOM     13  C   UNL     1      38.015 -23.491 -11.529  0.00  0.00    +0.059 C 
ATOM     14  C   UNL     1      39.526 -25.064 -12.961  0.00  0.00    +0.032 C 
ATOM     15  C   UNL     1      39.499 -25.707 -14.178  0.00  0.00    +0.169 C 
ATOM     16  H   UNL     1      33.874 -23.380 -16.143  0.00  0.00    -0.080 HD
ENDROOT
BRANCH   4  17
ATOM     17  C   UNL     1      32.341 -22.271 -15.397  0.00  0.00    -0.068 C 
BRANCH  17  18
ATOM     18  C   UNL     1      31.556 -22.789 -16.616  0.00  0.00    +0.060 C 
BRANCH  18  21
ATOM     19  O   UNL     1      30.179 -24.343 -15.396  0.00  0.00    -0.275 OA
ATOM     20  N   UNL     1      29.104 -22.730 -16.664  0.00  0.00    -0.303 N 
ATOM     21  C   UNL     1      30.217 -23.374 -16.155  0.00  0.00    +0.220 C 
ATOM     22  C   UNL     1      27.759 -23.145 -16.345  0.00  0.00    +0.111 C 
ATOM     23  H   UNL     1      29.234 -21.961 -17.265  0.00  0.00    +0.149 HD
ENDBRANCH  18  21
BRANCH  18  24
ATOM     24  C   UNL     1      31.364 -21.712 -17.705  0.00  0.00    +0.036 C 
BRANCH  24  26
ATOM     25  F   UNL     1      31.489 -19.826 -19.818  0.00  0.00    -0.205 F 
ATOM     26  C   UNL     1      32.632 -21.407 -18.468  0.00  0.00    +0.006 C 
ATOM     27  C   UNL     1      32.621 -20.467 -19.498  0.00  0.00    +0.136 C 
ATOM     28  C   UNL     1      33.816 -22.069 -18.140  0.00  0.00    -0.002 C 
ATOM     29  C   UNL     1      33.793 -20.187 -20.199  0.00  0.00    +0.029 C 
ATOM     30  C   UNL     1      34.988 -21.789 -18.842  0.00  0.00    -0.000 C 
ATOM     31  C   UNL     1      34.978 -20.848 -19.871  0.00  0.00    +0.002 C 
ENDBRANCH  24  26
ENDBRANCH  18  24
ENDBRANCH  17  18
ENDBRANCH   4  17
TORSDOF 5
ENDMDL
MODEL 3
REMARK VINA RESULT:      -9.0      2.532      3.681
REMARK  Name = 52951810
REMARK  5 active torsions:
REMARK  status: ('A' for Active; 'I' for Inactive)
REMARK    1  A    between atoms: N_4  and  C_17
REMARK    2  A    between atoms: C_17  and  C_18
REMARK    3  A    between atoms: C_18  and  C_21
REMARK    4  A    between atoms: C_18  and  C_24
REMARK    5  A    between atoms: C_24  and  C_26
REMARK                            x       y       z     vdW  Elec       q    Type
REMARK                         _______ _______ _______ _____ _____    ______ ____
ROOT
ATOM      1  S   UNL     1      31.829  -6.289 -25.215  0.00  0.00    -0.060 S 
ATOM      2  F   UNL     1      31.758  -3.844 -26.348  0.00  0.00    -0.197 F 
ATOM      3  O   UNL     1      31.958  -7.270 -21.293  0.00  0.00    -0.354 OA
ATOM      4  N   UNL     1      31.719 -10.562 -22.507  0.00  0.00    +0.387 N 
ATOM      5  C   UNL     1      31.796  -7.619 -22.696  0.00  0.00    +0.113 C 
ATOM      6  C   UNL     1      33.005  -8.513 -23.038  0.00  0.00    +0.009 C 
ATOM      7  C   UNL     1      30.504  -8.439 -22.884  0.00  0.00    +0.009 C 
ATOM      8  C   UNL     1      32.973  -9.837 -22.264  0.00  0.00    -0.075 C 
ATOM      9  C   UNL     1      30.553  -9.761 -22.110  0.00  0.00    -0.075 C 
ATOM     10  C   UNL     1      31.784  -6.337 -23.508  0.00  0.00    +0.030 C 
ATOM     11  C   UNL     1      31.694  -5.068 -22.963  0.00  0.00    -0.013 C 
ATOM     12  C   UNL     1      31.165  -6.173 -20.825  0.00  0.00    +0.147 C 
ATOM     13  C   UNL     1      31.632  -4.877 -21.487  0.00  0.00    +0.059 C 
ATOM     14  C   UNL     1      31.683  -4.053 -23.962  0.00  0.00    +0.032 C 
ATOM     15  C   UNL     1      31.753  -4.580 -25.232  0.00  0.00    +0.169 C 
ATOM     16  H   UNL     1      31.650 -10.739 -23.509  0.00  0.00    -0.080 HD
ENDROOT
BRANCH   4  17
ATOM     17  C   UNL     1      31.723 -11.844 -21.802  0.00  0.00    -0.068 C 
BRANCH  17  18
ATOM     18  C   UNL     1      32.526 -12.919 -22.558  0.00  0.00    +0.060 C 
BRANCH  18  21
ATOM     19  O   UNL     1      33.703 -11.528 -24.134  0.00  0.00    -0.275 OA
ATOM     20  N   UNL     1      32.153 -13.027 -24.981  0.00  0.00    -0.303 N 
ATOM     21  C   UNL     1      32.864 -12.413 -23.965  0.00  0.00    +0.220 C 
ATOM     22  C   UNL     1      32.333 -12.677 -26.369  0.00  0.00    +0.111 C 
ATOM     23  H   UNL     1      31.502 -13.727 -24.748  0.00  0.00    +0.149 HD
ENDBRANCH  18  21
BRANCH  18  24
ATOM     24  C   UNL     1      33.788 -13.370 -21.794  0.00  0.00    +0.036 C 
BRANCH  24  26
ATOM     25  F   UNL     1      34.104 -15.206 -19.656  0.00  0.00    -0.205 F 
ATOM     26  C   UNL     1      34.115 -14.831 -22.000  0.00  0.00    +0.006 C 
ATOM     27  C   UNL     1      34.256 -15.678 -20.901  0.00  0.00    +0.136 C 
ATOM     28  C   UNL     1      34.274 -15.332 -23.292  0.00  0.00    -0.002 C 
ATOM     29  C   UNL     1      34.556 -17.027 -21.094  0.00  0.00    +0.029 C 
ATOM     30  C   UNL     1      34.574 -16.681 -23.485  0.00  0.00    -0.000 C 
ATOM     31  C   UNL     1      34.715 -17.528 -22.386  0.00  0.00    +0.002 C 
ENDBRANCH  24  26
ENDBRANCH  18  24
ENDBRANCH  17  18
ENDBRANCH   4  17
TORSDOF 5
ENDMDL
MODEL 4
REMARK VINA RESULT:      -8.8      3.000      8.857
REMARK  Name = 52951810
REMARK  5 active torsions:
REMARK  status: ('A' for Active; 'I' for Inactive)
REMARK    1  A    between atoms: N_4  and  C_17
REMARK    2  A    between atoms: C_17  and  C_18
REMARK    3  A    between atoms: C_18  and  C_21
REMARK    4  A    between atoms: C_18  and  C_24
REMARK    5  A    between atoms: C_24  and  C_26
REMARK                            x       y       z     vdW  Elec       q    Type
REMARK                         _______ _______ _______ _____ _____    ______ ____
ROOT
ATOM      1  S   UNL     1      34.059 -14.767 -21.035  0.00  0.00    -0.060 S 
ATOM      2  F   UNL     1      35.009 -17.249 -20.584  0.00  0.00    -0.197 F 
ATOM      3  O   UNL     1      33.167 -12.987 -24.556  0.00  0.00    -0.354 OA
ATOM      4  N   UNL     1      32.055 -10.358 -22.503  0.00  0.00    +0.387 N 
ATOM      5  C   UNL     1      33.144 -13.033 -23.103  0.00  0.00    +0.113 C 
ATOM      6  C   UNL     1      34.025 -11.854 -22.642  0.00  0.00    +0.009 C 
ATOM      7  C   UNL     1      31.707 -12.807 -22.596  0.00  0.00    +0.009 C 
ATOM      8  C   UNL     1      33.417 -10.501 -23.034  0.00  0.00    -0.075 C 
ATOM      9  C   UNL     1      31.175 -11.426 -22.996  0.00  0.00    -0.075 C 
ATOM     10  C   UNL     1      33.704 -14.372 -22.659  0.00  0.00    +0.030 C 
ATOM     11  C   UNL     1      33.951 -15.436 -23.509  0.00  0.00    -0.013 C 
ATOM     12  C   UNL     1      32.719 -14.171 -25.228  0.00  0.00    +0.147 C 
ATOM     13  C   UNL     1      33.701 -15.314 -24.973  0.00  0.00    +0.059 C 
ATOM     14  C   UNL     1      34.455 -16.573 -22.815  0.00  0.00    +0.032 C 
ATOM     15  C   UNL     1      34.564 -16.344 -21.462  0.00  0.00    +0.169 C 
ATOM     16  H   UNL     1      32.106 -10.439 -21.487  0.00  0.00    -0.080 HD
ENDROOT
BRANCH   4  17
ATOM     17  C   UNL     1      31.507  -9.045 -22.842  0.00  0.00    -0.068 C 
BRANCH  17  18
ATOM     18  C   UNL     1      31.318  -8.156 -21.600  0.00  0.00    +0.060 C 
BRANCH  18  21
ATOM     19  O   UNL     1      30.110  -9.884 -20.434  0.00  0.00    -0.275 OA
ATOM     20  N   UNL     1      31.776  -8.772 -19.270  0.00  0.00    -0.303 N 
ATOM     21  C   UNL     1      30.998  -9.033 -20.384  0.00  0.00    +0.220 C 
ATOM     22  C   UNL     1      31.614  -9.494 -18.030  0.00  0.00    +0.111 C 
ATOM     23  H   UNL     1      32.464  -8.071 -19.325  0.00  0.00    +0.149 HD
ENDBRANCH  18  21
BRANCH  18  24
ATOM     24  C   UNL     1      32.525  -7.232 -21.336  0.00  0.00    +0.036 C 
BRANCH  24  26
ATOM     25  F   UNL     1      30.721  -5.056 -21.561  0.00  0.00    -0.205 F 
ATOM     26  C   UNL     1      32.672  -6.139 -22.369  0.00  0.00    +0.006 C 
ATOM     27  C   UNL     1      31.746  -5.097 -22.423  0.00  0.00    +0.136 C 
ATOM     28  C   UNL     1      33.736  -6.174 -23.270  0.00  0.00    -0.002 C 
ATOM     29  C   UNL     1      31.885  -4.090 -23.377  0.00  0.00    +0.029 C 
ATOM     30  C   UNL     1      33.875  -5.166 -24.225  0.00  0.00    -0.000 C 
ATOM     31  C   UNL     1      32.949  -4.123 -24.278  0.00  0.00    +0.002 C 
ENDBRANCH  24  26
ENDBRANCH  18  24
ENDBRANCH  17  18
ENDBRANCH   4  17
TORSDOF 5
ENDMDL
MODEL 5
REMARK VINA RESULT:      -8.8      3.051      8.251
REMARK  Name = 52951810
REMARK  5 active torsions:
REMARK  status: ('A' for Active; 'I' for Inactive)
REMARK    1  A    between atoms: N_4  and  C_17
REMARK    2  A    between atoms: C_17  and  C_18
REMARK    3  A    between atoms: C_18  and  C_21
REMARK    4  A    between atoms: C_18  and  C_24
REMARK    5  A    between atoms: C_24  and  C_26
REMARK                            x       y       z     vdW  Elec       q    Type
REMARK                         _______ _______ _______ _____ _____    ______ ____
ROOT
ATOM      1  S   UNL     1      32.297 -10.778 -23.229  0.00  0.00    -0.060 S 
ATOM      2  F   UNL     1      32.275 -13.405 -22.624  0.00  0.00    -0.197 F 
ATOM      3  O   UNL     1      31.040  -7.646 -21.000  0.00  0.00    -0.354 OA
ATOM      4  N   UNL     1      32.307  -5.738 -23.668  0.00  0.00    +0.387 N 
ATOM      5  C   UNL     1      31.732  -8.202 -22.153  0.00  0.00    +0.113 C 
ATOM      6  C   UNL     1      30.906  -7.760 -23.378  0.00  0.00    +0.009 C 
ATOM      7  C   UNL     1      33.143  -7.592 -22.259  0.00  0.00    +0.009 C 
ATOM      8  C   UNL     1      30.929  -6.237 -23.562  0.00  0.00    -0.075 C 
ATOM      9  C   UNL     1      33.091  -6.075 -22.473  0.00  0.00    -0.075 C 
ATOM     10  C   UNL     1      31.771  -9.712 -22.003  0.00  0.00    +0.030 C 
ATOM     11  C   UNL     1      31.424 -10.391 -20.849  0.00  0.00    -0.013 C 
ATOM     12  C   UNL     1      31.400  -8.197 -19.728  0.00  0.00    +0.147 C 
ATOM     13  C   UNL     1      30.944  -9.653 -19.646  0.00  0.00    +0.059 C 
ATOM     14  C   UNL     1      31.576 -11.801 -20.987  0.00  0.00    +0.032 C 
ATOM     15  C   UNL     1      32.043 -12.147 -22.235  0.00  0.00    +0.169 C 
ATOM     16  H   UNL     1      32.744  -6.195 -24.469  0.00  0.00    -0.080 HD
ENDROOT
BRANCH   4  17
ATOM     17  C   UNL     1      32.311  -4.293 -23.893  0.00  0.00    -0.068 C 
BRANCH  17  18
ATOM     18  C   UNL     1      31.183  -3.849 -24.843  0.00  0.00    +0.060 C 
BRANCH  18  21
ATOM     19  O   UNL     1      29.711  -1.942 -24.849  0.00  0.00    -0.275 OA
ATOM     20  N   UNL     1      30.403  -2.752 -22.792  0.00  0.00    -0.303 N 
ATOM     21  C   UNL     1      30.352  -2.748 -24.174  0.00  0.00    +0.220 C 
ATOM     22  C   UNL     1      29.689  -1.786 -21.991  0.00  0.00    +0.111 C 
ATOM     23  H   UNL     1      30.944  -3.437 -22.338  0.00  0.00    +0.149 HD
ENDBRANCH  18  21
BRANCH  18  24
ATOM     24  C   UNL     1      31.705  -3.410 -26.227  0.00  0.00    +0.036 C 
BRANCH  24  26
ATOM     25  F   UNL     1      32.472  -6.028 -27.001  0.00  0.00    -0.205 F 
ATOM     26  C   UNL     1      33.141  -3.812 -26.474  0.00  0.00    +0.006 C 
ATOM     27  C   UNL     1      33.446  -5.119 -26.853  0.00  0.00    +0.136 C 
ATOM     28  C   UNL     1      34.161  -2.873 -26.322  0.00  0.00    -0.002 C 
ATOM     29  C   UNL     1      34.772  -5.487 -27.081  0.00  0.00    +0.029 C 
ATOM     30  C   UNL     1      35.487  -3.241 -26.550  0.00  0.00    -0.000 C 
ATOM     31  C   UNL     1      35.793  -4.548 -26.930  0.00  0.00    +0.002 C 
ENDBRANCH  24  26
ENDBRANCH  18  24
ENDBRANCH  17  18
ENDBRANCH   4  17
TORSDOF 5
ENDMDL
MODEL 6
REMARK VINA RESULT:      -8.7      2.966      8.451
REMARK  Name = 52951810
REMARK  5 active torsions:
REMARK  status: ('A' for Active; 'I' for Inactive)
REMARK    1  A    between atoms: N_4  and  C_17
REMARK    2  A    between atoms: C_17  and  C_18
REMARK    3  A    between atoms: C_18  and  C_21
REMARK    4  A    between atoms: C_18  and  C_24
REMARK    5  A    between atoms: C_24  and  C_26
REMARK                            x       y       z     vdW  Elec       q    Type
REMARK                         _______ _______ _______ _____ _____    ______ ____
ROOT
ATOM      1  S   UNL     1      33.849 -13.727 -21.121  0.00  0.00    -0.060 S 
ATOM      2  F   UNL     1      34.686 -16.255 -20.702  0.00  0.00    -0.197 F 
ATOM      3  O   UNL     1      32.880 -11.915 -24.605  0.00  0.00    -0.354 OA
ATOM      4  N   UNL     1      32.012  -9.223 -22.515  0.00  0.00    +0.387 N 
ATOM      5  C   UNL     1      32.926 -11.955 -23.152  0.00  0.00    +0.113 C 
ATOM      6  C   UNL     1      33.890 -10.822 -22.742  0.00  0.00    +0.009 C 
ATOM      7  C   UNL     1      31.530 -11.650 -22.576  0.00  0.00    +0.009 C 
ATOM      8  C   UNL     1      33.336  -9.440 -23.112  0.00  0.00    -0.075 C 
ATOM      9  C   UNL     1      31.053 -10.244 -22.958  0.00  0.00    -0.075 C 
ATOM     10  C   UNL     1      33.435 -13.320 -22.728  0.00  0.00    +0.030 C 
ATOM     11  C   UNL     1      33.583 -14.398 -23.582  0.00  0.00    -0.013 C 
ATOM     12  C   UNL     1      32.337 -13.075 -25.246  0.00  0.00    +0.147 C 
ATOM     13  C   UNL     1      33.267 -14.269 -25.033  0.00  0.00    +0.059 C 
ATOM     14  C   UNL     1      34.059 -15.559 -22.907  0.00  0.00    +0.032 C 
ATOM     15  C   UNL     1      34.247 -15.331 -21.563  0.00  0.00    +0.169 C 
ATOM     16  H   UNL     1      32.108  -9.303 -21.503  0.00  0.00    -0.080 HD
ENDROOT
BRANCH   4  17
ATOM     17  C   UNL     1      31.519  -7.884 -22.836  0.00  0.00    -0.068 C 
BRANCH  17  18
ATOM     18  C   UNL     1      31.080  -7.111 -21.579  0.00  0.00    +0.060 C 
BRANCH  18  21
ATOM     19  O   UNL     1      32.681  -7.369 -19.798  0.00  0.00    -0.275 OA
ATOM     20  N   UNL     1      30.930  -8.883 -19.889  0.00  0.00    -0.303 N 
ATOM     21  C   UNL     1      31.654  -7.790 -20.331  0.00  0.00    +0.220 C 
ATOM     22  C   UNL     1      31.323  -9.652 -18.732  0.00  0.00    +0.111 C 
ATOM     23  H   UNL     1      30.119  -9.145 -20.380  0.00  0.00    +0.149 HD
ENDBRANCH  18  21
BRANCH  18  24
ATOM     24  C   UNL     1      31.452  -5.614 -21.637  0.00  0.00    +0.036 C 
BRANCH  24  26
ATOM     25  F   UNL     1      34.182  -6.065 -22.258  0.00  0.00    -0.205 F 
ATOM     26  C   UNL     1      32.079  -5.211 -22.952  0.00  0.00    +0.006 C 
ATOM     27  C   UNL     1      33.430  -5.463 -23.190  0.00  0.00    +0.136 C 
ATOM     28  C   UNL     1      31.303  -4.585 -23.928  0.00  0.00    -0.002 C 
ATOM     29  C   UNL     1      34.005  -5.090 -24.404  0.00  0.00    +0.029 C 
ATOM     30  C   UNL     1      31.879  -4.212 -25.143  0.00  0.00    -0.000 C 
ATOM     31  C   UNL     1      33.230  -4.464 -25.381  0.00  0.00    +0.002 C 
ENDBRANCH  24  26
ENDBRANCH  18  24
ENDBRANCH  17  18
ENDBRANCH   4  17
TORSDOF 5
ENDMDL
MODEL 7
REMARK VINA RESULT:      -8.7      2.953      3.932
REMARK  Name = 52951810
REMARK  5 active torsions:
REMARK  status: ('A' for Active; 'I' for Inactive)
REMARK    1  A    between atoms: N_4  and  C_17
REMARK    2  A    between atoms: C_17  and  C_18
REMARK    3  A    between atoms: C_18  and  C_21
REMARK    4  A    between atoms: C_18  and  C_24
REMARK    5  A    between atoms: C_24  and  C_26
REMARK                            x       y       z     vdW  Elec       q    Type
REMARK                         _______ _______ _______ _____ _____    ______ ____
ROOT
ATOM      1  S   UNL     1      34.977  -5.137 -26.445  0.00  0.00    -0.060 S 
ATOM      2  F   UNL     1      36.462  -3.796 -28.252  0.00  0.00    -0.197 F 
ATOM      3  O   UNL     1      32.107  -3.728 -23.967  0.00  0.00    -0.354 OA
ATOM      4  N   UNL     1      31.733  -7.117 -23.105  0.00  0.00    +0.387 N 
ATOM      5  C   UNL     1      32.836  -4.821 -24.592  0.00  0.00    +0.113 C 
ATOM      6  C   UNL     1      33.594  -5.517 -23.443  0.00  0.00    +0.009 C 
ATOM      7  C   UNL     1      31.844  -5.823 -25.212  0.00  0.00    +0.009 C 
ATOM      8  C   UNL     1      32.634  -6.167 -22.438  0.00  0.00    -0.075 C 
ATOM      9  C   UNL     1      30.939  -6.457 -24.149  0.00  0.00    -0.075 C 
ATOM     10  C   UNL     1      33.779  -4.235 -25.627  0.00  0.00    +0.030 C 
ATOM     11  C   UNL     1      33.750  -2.919 -26.053  0.00  0.00    -0.013 C 
ATOM     12  C   UNL     1      31.606  -2.721 -24.854  0.00  0.00    +0.147 C 
ATOM     13  C   UNL     1      32.772  -1.953 -25.477  0.00  0.00    +0.059 C 
ATOM     14  C   UNL     1      34.736  -2.653 -27.046  0.00  0.00    +0.032 C 
ATOM     15  C   UNL     1      35.474  -3.774 -27.351  0.00  0.00    +0.169 C 
ATOM     16  H   UNL     1      32.308  -7.830 -23.553  0.00  0.00    -0.080 HD
ENDROOT
BRANCH   4  17
ATOM     17  C   UNL     1      30.858  -7.764 -22.128  0.00  0.00    -0.068 C 
BRANCH  17  18
ATOM     18  C   UNL     1      31.540  -8.962 -21.441  0.00  0.00    +0.060 C 
BRANCH  18  21
ATOM     19  O   UNL     1      31.968  -7.641 -19.472  0.00  0.00    -0.275 OA
ATOM     20  N   UNL     1      31.211  -9.808 -19.162  0.00  0.00    -0.303 N 
ATOM     21  C   UNL     1      31.598  -8.723 -19.928  0.00  0.00    +0.220 C 
ATOM     22  C   UNL     1      31.207  -9.771 -17.719  0.00  0.00    +0.111 C 
ATOM     23  H   UNL     1      30.929 -10.634 -19.617  0.00  0.00    +0.149 HD
ENDBRANCH  18  21
BRANCH  18  24
ATOM     24  C   UNL     1      30.867 -10.308 -21.781  0.00  0.00    +0.036 C 
BRANCH  24  26
ATOM     25  F   UNL     1      31.347 -12.658 -20.269  0.00  0.00    -0.205 F 
ATOM     26  C   UNL     1      31.854 -11.375 -22.199  0.00  0.00    +0.006 C 
ATOM     27  C   UNL     1      32.040 -12.506 -21.405  0.00  0.00    +0.136 C 
ATOM     28  C   UNL     1      32.579 -11.225 -23.382  0.00  0.00    -0.002 C 
ATOM     29  C   UNL     1      32.950 -13.489 -21.794  0.00  0.00    +0.029 C 
ATOM     30  C   UNL     1      33.489 -12.207 -23.771  0.00  0.00    -0.000 C 
ATOM     31  C   UNL     1      33.675 -13.340 -22.977  0.00  0.00    +0.002 C 
ENDBRANCH  24  26
ENDBRANCH  18  24
ENDBRANCH  17  18
ENDBRANCH   4  17
TORSDOF 5
ENDMDL
MODEL 8
REMARK VINA RESULT:      -8.6      2.418      3.273
REMARK  Name = 52951810
REMARK  5 active torsions:
REMARK  status: ('A' for Active; 'I' for Inactive)
REMARK    1  A    between atoms: N_4  and  C_17
REMARK    2  A    between atoms: C_17  and  C_18
REMARK    3  A    between atoms: C_18  and  C_21
REMARK    4  A    between atoms: C_18  and  C_24
REMARK    5  A    between atoms: C_24  and  C_26
REMARK                            x       y       z     vdW  Elec       q    Type
REMARK                         _______ _______ _______ _____ _____    ______ ____
ROOT
ATOM      1  S   UNL     1      32.477  -7.158 -20.256  0.00  0.00    -0.060 S 
ATOM      2  F   UNL     1      32.021  -4.841 -18.956  0.00  0.00    -0.197 F 
ATOM      3  O   UNL     1      31.243  -8.292 -23.938  0.00  0.00    -0.354 OA
ATOM      4  N   UNL     1      33.191 -11.146 -23.287  0.00  0.00    +0.387 N 
ATOM      5  C   UNL     1      32.054  -8.479 -22.745  0.00  0.00    +0.113 C 
ATOM      6  C   UNL     1      31.521  -9.767 -22.085  0.00  0.00    +0.009 C 
ATOM      7  C   UNL     1      33.526  -8.698 -23.143  0.00  0.00    +0.009 C 
ATOM      8  C   UNL     1      31.765 -11.001 -22.964  0.00  0.00    -0.075 C 
ATOM      9  C   UNL     1      33.702  -9.963 -23.991  0.00  0.00    -0.075 C 
ATOM     10  C   UNL     1      31.878  -7.264 -21.853  0.00  0.00    +0.030 C 
ATOM     11  C   UNL     1      31.249  -6.094 -22.241  0.00  0.00    -0.013 C 
ATOM     12  C   UNL     1      31.300  -6.991 -24.536  0.00  0.00    +0.147 C 
ATOM     13  C   UNL     1      30.659  -5.964 -23.603  0.00  0.00    +0.059 C 
ATOM     14  C   UNL     1      31.248  -5.115 -21.207  0.00  0.00    +0.032 C 
ATOM     15  C   UNL     1      31.882  -5.565 -20.071  0.00  0.00    +0.169 C 
ATOM     16  H   UNL     1      33.703 -11.233 -22.409  0.00  0.00    -0.080 HD
ENDROOT
BRANCH   4  17
ATOM     17  C   UNL     1      33.415 -12.353 -24.083  0.00  0.00    -0.068 C 
BRANCH  17  18
ATOM     18  C   UNL     1      33.823 -13.555 -23.212  0.00  0.00    +0.060 C 
BRANCH  18  21
ATOM     19  O   UNL     1      34.283 -12.646 -21.029  0.00  0.00    -0.275 OA
ATOM     20  N   UNL     1      32.268 -13.750 -21.324  0.00  0.00    -0.303 N 
ATOM     21  C   UNL     1      33.493 -13.263 -21.744  0.00  0.00    +0.220 C 
ATOM     22  C   UNL     1      31.791 -13.576 -19.973  0.00  0.00    +0.111 C 
ATOM     23  H   UNL     1      31.703 -14.232 -21.970  0.00  0.00    +0.149 HD
ENDBRANCH  18  21
BRANCH  18  24
ATOM     24  C   UNL     1      33.190 -14.880 -23.686  0.00  0.00    +0.036 C 
BRANCH  24  26
ATOM     25  F   UNL     1      33.057 -17.417 -24.946  0.00  0.00    -0.205 F 
ATOM     26  C   UNL     1      33.911 -16.102 -23.165  0.00  0.00    +0.006 C 
ATOM     27  C   UNL     1      33.800 -17.319 -23.836  0.00  0.00    +0.136 C 
ATOM     28  C   UNL     1      34.688 -16.009 -22.010  0.00  0.00    -0.002 C 
ATOM     29  C   UNL     1      34.468 -18.445 -23.352  0.00  0.00    +0.029 C 
ATOM     30  C   UNL     1      35.355 -17.135 -21.526  0.00  0.00    -0.000 C 
ATOM     31  C   UNL     1      35.245 -18.353 -22.198  0.00  0.00    +0.002 C 
ENDBRANCH  24  26
ENDBRANCH  18  24
ENDBRANCH  17  18
ENDBRANCH   4  17
TORSDOF 5
ENDMDL
MODEL 9
REMARK VINA RESULT:      -8.6      2.151      3.343
REMARK  Name = 52951810
REMARK  5 active torsions:
REMARK  status: ('A' for Active; 'I' for Inactive)
REMARK    1  A    between atoms: N_4  and  C_17
REMARK    2  A    between atoms: C_17  and  C_18
REMARK    3  A    between atoms: C_18  and  C_21
REMARK    4  A    between atoms: C_18  and  C_24
REMARK    5  A    between atoms: C_24  and  C_26
REMARK                            x       y       z     vdW  Elec       q    Type
REMARK                         _______ _______ _______ _____ _____    ______ ____
ROOT
ATOM      1  S   UNL     1      30.556  -6.237 -23.973  0.00  0.00    -0.060 S 
ATOM      2  F   UNL     1      30.009  -3.604 -24.160  0.00  0.00    -0.197 F 
ATOM      3  O   UNL     1      32.232  -8.272 -20.905  0.00  0.00    -0.354 OA
ATOM      4  N   UNL     1      31.583 -11.078 -22.922  0.00  0.00    +0.387 N 
ATOM      5  C   UNL     1      31.536  -8.223 -22.182  0.00  0.00    +0.113 C 
ATOM      6  C   UNL     1      32.526  -8.806 -23.210  0.00  0.00    +0.009 C 
ATOM      7  C   UNL     1      30.287  -9.125 -22.130  0.00  0.00    +0.009 C 
ATOM      8  C   UNL     1      32.821 -10.288 -22.942  0.00  0.00    -0.075 C 
ATOM      9  C   UNL     1      30.656 -10.593 -21.891  0.00  0.00    -0.075 C 
ATOM     10  C   UNL     1      31.186  -6.777 -22.480  0.00  0.00    +0.030 C 
ATOM     11  C   UNL     1      31.300  -5.742 -21.568  0.00  0.00    -0.013 C 
ATOM     12  C   UNL     1      31.672  -7.474 -19.856  0.00  0.00    +0.147 C 
ATOM     13  C   UNL     1      31.821  -5.992 -20.195  0.00  0.00    +0.059 C 
ATOM     14  C   UNL     1      30.882  -4.495 -22.115  0.00  0.00    +0.032 C 
ATOM     15  C   UNL     1      30.454  -4.622 -23.418  0.00  0.00    +0.169 C 
ATOM     16  H   UNL     1      31.128 -10.969 -23.828  0.00  0.00    -0.080 HD
ENDROOT
BRANCH   4  17
ATOM     17  C   UNL     1      31.884 -12.495 -22.715  0.00  0.00    -0.068 C 
BRANCH  17  18
ATOM     18  C   UNL     1      33.297 -12.711 -22.144  0.00  0.00    +0.060 C 
BRANCH  18  21
ATOM     19  O   UNL     1      34.228 -14.059 -20.378  0.00  0.00    -0.275 OA
ATOM     20  N   UNL     1      31.932 -13.754 -20.392  0.00  0.00    -0.303 N 
ATOM     21  C   UNL     1      33.214 -13.576 -20.882  0.00  0.00    +0.220 C 
ATOM     22  C   UNL     1      31.658 -14.543 -19.215  0.00  0.00    +0.111 C 
ATOM     23  H   UNL     1      31.181 -13.327 -20.863  0.00  0.00    +0.149 HD
ENDBRANCH  18  21
BRANCH  18  24
ATOM     24  C   UNL     1      34.276 -13.304 -23.179  0.00  0.00    +0.036 C 
BRANCH  24  26
ATOM     25  F   UNL     1      32.791 -14.339 -25.362  0.00  0.00    -0.205 F 
ATOM     26  C   UNL     1      34.068 -14.784 -23.411  0.00  0.00    +0.006 C 
ATOM     27  C   UNL     1      33.325 -15.222 -24.507  0.00  0.00    +0.136 C 
ATOM     28  C   UNL     1      34.621 -15.710 -22.527  0.00  0.00    -0.002 C 
ATOM     29  C   UNL     1      33.135 -16.588 -24.719  0.00  0.00    +0.029 C 
ATOM     30  C   UNL     1      34.432 -17.075 -22.739  0.00  0.00    -0.000 C 
ATOM     31  C   UNL     1      33.689 -17.515 -23.836  0.00  0.00    +0.002 C 
ENDBRANCH  24  26
ENDBRANCH  18  24
ENDBRANCH  17  18
ENDBRANCH   4  17
TORSDOF 5
ENDMDL
