MODEL 1
REMARK VINA RESULT:     -12.4      0.000      0.000
REMARK  Name = 657131
REMARK  7 active torsions:
REMARK  status: ('A' for Active; 'I' for Inactive)
REMARK    1  A    between atoms: C_1  and  CA_2
REMARK    2  A    between atoms: C_1  and  C_3
REMARK    3  A    between atoms: CA_2  and  C_28
REMARK    4  A    between atoms: C_4  and  O_9
REMARK    5  A    between atoms: O_9  and  C_11
REMARK    6  A    between atoms: C_19  and  C_21
REMARK    7  A    between atoms: C_28  and  O_29
REMARK                            x       y       z     vdW  Elec       q    Type
REMARK                         _______ _______ _______ _____ _____    ______ ____
ROOT
ATOM      1  C   UNL     1      34.448 -14.427 -22.623  0.00  0.00    +0.074 C 
ENDROOT
BRANCH   1   2
ATOM      2  C   UNL     1      33.434 -13.414 -22.385  0.00  0.00    -0.016 C 
ATOM      3  C   UNL     1      31.489 -11.466 -21.930  0.00  0.00    +0.145 C 
ATOM      4  C   UNL     1      32.657 -13.460 -21.227  0.00  0.00    -0.001 C 
ATOM      5  C   UNL     1      33.238 -12.392 -23.315  0.00  0.00    -0.001 C 
ATOM      6  C   UNL     1      31.684 -12.487 -20.999  0.00  0.00    +0.037 C 
ATOM      7  C   UNL     1      32.265 -11.418 -23.087  0.00  0.00    +0.037 C 
BRANCH   3   8
ATOM      8  O   UNL     1      30.541 -10.516 -21.707  0.00  0.00    -0.453 OA
BRANCH   8  10
ATOM      9 BR   UNL     1      31.344  -9.602 -18.831  0.00  0.00    -0.046 Br
ATOM     10  C   UNL     1      30.952  -9.195 -21.654  0.00  0.00    +0.151 C 
ATOM     11  C   UNL     1      31.345  -8.624 -20.455  0.00  0.00    +0.069 C 
ATOM     12  C   UNL     1      30.956  -8.473 -22.835  0.00  0.00    +0.038 C 
ATOM     13  C   UNL     1      31.753  -7.291 -20.438  0.00  0.00    +0.010 C 
ATOM     14  C   UNL     1      31.365  -7.139 -22.817  0.00  0.00    +0.003 C 
ATOM     15  C   UNL     1      31.764  -6.549 -21.618  0.00  0.00    +0.001 C 
ENDBRANCH   8  10
ENDBRANCH   3   8
ENDBRANCH   1   2
BRANCH   1  16
ATOM     16  CA  UNL     1      34.224 -15.721 -22.951  0.00  0.00    +0.108 C 
ATOM     17  O   UNL     1      33.784 -18.485 -23.515  0.00  0.00    -0.270 OA
ATOM     18  N   UNL     1      34.370 -16.758 -22.072  0.00  0.00    -0.278 N 
ATOM     19  C   UNL     1      34.139 -18.083 -22.409  0.00  0.00    +0.249 C 
ATOM     20  H   UNL     1      34.652 -16.553 -21.151  0.00  0.00    +0.155 HD
BRANCH  19  21
ATOM     21  C   UNL     1      34.373 -19.071 -21.324  0.00  0.00    +0.054 C 
ATOM     22  C   UNL     1      35.661 -19.270 -20.873  0.00  0.00    +0.005 C 
ATOM     23  C   UNL     1      33.295 -19.754 -20.803  0.00  0.00    +0.005 C 
ATOM     24  C   UNL     1      35.881 -20.197 -19.854  0.00  0.00    +0.000 C 
ATOM     25  C   UNL     1      33.515 -20.681 -19.784  0.00  0.00    +0.000 C 
ATOM     26  C   UNL     1      34.809 -20.903 -19.310  0.00  0.00    +0.000 C 
ENDBRANCH  19  21
BRANCH  16  28
ATOM     27  OXT UNL     1      34.559 -16.060 -25.315  0.00  0.00    -0.244 OA
ATOM     28  C   UNL     1      33.814 -16.032 -24.346  0.00  0.00    +0.348 C 
BRANCH  28  29
ATOM     29  O   UNL     1      32.485 -16.285 -24.414  0.00  0.00    -0.476 OA
ATOM     30  H   UNL     1      32.084 -16.462 -25.242  0.00  0.00    +0.295 HD
ENDBRANCH  28  29
ENDBRANCH  16  28
ENDBRANCH   1  16
TORSDOF 7
ENDMDL
MODEL 2
REMARK VINA RESULT:     -11.9      1.411      2.205
REMARK  Name = 657131
REMARK  7 active torsions:
REMARK  status: ('A' for Active; 'I' for Inactive)
REMARK    1  A    between atoms: C_1  and  CA_2
REMARK    2  A    between atoms: C_1  and  C_3
REMARK    3  A    between atoms: CA_2  and  C_28
REMARK    4  A    between atoms: C_4  and  O_9
REMARK    5  A    between atoms: O_9  and  C_11
REMARK    6  A    between atoms: C_19  and  C_21
REMARK    7  A    between atoms: C_28  and  O_29
REMARK                            x       y       z     vdW  Elec       q    Type
REMARK                         _______ _______ _______ _____ _____    ______ ____
ROOT
ATOM      1  C   UNL     1      34.073 -14.130 -21.109  0.00  0.00    +0.074 C 
ENDROOT
BRANCH   1   2
ATOM      2  C   UNL     1      33.233 -12.994 -21.451  0.00  0.00    -0.016 C 
ATOM      3  C   UNL     1      31.618 -10.815 -22.105  0.00  0.00    +0.145 C 
ATOM      4  C   UNL     1      33.566 -12.178 -22.532  0.00  0.00    -0.001 C 
ATOM      5  C   UNL     1      32.091 -12.720 -20.697  0.00  0.00    -0.001 C 
ATOM      6  C   UNL     1      32.759 -11.089 -22.860  0.00  0.00    +0.037 C 
ATOM      7  C   UNL     1      31.284 -11.630 -21.024  0.00  0.00    +0.037 C 
BRANCH   3   8
ATOM      8  O   UNL     1      30.830  -9.753 -22.426  0.00  0.00    -0.453 OA
BRANCH   8  10
ATOM      9 BR   UNL     1      30.842  -7.320 -24.382  0.00  0.00    -0.046 Br
ATOM     10  C   UNL     1      31.083  -8.548 -21.790  0.00  0.00    +0.151 C 
ATOM     11  C   UNL     1      31.124  -7.366 -22.509  0.00  0.00    +0.069 C 
ATOM     12  C   UNL     1      31.290  -8.573 -20.422  0.00  0.00    +0.038 C 
ATOM     13  C   UNL     1      31.381  -6.170 -21.837  0.00  0.00    +0.010 C 
ATOM     14  C   UNL     1      31.547  -7.377 -19.751  0.00  0.00    +0.003 C 
ATOM     15  C   UNL     1      31.592  -6.176 -20.459  0.00  0.00    +0.001 C 
ENDBRANCH   8  10
ENDBRANCH   3   8
ENDBRANCH   1   2
BRANCH   1  16
ATOM     16  CA  UNL     1      34.124 -15.313 -21.763  0.00  0.00    +0.108 C 
ATOM     17  O   UNL     1      34.243 -17.872 -23.023  0.00  0.00    -0.270 OA
ATOM     18  N   UNL     1      34.272 -16.517 -21.133  0.00  0.00    -0.278 N 
ATOM     19  C   UNL     1      34.323 -17.729 -21.805  0.00  0.00    +0.249 C 
ATOM     20  H   UNL     1      34.347 -16.524 -20.151  0.00  0.00    +0.155 HD
BRANCH  19  21
ATOM     21  C   UNL     1      34.512 -18.929 -20.949  0.00  0.00    +0.054 C 
ATOM     22  C   UNL     1      33.404 -19.659 -20.573  0.00  0.00    +0.005 C 
ATOM     23  C   UNL     1      35.789 -19.276 -20.562  0.00  0.00    +0.005 C 
ATOM     24  C   UNL     1      33.581 -20.785 -19.771  0.00  0.00    +0.000 C 
ATOM     25  C   UNL     1      35.967 -20.403 -19.759  0.00  0.00    +0.000 C 
ATOM     26  C   UNL     1      34.862 -21.158 -19.364  0.00  0.00    +0.000 C 
ENDBRANCH  19  21
BRANCH  16  28
ATOM     27  OXT UNL     1      32.990 -15.330 -23.891  0.00  0.00    -0.244 OA
ATOM     28  C   UNL     1      34.028 -15.301 -23.247  0.00  0.00    +0.348 C 
BRANCH  28  29
ATOM     29  O   UNL     1      35.260 -15.255 -23.810  0.00  0.00    -0.476 OA
ATOM     30  H   UNL     1      35.902 -14.657 -23.484  0.00  0.00    +0.295 HD
ENDBRANCH  28  29
ENDBRANCH  16  28
ENDBRANCH   1  16
TORSDOF 7
ENDMDL
MODEL 3
REMARK VINA RESULT:     -11.9      4.305      7.573
REMARK  Name = 657131
REMARK  7 active torsions:
REMARK  status: ('A' for Active; 'I' for Inactive)
REMARK    1  A    between atoms: C_1  and  CA_2
REMARK    2  A    between atoms: C_1  and  C_3
REMARK    3  A    between atoms: CA_2  and  C_28
REMARK    4  A    between atoms: C_4  and  O_9
REMARK    5  A    between atoms: O_9  and  C_11
REMARK    6  A    between atoms: C_19  and  C_21
REMARK    7  A    between atoms: C_28  and  O_29
REMARK                            x       y       z     vdW  Elec       q    Type
REMARK                         _______ _______ _______ _____ _____    ______ ____
ROOT
ATOM      1  C   UNL     1      35.656 -21.088 -19.385  0.00  0.00    +0.074 C 
ENDROOT
BRANCH   1   2
ATOM      2  C   UNL     1      35.387 -19.990 -20.299  0.00  0.00    -0.016 C 
ATOM      3  C   UNL     1      34.873 -17.881 -22.051  0.00  0.00    +0.145 C 
ATOM      4  C   UNL     1      34.147 -19.892 -20.929  0.00  0.00    -0.001 C 
ATOM      5  C   UNL     1      36.371 -19.031 -20.545  0.00  0.00    -0.001 C 
ATOM      6  C   UNL     1      33.889 -18.838 -21.805  0.00  0.00    +0.037 C 
ATOM      7  C   UNL     1      36.114 -17.976 -21.421  0.00  0.00    +0.037 C 
BRANCH   3   8
ATOM      8  O   UNL     1      34.622 -16.851 -22.905  0.00  0.00    -0.453 OA
BRANCH   8  10
ATOM      9 BR   UNL     1      33.450 -14.910 -25.052  0.00  0.00    -0.046 Br
ATOM     10  C   UNL     1      34.156 -15.664 -22.365  0.00  0.00    +0.151 C 
ATOM     11  C   UNL     1      33.603 -14.688 -23.176  0.00  0.00    +0.069 C 
ATOM     12  C   UNL     1      34.264 -15.494 -20.995  0.00  0.00    +0.038 C 
ATOM     13  C   UNL     1      33.143 -13.504 -22.598  0.00  0.00    +0.010 C 
ATOM     14  C   UNL     1      33.803 -14.310 -20.419  0.00  0.00    +0.003 C 
ATOM     15  C   UNL     1      33.244 -13.315 -21.220  0.00  0.00    +0.001 C 
ENDBRANCH   8  10
ENDBRANCH   3   8
ENDBRANCH   1   2
BRANCH   1  16
ATOM     16  CA  UNL     1      34.778 -21.638 -18.515  0.00  0.00    +0.108 C 
ATOM     17  O   UNL     1      33.023 -22.797 -16.585  0.00  0.00    -0.270 OA
ATOM     18  N   UNL     1      35.091 -21.944 -17.220  0.00  0.00    -0.278 N 
ATOM     19  C   UNL     1      34.190 -22.507 -16.330  0.00  0.00    +0.249 C 
ATOM     20  H   UNL     1      36.003 -21.754 -16.903  0.00  0.00    +0.155 HD
BRANCH  19  21
ATOM     21  C   UNL     1      34.721 -22.789 -14.971  0.00  0.00    +0.054 C 
ATOM     22  C   UNL     1      33.875 -23.328 -14.025  0.00  0.00    +0.005 C 
ATOM     23  C   UNL     1      36.043 -22.505 -14.702  0.00  0.00    +0.005 C 
ATOM     24  C   UNL     1      34.373 -23.594 -12.750  0.00  0.00    +0.000 C 
ATOM     25  C   UNL     1      36.542 -22.771 -13.426  0.00  0.00    +0.000 C 
ATOM     26  C   UNL     1      35.706 -23.315 -12.450  0.00  0.00    +0.000 C 
ENDBRANCH  19  21
BRANCH  16  28
ATOM     27  OXT UNL     1      32.453 -21.177 -18.956  0.00  0.00    -0.244 OA
ATOM     28  C   UNL     1      33.405 -21.941 -18.999  0.00  0.00    +0.348 C 
BRANCH  28  29
ATOM     29  O   UNL     1      33.337 -23.197 -19.505  0.00  0.00    -0.476 OA
ATOM     30  H   UNL     1      33.989 -23.830 -19.277  0.00  0.00    +0.295 HD
ENDBRANCH  28  29
ENDBRANCH  16  28
ENDBRANCH   1  16
TORSDOF 7
ENDMDL
MODEL 4
REMARK VINA RESULT:     -11.7      4.064     10.088
REMARK  Name = 657131
REMARK  7 active torsions:
REMARK  status: ('A' for Active; 'I' for Inactive)
REMARK    1  A    between atoms: C_1  and  CA_2
REMARK    2  A    between atoms: C_1  and  C_3
REMARK    3  A    between atoms: CA_2  and  C_28
REMARK    4  A    between atoms: C_4  and  O_9
REMARK    5  A    between atoms: O_9  and  C_11
REMARK    6  A    between atoms: C_19  and  C_21
REMARK    7  A    between atoms: C_28  and  O_29
REMARK                            x       y       z     vdW  Elec       q    Type
REMARK                         _______ _______ _______ _____ _____    ______ ____
ROOT
ATOM      1  C   UNL     1      35.124 -18.327 -21.111  0.00  0.00    +0.074 C 
ENDROOT
BRANCH   1   2
ATOM      2  C   UNL     1      34.771 -19.521 -20.362  0.00  0.00    -0.016 C 
ATOM      3  C   UNL     1      34.090 -21.814 -18.925  0.00  0.00    +0.145 C 
ATOM      4  C   UNL     1      35.771 -20.329 -19.822  0.00  0.00    -0.001 C 
ATOM      5  C   UNL     1      33.429 -19.861 -20.184  0.00  0.00    -0.001 C 
ATOM      6  C   UNL     1      35.432 -21.475 -19.103  0.00  0.00    +0.037 C 
ATOM      7  C   UNL     1      33.089 -21.007 -19.465  0.00  0.00    +0.037 C 
BRANCH   3   8
ATOM      8  O   UNL     1      33.759 -22.931 -18.223  0.00  0.00    -0.453 OA
BRANCH   8  10
ATOM      9 BR   UNL     1      35.574 -22.904 -15.683  0.00  0.00    -0.046 Br
ATOM     10  C   UNL     1      33.044 -22.766 -17.048  0.00  0.00    +0.151 C 
ATOM     11  C   UNL     1      33.692 -22.731 -15.826  0.00  0.00    +0.069 C 
ATOM     12  C   UNL     1      31.669 -22.639 -17.144  0.00  0.00    +0.038 C 
ATOM     13  C   UNL     1      32.941 -22.563 -14.662  0.00  0.00    +0.010 C 
ATOM     14  C   UNL     1      30.919 -22.471 -15.979  0.00  0.00    +0.003 C 
ATOM     15  C   UNL     1      31.555 -22.434 -14.739  0.00  0.00    +0.001 C 
ENDBRANCH   8  10
ENDBRANCH   3   8
ENDBRANCH   1   2
BRANCH   1  16
ATOM     16  CA  UNL     1      34.565 -17.916 -22.273  0.00  0.00    +0.108 C 
ATOM     17  O   UNL     1      33.394 -16.921 -24.679  0.00  0.00    -0.270 OA
ATOM     18  N   UNL     1      34.306 -16.605 -22.563  0.00  0.00    -0.278 N 
ATOM     19  C   UNL     1      33.734 -16.186 -23.754  0.00  0.00    +0.249 C 
ATOM     20  H   UNL     1      34.539 -15.924 -21.892  0.00  0.00    +0.155 HD
BRANCH  19  21
ATOM     21  C   UNL     1      33.509 -14.723 -23.878  0.00  0.00    +0.054 C 
ATOM     22  C   UNL     1      32.987 -14.227 -25.055  0.00  0.00    +0.005 C 
ATOM     23  C   UNL     1      33.826 -13.908 -22.812  0.00  0.00    +0.005 C 
ATOM     24  C   UNL     1      32.775 -12.854 -25.171  0.00  0.00    +0.000 C 
ATOM     25  C   UNL     1      33.613 -12.534 -22.928  0.00  0.00    +0.000 C 
ATOM     26  C   UNL     1      33.088 -12.007 -24.108  0.00  0.00    +0.000 C 
ENDBRANCH  19  21
BRANCH  16  28
ATOM     27  OXT UNL     1      34.984 -19.554 -23.992  0.00  0.00    -0.244 OA
ATOM     28  C   UNL     1      34.198 -18.947 -23.280  0.00  0.00    +0.348 C 
BRANCH  28  29
ATOM     29  O   UNL     1      32.856 -19.134 -23.314  0.00  0.00    -0.476 OA
ATOM     30  H   UNL     1      32.304 -18.677 -22.711  0.00  0.00    +0.295 HD
ENDBRANCH  28  29
ENDBRANCH  16  28
ENDBRANCH   1  16
TORSDOF 7
ENDMDL
MODEL 5
REMARK VINA RESULT:     -11.7      4.629      7.931
REMARK  Name = 657131
REMARK  7 active torsions:
REMARK  status: ('A' for Active; 'I' for Inactive)
REMARK    1  A    between atoms: C_1  and  CA_2
REMARK    2  A    between atoms: C_1  and  C_3
REMARK    3  A    between atoms: CA_2  and  C_28
REMARK    4  A    between atoms: C_4  and  O_9
REMARK    5  A    between atoms: O_9  and  C_11
REMARK    6  A    between atoms: C_19  and  C_21
REMARK    7  A    between atoms: C_28  and  O_29
REMARK                            x       y       z     vdW  Elec       q    Type
REMARK                         _______ _______ _______ _____ _____    ______ ____
ROOT
ATOM      1  C   UNL     1      34.967 -21.615 -19.395  0.00  0.00    +0.074 C 
ENDROOT
BRANCH   1   2
ATOM      2  C   UNL     1      35.053 -20.372 -20.143  0.00  0.00    -0.016 C 
ATOM      3  C   UNL     1      35.213 -17.987 -21.582  0.00  0.00    +0.145 C 
ATOM      4  C   UNL     1      36.283 -19.736 -20.304  0.00  0.00    -0.001 C 
ATOM      5  C   UNL     1      33.902 -19.816 -20.703  0.00  0.00    -0.001 C 
ATOM      6  C   UNL     1      36.364 -18.543 -21.023  0.00  0.00    +0.037 C 
ATOM      7  C   UNL     1      33.983 -18.623 -21.422  0.00  0.00    +0.037 C 
BRANCH   3   8
ATOM      8  O   UNL     1      35.292 -16.824 -22.284  0.00  0.00    -0.453 OA
BRANCH   8  10
ATOM      9 BR   UNL     1      34.047 -15.311 -24.714  0.00  0.00    -0.046 Br
ATOM     10  C   UNL     1      34.459 -15.785 -21.905  0.00  0.00    +0.151 C 
ATOM     11  C   UNL     1      33.823 -15.007 -22.857  0.00  0.00    +0.069 C 
ATOM     12  C   UNL     1      34.290 -15.556 -20.550  0.00  0.00    +0.038 C 
ATOM     13  C   UNL     1      32.991 -13.967 -22.440  0.00  0.00    +0.010 C 
ATOM     14  C   UNL     1      33.457 -14.516 -20.135  0.00  0.00    +0.003 C 
ATOM     15  C   UNL     1      32.808 -13.722 -21.080  0.00  0.00    +0.001 C 
ENDBRANCH   8  10
ENDBRANCH   3   8
ENDBRANCH   1   2
BRANCH   1  16
ATOM     16  CA  UNL     1      34.991 -21.741 -18.047  0.00  0.00    +0.108 C 
ATOM     17  O   UNL     1      34.914 -22.054 -15.211  0.00  0.00    -0.270 OA
ATOM     18  N   UNL     1      33.932 -22.200 -17.314  0.00  0.00    -0.278 N 
ATOM     19  C   UNL     1      33.959 -22.329 -15.934  0.00  0.00    +0.249 C 
ATOM     20  H   UNL     1      33.109 -22.451 -17.791  0.00  0.00    +0.155 HD
BRANCH  19  21
ATOM     21  C   UNL     1      32.703 -22.823 -15.312  0.00  0.00    +0.054 C 
ATOM     22  C   UNL     1      31.536 -22.782 -16.047  0.00  0.00    +0.005 C 
ATOM     23  C   UNL     1      32.746 -23.307 -14.022  0.00  0.00    +0.005 C 
ATOM     24  C   UNL     1      30.358 -23.246 -15.463  0.00  0.00    +0.000 C 
ATOM     25  C   UNL     1      31.566 -23.772 -13.438  0.00  0.00    +0.000 C 
ATOM     26  C   UNL     1      30.372 -23.740 -14.160  0.00  0.00    +0.000 C 
ENDBRANCH  19  21
BRANCH  16  28
ATOM     27  OXT UNL     1      36.576 -20.196 -17.091  0.00  0.00    -0.244 OA
ATOM     28  C   UNL     1      36.229 -21.344 -17.326  0.00  0.00    +0.348 C 
BRANCH  28  29
ATOM     29  O   UNL     1      36.943 -22.434 -16.954  0.00  0.00    -0.476 OA
ATOM     30  H   UNL     1      36.814 -22.812 -16.107  0.00  0.00    +0.295 HD
ENDBRANCH  28  29
ENDBRANCH  16  28
ENDBRANCH   1  16
TORSDOF 7
ENDMDL
MODEL 6
REMARK VINA RESULT:     -11.5      3.232      9.905
REMARK  Name = 657131
REMARK  7 active torsions:
REMARK  status: ('A' for Active; 'I' for Inactive)
REMARK    1  A    between atoms: C_1  and  CA_2
REMARK    2  A    between atoms: C_1  and  C_3
REMARK    3  A    between atoms: CA_2  and  C_28
REMARK    4  A    between atoms: C_4  and  O_9
REMARK    5  A    between atoms: O_9  and  C_11
REMARK    6  A    between atoms: C_19  and  C_21
REMARK    7  A    between atoms: C_28  and  O_29
REMARK                            x       y       z     vdW  Elec       q    Type
REMARK                         _______ _______ _______ _____ _____    ______ ____
ROOT
ATOM      1  C   UNL     1      31.048 -11.150 -21.202  0.00  0.00    +0.074 C 
ENDROOT
BRANCH   1   2
ATOM      2  C   UNL     1      32.008 -12.182 -21.561  0.00  0.00    -0.016 C 
ATOM      3  C   UNL     1      33.849 -14.162 -22.247  0.00  0.00    +0.145 C 
ATOM      4  C   UNL     1      32.620 -12.162 -22.814  0.00  0.00    -0.001 C 
ATOM      5  C   UNL     1      32.317 -13.193 -20.650  0.00  0.00    -0.001 C 
ATOM      6  C   UNL     1      33.541 -13.152 -23.157  0.00  0.00    +0.037 C 
ATOM      7  C   UNL     1      33.238 -14.183 -20.994  0.00  0.00    +0.037 C 
BRANCH   3   8
ATOM      8  O   UNL     1      34.748 -15.127 -22.581  0.00  0.00    -0.453 OA
BRANCH   8  10
ATOM      9 BR   UNL     1      35.671 -17.750 -21.161  0.00  0.00    -0.046 Br
ATOM     10  C   UNL     1      34.266 -16.272 -23.194  0.00  0.00    +0.151 C 
ATOM     11  C   UNL     1      34.579 -17.525 -22.694  0.00  0.00    +0.069 C 
ATOM     12  C   UNL     1      33.468 -16.117 -24.313  0.00  0.00    +0.038 C 
ATOM     13  C   UNL     1      34.076 -18.658 -23.335  0.00  0.00    +0.010 C 
ATOM     14  C   UNL     1      32.965 -17.251 -24.954  0.00  0.00    +0.003 C 
ATOM     15  C   UNL     1      33.270 -18.520 -24.465  0.00  0.00    +0.001 C 
ENDBRANCH   8  10
ENDBRANCH   3   8
ENDBRANCH   1   2
BRANCH   1  16
ATOM     16  CA  UNL     1      31.339  -9.881 -20.832  0.00  0.00    +0.108 C 
ATOM     17  O   UNL     1      31.991  -7.180 -20.178  0.00  0.00    -0.270 OA
ATOM     18  N   UNL     1      31.855  -8.946 -21.685  0.00  0.00    -0.278 N 
ATOM     19  C   UNL     1      32.151  -7.647 -21.304  0.00  0.00    +0.249 C 
ATOM     20  H   UNL     1      32.025  -9.210 -22.618  0.00  0.00    +0.155 HD
BRANCH  19  21
ATOM     21  C   UNL     1      32.728  -6.782 -22.366  0.00  0.00    +0.054 C 
ATOM     22  C   UNL     1      32.372  -5.450 -22.405  0.00  0.00    +0.005 C 
ATOM     23  C   UNL     1      33.601  -7.339 -23.276  0.00  0.00    +0.005 C 
ATOM     24  C   UNL     1      32.913  -4.638 -23.401  0.00  0.00    +0.000 C 
ATOM     25  C   UNL     1      34.142  -6.527 -24.273  0.00  0.00    +0.000 C 
ATOM     26  C   UNL     1      33.798  -5.176 -24.336  0.00  0.00    +0.000 C 
ENDBRANCH  19  21
BRANCH  16  28
ATOM     27  OXT UNL     1      30.007  -9.236 -18.928  0.00  0.00    -0.244 OA
ATOM     28  C   UNL     1      31.098  -9.489 -19.418  0.00  0.00    +0.348 C 
BRANCH  28  29
ATOM     29  O   UNL     1      32.261  -9.444 -18.724  0.00  0.00    -0.476 OA
ATOM     30  H   UNL     1      32.869 -10.154 -18.783  0.00  0.00    +0.295 HD
ENDBRANCH  28  29
ENDBRANCH  16  28
ENDBRANCH   1  16
TORSDOF 7
ENDMDL
MODEL 7
REMARK VINA RESULT:     -11.4      5.659      9.450
REMARK  Name = 657131
REMARK  7 active torsions:
REMARK  status: ('A' for Active; 'I' for Inactive)
REMARK    1  A    between atoms: C_1  and  CA_2
REMARK    2  A    between atoms: C_1  and  C_3
REMARK    3  A    between atoms: CA_2  and  C_28
REMARK    4  A    between atoms: C_4  and  O_9
REMARK    5  A    between atoms: O_9  and  C_11
REMARK    6  A    between atoms: C_19  and  C_21
REMARK    7  A    between atoms: C_28  and  O_29
REMARK                            x       y       z     vdW  Elec       q    Type
REMARK                         _______ _______ _______ _____ _____    ______ ____
ROOT
ATOM      1  C   UNL     1      32.036 -22.056 -17.777  0.00  0.00    +0.074 C 
ENDROOT
BRANCH   1   2
ATOM      2  C   UNL     1      32.898 -21.346 -18.707  0.00  0.00    -0.016 C 
ATOM      3  C   UNL     1      34.551 -19.982 -20.494  0.00  0.00    +0.145 C 
ATOM      4  C   UNL     1      34.278 -21.550 -18.677  0.00  0.00    -0.001 C 
ATOM      5  C   UNL     1      32.345 -20.459 -19.632  0.00  0.00    -0.001 C 
ATOM      6  C   UNL     1      35.104 -20.869 -19.571  0.00  0.00    +0.037 C 
ATOM      7  C   UNL     1      33.172 -19.777 -20.525  0.00  0.00    +0.037 C 
BRANCH   3   8
ATOM      8  O   UNL     1      35.358 -19.318 -21.366  0.00  0.00    -0.453 OA
BRANCH   8  10
ATOM      9 BR   UNL     1      34.367 -19.505 -24.321  0.00  0.00    -0.046 Br
ATOM     10  C   UNL     1      34.909 -18.106 -21.864  0.00  0.00    +0.151 C 
ATOM     11  C   UNL     1      34.433 -18.008 -23.161  0.00  0.00    +0.069 C 
ATOM     12  C   UNL     1      34.953 -17.008 -21.023  0.00  0.00    +0.038 C 
ATOM     13  C   UNL     1      33.988 -16.772 -23.630  0.00  0.00    +0.010 C 
ATOM     14  C   UNL     1      34.508 -15.772 -21.494  0.00  0.00    +0.003 C 
ATOM     15  C   UNL     1      34.026 -15.654 -22.797  0.00  0.00    +0.001 C 
ENDBRANCH   8  10
ENDBRANCH   3   8
ENDBRANCH   1   2
BRANCH   1  16
ATOM     16  CA  UNL     1      32.415 -22.624 -16.609  0.00  0.00    +0.108 C 
ATOM     17  O   UNL     1      33.344 -23.817 -14.187  0.00  0.00    -0.270 OA
ATOM     18  N   UNL     1      33.715 -22.910 -16.297  0.00  0.00    -0.278 N 
ATOM     19  C   UNL     1      34.102 -23.491 -15.099  0.00  0.00    +0.249 C 
ATOM     20  H   UNL     1      34.412 -22.691 -16.956  0.00  0.00    +0.155 HD
BRANCH  19  21
ATOM     21  C   UNL     1      35.558 -23.747 -14.951  0.00  0.00    +0.054 C 
ATOM     22  C   UNL     1      35.970 -24.926 -14.366  0.00  0.00    +0.005 C 
ATOM     23  C   UNL     1      36.450 -22.799 -15.405  0.00  0.00    +0.005 C 
ATOM     24  C   UNL     1      37.337 -25.166 -14.227  0.00  0.00    +0.000 C 
ATOM     25  C   UNL     1      37.817 -23.039 -15.267  0.00  0.00    +0.000 C 
ATOM     26  C   UNL     1      38.260 -24.223 -14.677  0.00  0.00    +0.000 C 
ENDBRANCH  19  21
BRANCH  16  28
ATOM     27  OXT UNL     1      30.633 -23.951 -15.674  0.00  0.00    -0.244 OA
ATOM     28  C   UNL     1      31.360 -22.971 -15.620  0.00  0.00    +0.348 C 
BRANCH  28  29
ATOM     29  O   UNL     1      31.301 -22.045 -14.633  0.00  0.00    -0.476 OA
ATOM     30  H   UNL     1      32.087 -21.644 -14.318  0.00  0.00    +0.295 HD
ENDBRANCH  28  29
ENDBRANCH  16  28
ENDBRANCH   1  16
TORSDOF 7
ENDMDL
MODEL 8
REMARK VINA RESULT:     -11.4      2.948      9.886
REMARK  Name = 657131
REMARK  7 active torsions:
REMARK  status: ('A' for Active; 'I' for Inactive)
REMARK    1  A    between atoms: C_1  and  CA_2
REMARK    2  A    between atoms: C_1  and  C_3
REMARK    3  A    between atoms: CA_2  and  C_28
REMARK    4  A    between atoms: C_4  and  O_9
REMARK    5  A    between atoms: O_9  and  C_11
REMARK    6  A    between atoms: C_19  and  C_21
REMARK    7  A    between atoms: C_28  and  O_29
REMARK                            x       y       z     vdW  Elec       q    Type
REMARK                         _______ _______ _______ _____ _____    ______ ____
ROOT
ATOM      1  C   UNL     1      31.107 -11.595 -20.908  0.00  0.00    +0.074 C 
ENDROOT
BRANCH   1   2
ATOM      2  C   UNL     1      32.097 -12.552 -21.373  0.00  0.00    -0.016 C 
ATOM      3  C   UNL     1      33.995 -14.391 -22.268  0.00  0.00    +0.145 C 
ATOM      4  C   UNL     1      32.732 -13.398 -20.464  0.00  0.00    -0.001 C 
ATOM      5  C   UNL     1      32.411 -12.626 -22.730  0.00  0.00    -0.001 C 
ATOM      6  C   UNL     1      33.681 -14.318 -20.911  0.00  0.00    +0.037 C 
ATOM      7  C   UNL     1      33.360 -13.546 -23.178  0.00  0.00    +0.037 C 
BRANCH   3   8
ATOM      8  O   UNL     1      34.920 -15.288 -22.704  0.00  0.00    -0.453 OA
BRANCH   8  10
ATOM      9 BR   UNL     1      33.361 -16.735 -24.990  0.00  0.00    -0.046 Br
ATOM     10  C   UNL     1      34.693 -16.628 -22.440  0.00  0.00    +0.151 C 
ATOM     11  C   UNL     1      34.014 -17.422 -23.348  0.00  0.00    +0.069 C 
ATOM     12  C   UNL     1      35.166 -17.139 -21.243  0.00  0.00    +0.038 C 
ATOM     13  C   UNL     1      33.802 -18.769 -23.051  0.00  0.00    +0.010 C 
ATOM     14  C   UNL     1      34.954 -18.485 -20.946  0.00  0.00    +0.003 C 
ATOM     15  C   UNL     1      34.272 -19.300 -21.850  0.00  0.00    +0.001 C 
ENDBRANCH   8  10
ENDBRANCH   3   8
ENDBRANCH   1   2
BRANCH   1  16
ATOM     16  CA  UNL     1      31.278 -10.256 -20.800  0.00  0.00    +0.108 C 
ATOM     17  O   UNL     1      31.648  -7.427 -20.706  0.00  0.00    -0.270 OA
ATOM     18  N   UNL     1      31.474  -9.432 -21.872  0.00  0.00    -0.278 N 
ATOM     19  C   UNL     1      31.648  -8.061 -21.759  0.00  0.00    +0.249 C 
ATOM     20  H   UNL     1      31.492  -9.833 -22.771  0.00  0.00    +0.155 HD
BRANCH  19  21
ATOM     21  C   UNL     1      31.871  -7.336 -23.037  0.00  0.00    +0.054 C 
ATOM     22  C   UNL     1      30.806  -7.157 -23.895  0.00  0.00    +0.005 C 
ATOM     23  C   UNL     1      33.134  -6.862 -23.321  0.00  0.00    +0.005 C 
ATOM     24  C   UNL     1      31.015  -6.476 -25.093  0.00  0.00    +0.000 C 
ATOM     25  C   UNL     1      33.343  -6.180 -24.520  0.00  0.00    +0.000 C 
ATOM     26  C   UNL     1      32.283  -5.987 -25.407  0.00  0.00    +0.000 C 
ENDBRANCH  19  21
BRANCH  16  28
ATOM     27  OXT UNL     1      32.246  -9.503 -18.724  0.00  0.00    -0.244 OA
ATOM     28  C   UNL     1      31.268  -9.654 -19.440  0.00  0.00    +0.348 C 
BRANCH  28  29
ATOM     29  O   UNL     1      30.013  -9.287 -19.083  0.00  0.00    -0.476 OA
ATOM     30  H   UNL     1      29.526  -9.810 -18.478  0.00  0.00    +0.295 HD
ENDBRANCH  28  29
ENDBRANCH  16  28
ENDBRANCH   1  16
TORSDOF 7
ENDMDL
MODEL 9
REMARK VINA RESULT:     -11.1      7.001     11.267
REMARK  Name = 657131
REMARK  7 active torsions:
REMARK  status: ('A' for Active; 'I' for Inactive)
REMARK    1  A    between atoms: C_1  and  CA_2
REMARK    2  A    between atoms: C_1  and  C_3
REMARK    3  A    between atoms: CA_2  and  C_28
REMARK    4  A    between atoms: C_4  and  O_9
REMARK    5  A    between atoms: O_9  and  C_11
REMARK    6  A    between atoms: C_19  and  C_21
REMARK    7  A    between atoms: C_28  and  O_29
REMARK                            x       y       z     vdW  Elec       q    Type
REMARK                         _______ _______ _______ _____ _____    ______ ____
ROOT
ATOM      1  C   UNL     1      35.228 -22.348 -14.608  0.00  0.00    +0.074 C 
ENDROOT
BRANCH   1   2
ATOM      2  C   UNL     1      35.220 -22.082 -16.037  0.00  0.00    -0.016 C 
ATOM      3  C   UNL     1      35.202 -21.573 -18.780  0.00  0.00    +0.145 C 
ATOM      4  C   UNL     1      36.328 -21.490 -16.644  0.00  0.00    -0.001 C 
ATOM      5  C   UNL     1      34.103 -22.419 -16.802  0.00  0.00    -0.001 C 
ATOM      6  C   UNL     1      36.319 -21.236 -18.016  0.00  0.00    +0.037 C 
ATOM      7  C   UNL     1      34.094 -22.164 -18.173  0.00  0.00    +0.037 C 
BRANCH   3   8
ATOM      8  O   UNL     1      35.194 -21.325 -20.118  0.00  0.00    -0.453 OA
BRANCH   8  10
ATOM      9 BR   UNL     1      32.318 -20.126 -20.306  0.00  0.00    -0.046 Br
ATOM     10  C   UNL     1      35.185 -20.002 -20.528  0.00  0.00    +0.151 C 
ATOM     11  C   UNL     1      33.992 -19.314 -20.666  0.00  0.00    +0.069 C 
ATOM     12  C   UNL     1      36.403 -19.402 -20.794  0.00  0.00    +0.038 C 
ATOM     13  C   UNL     1      34.019 -17.982 -21.082  0.00  0.00    +0.010 C 
ATOM     14  C   UNL     1      36.430 -18.070 -21.209  0.00  0.00    +0.003 C 
ATOM     15  C   UNL     1      35.238 -17.361 -21.353  0.00  0.00    +0.001 C 
ENDBRANCH   8  10
ENDBRANCH   3   8
ENDBRANCH   1   2
BRANCH   1  16
ATOM     16  CA  UNL     1      34.297 -23.048 -13.919  0.00  0.00    +0.108 C 
ATOM     17  O   UNL     1      32.244 -24.496 -12.563  0.00  0.00    -0.270 OA
ATOM     18  N   UNL     1      33.000 -23.185 -14.329  0.00  0.00    -0.278 N 
ATOM     19  C   UNL     1      32.049 -23.904 -13.622  0.00  0.00    +0.249 C 
ATOM     20  H   UNL     1      32.729 -22.750 -15.169  0.00  0.00    +0.155 HD
BRANCH  19  21
ATOM     21  C   UNL     1      30.686 -23.919 -14.215  0.00  0.00    +0.054 C 
ATOM     22  C   UNL     1      30.337 -22.925 -15.106  0.00  0.00    +0.005 C 
ATOM     23  C   UNL     1      29.816 -24.926 -13.857  0.00  0.00    +0.005 C 
ATOM     24  C   UNL     1      29.059 -22.940 -15.663  0.00  0.00    +0.000 C 
ATOM     25  C   UNL     1      28.537 -24.941 -14.414  0.00  0.00    +0.000 C 
ATOM     26  C   UNL     1      28.159 -23.946 -15.317  0.00  0.00    +0.000 C 
ENDBRANCH  19  21
BRANCH  16  28
ATOM     27  OXT UNL     1      34.625 -23.178 -11.534  0.00  0.00    -0.244 OA
ATOM     28  C   UNL     1      34.704 -23.690 -12.641  0.00  0.00    +0.348 C 
BRANCH  28  29
ATOM     29  O   UNL     1      35.185 -24.938 -12.858  0.00  0.00    -0.476 OA
ATOM     30  H   UNL     1      35.286 -25.255 -13.733  0.00  0.00    +0.295 HD
ENDBRANCH  28  29
ENDBRANCH  16  28
ENDBRANCH   1  16
TORSDOF 7
ENDMDL
