MODEL 1
REMARK VINA RESULT:     -13.6      0.000      0.000
REMARK  Name = 10157080
REMARK  5 active torsions:
REMARK  status: ('A' for Active; 'I' for Inactive)
REMARK    1  A    between atoms: C_3  and  O_8
REMARK    2  A    between atoms: C_6  and  O_18
REMARK    3  A    between atoms: O_8  and  C_13
REMARK    4  A    between atoms: O_18  and  C_20
REMARK    5  A    between atoms: C_19  and  N_25
REMARK                            x       y       z     vdW  Elec       q    Type
REMARK                         _______ _______ _______ _____ _____    ______ ____
ROOT
ATOM      1  N   UNL     1      34.220 -22.781 -16.394  0.00  0.00    -0.277 NA
ATOM      2  N   UNL     1      31.840 -22.862 -16.764  0.00  0.00    -0.319 NA
ATOM      3  C   UNL     1      33.962 -22.642 -15.083  0.00  0.00    +0.278 C 
ATOM      4  C   UNL     1      32.704 -22.601 -14.532  0.00  0.00    +0.156 C 
ATOM      5  C   UNL     1      31.666 -22.718 -15.433  0.00  0.00    +0.113 C 
ATOM      6  C   UNL     1      33.124 -22.885 -17.169  0.00  0.00    +0.317 C 
ATOM      7  C   UNL     1      30.258 -22.687 -14.941  0.00  0.00    +0.063 C 
ENDROOT
BRANCH   3   8
ATOM      8  O   UNL     1      35.058 -22.534 -14.246  0.00  0.00    -0.429 OA
BRANCH   8  13
ATOM      9  O   UNL     1      39.602 -24.119 -14.547  0.00  0.00    -0.435 OA
ATOM     10  O   UNL     1      38.896 -26.421 -14.448  0.00  0.00    -0.435 OA
ATOM     11  C   UNL     1      38.251 -24.241 -14.445  0.00  0.00    +0.179 C 
ATOM     12  C   UNL     1      37.848 -25.556 -14.388  0.00  0.00    +0.177 C 
ATOM     13  C   UNL     1      35.990 -23.526 -14.295  0.00  0.00    +0.151 C 
ATOM     14  C   UNL     1      37.345 -23.202 -14.400  0.00  0.00    +0.078 C 
ATOM     15  C   UNL     1      36.516 -25.903 -14.284  0.00  0.00    +0.043 C 
ATOM     16  C   UNL     1      35.578 -24.870 -14.236  0.00  0.00    +0.041 C 
ATOM     17  C   UNL     1      40.005 -25.504 -14.548  0.00  0.00    +0.429 C 
ENDBRANCH   8  13
ENDBRANCH   3   8
BRANCH   6  18
ATOM     18  O   UNL     1      33.339 -23.027 -18.520  0.00  0.00    -0.375 OA
BRANCH  18  20
ATOM     19  C   UNL     1      34.101 -19.572 -20.691  0.00  0.00    +0.057 C 
ATOM     20  C   UNL     1      33.593 -21.880 -19.241  0.00  0.00    +0.161 C 
ATOM     21  C   UNL     1      32.786 -19.946 -20.415  0.00  0.00    +0.018 C 
ATOM     22  C   UNL     1      35.160 -20.358 -20.237  0.00  0.00    +0.018 C 
ATOM     23  C   UNL     1      32.530 -21.108 -19.685  0.00  0.00    +0.040 C 
ATOM     24  C   UNL     1      34.905 -21.519 -19.507  0.00  0.00    +0.040 C 
BRANCH  19  25
ATOM     25  N   UNL     1      34.355 -18.421 -21.415  0.00  0.00    -0.246 N 
ATOM     26  N   UNL     1      34.533 -17.048 -23.162  0.00  0.00    -0.224 NA
ATOM     27  C   UNL     1      34.793 -17.220 -20.916  0.00  0.00    +0.092 C 
ATOM     28  C   UNL     1      34.215 -18.262 -22.771  0.00  0.00    +0.172 C 
ATOM     29  C   UNL     1      34.894 -16.394 -22.011  0.00  0.00    +0.117 C 
ENDBRANCH  19  25
ENDBRANCH  18  20
ENDBRANCH   6  18
TORSDOF 5
ENDMDL
MODEL 2
REMARK VINA RESULT:     -12.8      2.568      5.587
REMARK  Name = 10157080
REMARK  5 active torsions:
REMARK  status: ('A' for Active; 'I' for Inactive)
REMARK    1  A    between atoms: C_3  and  O_8
REMARK    2  A    between atoms: C_6  and  O_18
REMARK    3  A    between atoms: O_8  and  C_13
REMARK    4  A    between atoms: O_18  and  C_20
REMARK    5  A    between atoms: C_19  and  N_25
REMARK                            x       y       z     vdW  Elec       q    Type
REMARK                         _______ _______ _______ _____ _____    ______ ____
ROOT
ATOM      1  N   UNL     1      32.842 -23.040 -16.177  0.00  0.00    -0.277 NA
ATOM      2  N   UNL     1      35.146 -22.521 -16.660  0.00  0.00    -0.319 NA
ATOM      3  C   UNL     1      33.140 -22.922 -14.873  0.00  0.00    +0.278 C 
ATOM      4  C   UNL     1      34.384 -22.615 -14.379  0.00  0.00    +0.156 C 
ATOM      5  C   UNL     1      35.363 -22.422 -15.332  0.00  0.00    +0.113 C 
ATOM      6  C   UNL     1      33.881 -22.829 -17.007  0.00  0.00    +0.317 C 
ATOM      7  C   UNL     1      36.751 -22.083 -14.903  0.00  0.00    +0.063 C 
ENDROOT
BRANCH   3   8
ATOM      8  O   UNL     1      32.103 -23.128 -13.981  0.00  0.00    -0.429 OA
BRANCH   8  13
ATOM      9  O   UNL     1      28.350 -21.652 -16.625  0.00  0.00    -0.435 OA
ATOM     10  O   UNL     1      27.091 -23.640 -16.103  0.00  0.00    -0.435 OA
ATOM     11  C   UNL     1      29.037 -22.501 -15.813  0.00  0.00    +0.179 C 
ATOM     12  C   UNL     1      28.318 -23.636 -15.515  0.00  0.00    +0.177 C 
ATOM     13  C   UNL     1      30.850 -23.285 -14.494  0.00  0.00    +0.151 C 
ATOM     14  C   UNL     1      30.308 -22.296 -15.317  0.00  0.00    +0.078 C 
ATOM     15  C   UNL     1      28.830 -24.628 -14.704  0.00  0.00    +0.043 C 
ATOM     16  C   UNL     1      30.116 -24.445 -14.189  0.00  0.00    +0.041 C 
ATOM     17  C   UNL     1      27.118 -22.381 -16.805  0.00  0.00    +0.429 C 
ENDBRANCH   8  13
ENDBRANCH   3   8
BRANCH   6  18
ATOM     18  O   UNL     1      33.624 -22.942 -18.354  0.00  0.00    -0.375 OA
BRANCH  18  20
ATOM     19  C   UNL     1      34.188 -19.554 -20.683  0.00  0.00    +0.057 C 
ATOM     20  C   UNL     1      33.811 -21.817 -19.127  0.00  0.00    +0.161 C 
ATOM     21  C   UNL     1      32.899 -19.943 -20.320  0.00  0.00    +0.018 C 
ATOM     22  C   UNL     1      35.287 -20.302 -20.263  0.00  0.00    +0.018 C 
ATOM     23  C   UNL     1      32.709 -21.082 -19.536  0.00  0.00    +0.040 C 
ATOM     24  C   UNL     1      35.098 -21.441 -19.480  0.00  0.00    +0.040 C 
BRANCH  19  25
ATOM     25  N   UNL     1      34.376 -18.425 -21.460  0.00  0.00    -0.246 N 
ATOM     26  N   UNL     1      34.434 -17.114 -23.262  0.00  0.00    -0.224 NA
ATOM     27  C   UNL     1      34.803 -17.195 -21.027  0.00  0.00    +0.092 C 
ATOM     28  C   UNL     1      34.169 -18.321 -22.813  0.00  0.00    +0.172 C 
ATOM     29  C   UNL     1      34.830 -16.408 -22.155  0.00  0.00    +0.117 C 
ENDBRANCH  19  25
ENDBRANCH  18  20
ENDBRANCH   6  18
TORSDOF 5
ENDMDL
MODEL 3
REMARK VINA RESULT:     -12.7      4.402      8.347
REMARK  Name = 10157080
REMARK  5 active torsions:
REMARK  status: ('A' for Active; 'I' for Inactive)
REMARK    1  A    between atoms: C_3  and  O_8
REMARK    2  A    between atoms: C_6  and  O_18
REMARK    3  A    between atoms: O_8  and  C_13
REMARK    4  A    between atoms: O_18  and  C_20
REMARK    5  A    between atoms: C_19  and  N_25
REMARK                            x       y       z     vdW  Elec       q    Type
REMARK                         _______ _______ _______ _____ _____    ______ ____
ROOT
ATOM      1  N   UNL     1      34.789 -17.224 -20.659  0.00  0.00    -0.277 NA
ATOM      2  N   UNL     1      34.067 -15.809 -22.473  0.00  0.00    -0.319 NA
ATOM      3  C   UNL     1      34.959 -18.206 -21.559  0.00  0.00    +0.278 C 
ATOM      4  C   UNL     1      34.714 -18.087 -22.905  0.00  0.00    +0.156 C 
ATOM      5  C   UNL     1      34.263 -16.847 -23.312  0.00  0.00    +0.113 C 
ATOM      6  C   UNL     1      34.345 -16.063 -21.179  0.00  0.00    +0.317 C 
ATOM      7  C   UNL     1      33.967 -16.609 -24.754  0.00  0.00    +0.063 C 
ENDROOT
BRANCH   3   8
ATOM      8  O   UNL     1      35.416 -19.417 -21.072  0.00  0.00    -0.429 OA
BRANCH   8  13
ATOM      9  O   UNL     1      34.565 -22.527 -17.486  0.00  0.00    -0.435 OA
ATOM     10  O   UNL     1      32.179 -22.319 -17.757  0.00  0.00    -0.435 OA
ATOM     11  C   UNL     1      34.232 -21.666 -18.486  0.00  0.00    +0.179 C 
ATOM     12  C   UNL     1      32.869 -21.547 -18.640  0.00  0.00    +0.177 C 
ATOM     13  C   UNL     1      34.583 -20.128 -20.262  0.00  0.00    +0.151 C 
ATOM     14  C   UNL     1      35.116 -20.968 -19.282  0.00  0.00    +0.078 C 
ATOM     15  C   UNL     1      32.316 -20.724 -19.600  0.00  0.00    +0.043 C 
ATOM     16  C   UNL     1      33.190 -20.006 -20.420  0.00  0.00    +0.041 C 
ATOM     17  C   UNL     1      33.259 -22.936 -17.028  0.00  0.00    +0.429 C 
ENDBRANCH   8  13
ENDBRANCH   3   8
BRANCH   6  18
ATOM     18  O   UNL     1      34.153 -15.028 -20.294  0.00  0.00    -0.375 OA
BRANCH  18  20
ATOM     19  C   UNL     1      32.260 -11.629 -21.738  0.00  0.00    +0.057 C 
ATOM     20  C   UNL     1      33.524 -13.900 -20.774  0.00  0.00    +0.161 C 
ATOM     21  C   UNL     1      33.434 -12.081 -22.339  0.00  0.00    +0.018 C 
ATOM     22  C   UNL     1      31.721 -12.319 -20.652  0.00  0.00    +0.018 C 
ATOM     23  C   UNL     1      34.071 -13.224 -21.855  0.00  0.00    +0.040 C 
ATOM     24  C   UNL     1      32.357 -13.461 -20.167  0.00  0.00    +0.040 C 
BRANCH  19  25
ATOM     25  N   UNL     1      31.629 -10.495 -22.219  0.00  0.00    -0.246 N 
ATOM     26  N   UNL     1      31.262  -8.668 -23.442  0.00  0.00    -0.224 NA
ATOM     27  C   UNL     1      30.425  -9.988 -21.801  0.00  0.00    +0.092 C 
ATOM     28  C   UNL     1      32.090  -9.662 -23.208  0.00  0.00    +0.172 C 
ATOM     29  C   UNL     1      30.223  -8.866 -22.568  0.00  0.00    +0.117 C 
ENDBRANCH  19  25
ENDBRANCH  18  20
ENDBRANCH   6  18
TORSDOF 5
ENDMDL
MODEL 4
REMARK VINA RESULT:     -12.7      4.527     10.644
REMARK  Name = 10157080
REMARK  5 active torsions:
REMARK  status: ('A' for Active; 'I' for Inactive)
REMARK    1  A    between atoms: C_3  and  O_8
REMARK    2  A    between atoms: C_6  and  O_18
REMARK    3  A    between atoms: O_8  and  C_13
REMARK    4  A    between atoms: O_18  and  C_20
REMARK    5  A    between atoms: C_19  and  N_25
REMARK                            x       y       z     vdW  Elec       q    Type
REMARK                         _______ _______ _______ _____ _____    ______ ____
ROOT
ATOM      1  N   UNL     1      35.062 -17.313 -20.768  0.00  0.00    -0.277 NA
ATOM      2  N   UNL     1      34.762 -18.367 -22.915  0.00  0.00    -0.319 NA
ATOM      3  C   UNL     1      34.477 -16.218 -21.280  0.00  0.00    +0.278 C 
ATOM      4  C   UNL     1      34.015 -16.106 -22.568  0.00  0.00    +0.156 C 
ATOM      5  C   UNL     1      34.185 -17.228 -23.352  0.00  0.00    +0.113 C 
ATOM      6  C   UNL     1      35.171 -18.341 -21.632  0.00  0.00    +0.317 C 
ATOM      7  C   UNL     1      33.717 -17.214 -24.769  0.00  0.00    +0.063 C 
ENDROOT
BRANCH   3   8
ATOM      8  O   UNL     1      34.341 -15.136 -20.428  0.00  0.00    -0.429 OA
BRANCH   8  13
ATOM      9  O   UNL     1      33.437 -11.464 -23.419  0.00  0.00    -0.435 OA
ATOM     10  O   UNL     1      31.406 -10.899 -22.250  0.00  0.00    -0.435 OA
ATOM     11  C   UNL     1      33.200 -12.292 -22.365  0.00  0.00    +0.179 C 
ATOM     12  C   UNL     1      32.040 -11.970 -21.698  0.00  0.00    +0.177 C 
ATOM     13  C   UNL     1      33.587 -14.085 -20.857  0.00  0.00    +0.151 C 
ATOM     14  C   UNL     1      33.996 -13.346 -21.969  0.00  0.00    +0.078 C 
ATOM     15  C   UNL     1      31.613 -12.684 -20.597  0.00  0.00    +0.043 C 
ATOM     16  C   UNL     1      32.402 -13.756 -20.175  0.00  0.00    +0.041 C 
ATOM     17  C   UNL     1      32.296 -10.585 -23.340  0.00  0.00    +0.429 C 
ENDBRANCH   8  13
ENDBRANCH   3   8
BRANCH   6  18
ATOM     18  O   UNL     1      35.767 -19.485 -21.154  0.00  0.00    -0.375 OA
BRANCH  18  20
ATOM     19  C   UNL     1      33.738 -21.584 -18.204  0.00  0.00    +0.057 C 
ATOM     20  C   UNL     1      35.094 -20.182 -20.174  0.00  0.00    +0.161 C 
ATOM     21  C   UNL     1      33.026 -20.937 -19.214  0.00  0.00    +0.018 C 
ATOM     22  C   UNL     1      35.132 -21.527 -18.186  0.00  0.00    +0.018 C 
ATOM     23  C   UNL     1      33.708 -20.231 -20.206  0.00  0.00    +0.040 C 
ATOM     24  C   UNL     1      35.814 -20.822 -19.177  0.00  0.00    +0.040 C 
BRANCH  19  25
ATOM     25  N   UNL     1      33.062 -22.283 -17.221  0.00  0.00    -0.246 N 
ATOM     26  N   UNL     1      31.363 -23.135 -16.055  0.00  0.00    -0.224 NA
ATOM     27  C   UNL     1      33.622 -22.991 -16.187  0.00  0.00    +0.092 C 
ATOM     28  C   UNL     1      31.700 -22.403 -17.093  0.00  0.00    +0.172 C 
ATOM     29  C   UNL     1      32.556 -23.503 -15.486  0.00  0.00    +0.117 C 
ENDBRANCH  19  25
ENDBRANCH  18  20
ENDBRANCH   6  18
TORSDOF 5
ENDMDL
MODEL 5
REMARK VINA RESULT:     -12.4      1.753      2.528
REMARK  Name = 10157080
REMARK  5 active torsions:
REMARK  status: ('A' for Active; 'I' for Inactive)
REMARK    1  A    between atoms: C_3  and  O_8
REMARK    2  A    between atoms: C_6  and  O_18
REMARK    3  A    between atoms: O_8  and  C_13
REMARK    4  A    between atoms: O_18  and  C_20
REMARK    5  A    between atoms: C_19  and  N_25
REMARK                            x       y       z     vdW  Elec       q    Type
REMARK                         _______ _______ _______ _____ _____    ______ ____
ROOT
ATOM      1  N   UNL     1      36.184 -21.419 -17.643  0.00  0.00    -0.277 NA
ATOM      2  N   UNL     1      34.031 -22.164 -18.431  0.00  0.00    -0.319 NA
ATOM      3  C   UNL     1      35.771 -21.704 -16.398  0.00  0.00    +0.278 C 
ATOM      4  C   UNL     1      34.535 -22.210 -16.078  0.00  0.00    +0.156 C 
ATOM      5  C   UNL     1      33.694 -22.423 -17.151  0.00  0.00    +0.113 C 
ATOM      6  C   UNL     1      35.273 -21.670 -18.603  0.00  0.00    +0.317 C 
ATOM      7  C   UNL     1      32.326 -22.971 -16.915  0.00  0.00    +0.063 C 
ENDROOT
BRANCH   3   8
ATOM      8  O   UNL     1      36.675 -21.465 -15.378  0.00  0.00    -0.429 OA
BRANCH   8  13
ATOM      9  O   UNL     1      39.814 -25.124 -15.273  0.00  0.00    -0.435 OA
ATOM     10  O   UNL     1      39.075 -25.808 -13.083  0.00  0.00    -0.435 OA
ATOM     11  C   UNL     1      38.822 -24.328 -14.790  0.00  0.00    +0.179 C 
ATOM     12  C   UNL     1      38.400 -24.718 -13.540  0.00  0.00    +0.177 C 
ATOM     13  C   UNL     1      37.253 -22.544 -14.779  0.00  0.00    +0.151 C 
ATOM     14  C   UNL     1      38.268 -23.243 -15.437  0.00  0.00    +0.078 C 
ATOM     15  C   UNL     1      37.400 -24.045 -12.868  0.00  0.00    +0.043 C 
ATOM     16  C   UNL     1      36.822 -22.943 -13.501  0.00  0.00    +0.041 C 
ATOM     17  C   UNL     1      39.970 -26.059 -14.186  0.00  0.00    +0.429 C 
ENDBRANCH   8  13
ENDBRANCH   3   8
BRANCH   6  18
ATOM     18  O   UNL     1      35.650 -21.390 -19.896  0.00  0.00    -0.375 OA
BRANCH  18  20
ATOM     19  C   UNL     1      34.766 -17.605 -21.348  0.00  0.00    +0.057 C 
ATOM     20  C   UNL     1      35.356 -20.134 -20.378  0.00  0.00    +0.161 C 
ATOM     21  C   UNL     1      36.086 -17.950 -21.059  0.00  0.00    +0.018 C 
ATOM     22  C   UNL     1      33.743 -18.532 -21.150  0.00  0.00    +0.018 C 
ATOM     23  C   UNL     1      36.383 -19.222 -20.571  0.00  0.00    +0.040 C 
ATOM     24  C   UNL     1      34.039 -19.804 -20.662  0.00  0.00    +0.040 C 
BRANCH  19  25
ATOM     25  N   UNL     1      34.471 -16.342 -21.831  0.00  0.00    -0.246 N 
ATOM     26  N   UNL     1      33.928 -14.180 -21.836  0.00  0.00    -0.224 NA
ATOM     27  C   UNL     1      34.440 -15.956 -23.148  0.00  0.00    +0.092 C 
ATOM     28  C   UNL     1      34.155 -15.235 -21.084  0.00  0.00    +0.172 C 
ATOM     29  C   UNL     1      34.103 -14.624 -23.122  0.00  0.00    +0.117 C 
ENDBRANCH  19  25
ENDBRANCH  18  20
ENDBRANCH   6  18
TORSDOF 5
ENDMDL
MODEL 6
REMARK VINA RESULT:     -12.3      4.266      8.369
REMARK  Name = 10157080
REMARK  5 active torsions:
REMARK  status: ('A' for Active; 'I' for Inactive)
REMARK    1  A    between atoms: C_3  and  O_8
REMARK    2  A    between atoms: C_6  and  O_18
REMARK    3  A    between atoms: O_8  and  C_13
REMARK    4  A    between atoms: O_18  and  C_20
REMARK    5  A    between atoms: C_19  and  N_25
REMARK                            x       y       z     vdW  Elec       q    Type
REMARK                         _______ _______ _______ _____ _____    ______ ____
ROOT
ATOM      1  N   UNL     1      35.127 -17.191 -22.384  0.00  0.00    -0.277 NA
ATOM      2  N   UNL     1      33.617 -16.869 -24.236  0.00  0.00    -0.319 NA
ATOM      3  C   UNL     1      34.706 -18.465 -22.327  0.00  0.00    +0.278 C 
ATOM      4  C   UNL     1      33.765 -19.018 -23.161  0.00  0.00    +0.156 C 
ATOM      5  C   UNL     1      33.248 -18.160 -24.111  0.00  0.00    +0.113 C 
ATOM      6  C   UNL     1      34.547 -16.456 -23.353  0.00  0.00    +0.317 C 
ATOM      7  C   UNL     1      32.219 -18.659 -25.069  0.00  0.00    +0.063 C 
ENDROOT
BRANCH   3   8
ATOM      8  O   UNL     1      35.276 -19.260 -21.349  0.00  0.00    -0.429 OA
BRANCH   8  13
ATOM      9  O   UNL     1      34.389 -22.466 -17.857  0.00  0.00    -0.435 OA
ATOM     10  O   UNL     1      32.015 -22.065 -17.975  0.00  0.00    -0.435 OA
ATOM     11  C   UNL     1      34.068 -21.535 -18.797  0.00  0.00    +0.179 C 
ATOM     12  C   UNL     1      32.713 -21.306 -18.864  0.00  0.00    +0.177 C 
ATOM     13  C   UNL     1      34.437 -19.944 -20.522  0.00  0.00    +0.151 C 
ATOM     14  C   UNL     1      34.957 -20.868 -19.614  0.00  0.00    +0.078 C 
ATOM     15  C   UNL     1      32.172 -20.399 -19.752  0.00  0.00    +0.043 C 
ATOM     16  C   UNL     1      33.052 -19.710 -20.590  0.00  0.00    +0.041 C 
ATOM     17  C   UNL     1      33.084 -22.796 -17.340  0.00  0.00    +0.429 C 
ENDBRANCH   8  13
ENDBRANCH   3   8
BRANCH   6  18
ATOM     18  O   UNL     1      34.945 -15.143 -23.448  0.00  0.00    -0.375 OA
BRANCH  18  20
ATOM     19  C   UNL     1      32.481 -12.285 -21.721  0.00  0.00    +0.057 C 
ATOM     20  C   UNL     1      34.127 -14.194 -22.875  0.00  0.00    +0.161 C 
ATOM     21  C   UNL     1      32.771 -12.224 -23.084  0.00  0.00    +0.018 C 
ATOM     22  C   UNL     1      33.019 -13.306 -20.939  0.00  0.00    +0.018 C 
ATOM     23  C   UNL     1      33.599 -13.185 -23.665  0.00  0.00    +0.040 C 
ATOM     24  C   UNL     1      33.846 -14.267 -21.519  0.00  0.00    +0.040 C 
BRANCH  19  25
ATOM     25  N   UNL     1      31.660 -11.332 -21.146  0.00  0.00    -0.246 N 
ATOM     26  N   UNL     1      30.808  -9.962 -19.607  0.00  0.00    -0.224 NA
ATOM     27  C   UNL     1      30.626 -10.666 -21.754  0.00  0.00    +0.092 C 
ATOM     28  C   UNL     1      31.725 -10.870 -19.854  0.00  0.00    +0.172 C 
ATOM     29  C   UNL     1      30.120  -9.831 -20.787  0.00  0.00    +0.117 C 
ENDBRANCH  19  25
ENDBRANCH  18  20
ENDBRANCH   6  18
TORSDOF 5
ENDMDL
MODEL 7
REMARK VINA RESULT:     -12.0      2.951      5.307
REMARK  Name = 10157080
REMARK  5 active torsions:
REMARK  status: ('A' for Active; 'I' for Inactive)
REMARK    1  A    between atoms: C_3  and  O_8
REMARK    2  A    between atoms: C_6  and  O_18
REMARK    3  A    between atoms: O_8  and  C_13
REMARK    4  A    between atoms: O_18  and  C_20
REMARK    5  A    between atoms: C_19  and  N_25
REMARK                            x       y       z     vdW  Elec       q    Type
REMARK                         _______ _______ _______ _____ _____    ______ ____
ROOT
ATOM      1  N   UNL     1      36.048 -19.560 -20.321  0.00  0.00    -0.277 NA
ATOM      2  N   UNL     1      33.803 -19.131 -21.087  0.00  0.00    -0.319 NA
ATOM      3  C   UNL     1      35.538 -20.500 -19.509  0.00  0.00    +0.278 C 
ATOM      4  C   UNL     1      34.205 -20.818 -19.418  0.00  0.00    +0.156 C 
ATOM      5  C   UNL     1      33.371 -20.091 -20.243  0.00  0.00    +0.113 C 
ATOM      6  C   UNL     1      35.134 -18.921 -21.075  0.00  0.00    +0.317 C 
ATOM      7  C   UNL     1      31.904 -20.357 -20.223  0.00  0.00    +0.063 C 
ENDROOT
BRANCH   3   8
ATOM      8  O   UNL     1      36.441 -21.187 -18.717  0.00  0.00    -0.429 OA
BRANCH   8  13
ATOM      9  O   UNL     1      37.074 -22.215 -14.048  0.00  0.00    -0.435 OA
ATOM     10  O   UNL     1      34.804 -22.994 -13.824  0.00  0.00    -0.435 OA
ATOM     11  C   UNL     1      36.380 -22.128 -15.215  0.00  0.00    +0.179 C 
ATOM     12  C   UNL     1      35.083 -22.572 -15.087  0.00  0.00    +0.177 C 
ATOM     13  C   UNL     1      36.003 -21.644 -17.510  0.00  0.00    +0.151 C 
ATOM     14  C   UNL     1      36.870 -21.657 -16.416  0.00  0.00    +0.078 C 
ATOM     15  C   UNL     1      34.206 -22.570 -16.153  0.00  0.00    +0.043 C 
ATOM     16  C   UNL     1      34.678 -22.098 -17.380  0.00  0.00    +0.041 C 
ATOM     17  C   UNL     1      36.069 -22.764 -13.171  0.00  0.00    +0.429 C 
ENDBRANCH   8  13
ENDBRANCH   3   8
BRANCH   6  18
ATOM     18  O   UNL     1      35.609 -17.946 -21.921  0.00  0.00    -0.375 OA
BRANCH  18  20
ATOM     19  C   UNL     1      33.563 -14.335 -21.993  0.00  0.00    +0.057 C 
ATOM     20  C   UNL     1      34.929 -16.747 -21.945  0.00  0.00    +0.161 C 
ATOM     21  C   UNL     1      33.982 -14.923 -23.186  0.00  0.00    +0.018 C 
ATOM     22  C   UNL     1      33.832 -14.961 -20.775  0.00  0.00    +0.018 C 
ATOM     23  C   UNL     1      34.669 -16.137 -23.163  0.00  0.00    +0.040 C 
ATOM     24  C   UNL     1      34.518 -16.174 -20.751  0.00  0.00    +0.040 C 
BRANCH  19  25
ATOM     25  N   UNL     1      32.882 -13.132 -22.016  0.00  0.00    -0.246 N 
ATOM     26  N   UNL     1      32.235 -11.110 -22.696  0.00  0.00    -0.224 NA
ATOM     27  C   UNL     1      31.935 -12.709 -21.118  0.00  0.00    +0.092 C 
ATOM     28  C   UNL     1      33.025 -12.131 -22.945  0.00  0.00    +0.172 C 
ATOM     29  C   UNL     1      31.554 -11.464 -21.559  0.00  0.00    +0.117 C 
ENDBRANCH  19  25
ENDBRANCH  18  20
ENDBRANCH   6  18
TORSDOF 5
ENDMDL
MODEL 8
REMARK VINA RESULT:     -11.8      3.723      9.965
REMARK  Name = 10157080
REMARK  5 active torsions:
REMARK  status: ('A' for Active; 'I' for Inactive)
REMARK    1  A    between atoms: C_3  and  O_8
REMARK    2  A    between atoms: C_6  and  O_18
REMARK    3  A    between atoms: O_8  and  C_13
REMARK    4  A    between atoms: O_18  and  C_20
REMARK    5  A    between atoms: C_19  and  N_25
REMARK                            x       y       z     vdW  Elec       q    Type
REMARK                         _______ _______ _______ _____ _____    ______ ____
ROOT
ATOM      1  N   UNL     1      35.899 -19.574 -20.804  0.00  0.00    -0.277 NA
ATOM      2  N   UNL     1      34.204 -20.523 -19.376  0.00  0.00    -0.319 NA
ATOM      3  C   UNL     1      34.911 -19.130 -21.597  0.00  0.00    +0.278 C 
ATOM      4  C   UNL     1      33.571 -19.330 -21.368  0.00  0.00    +0.156 C 
ATOM      5  C   UNL     1      33.272 -20.043 -20.225  0.00  0.00    +0.113 C 
ATOM      6  C   UNL     1      35.479 -20.256 -19.721  0.00  0.00    +0.317 C 
ATOM      7  C   UNL     1      31.847 -20.316 -19.881  0.00  0.00    +0.063 C 
ENDROOT
BRANCH   3   8
ATOM      8  O   UNL     1      35.294 -18.420 -22.722  0.00  0.00    -0.429 OA
BRANCH   8  13
ATOM      9  O   UNL     1      33.157 -15.049 -25.427  0.00  0.00    -0.435 OA
ATOM     10  O   UNL     1      33.084 -13.496 -23.585  0.00  0.00    -0.435 OA
ATOM     11  C   UNL     1      33.698 -15.568 -24.291  0.00  0.00    +0.179 C 
ATOM     12  C   UNL     1      33.656 -14.681 -23.240  0.00  0.00    +0.177 C 
ATOM     13  C   UNL     1      34.750 -17.185 -22.905  0.00  0.00    +0.151 C 
ATOM     14  C   UNL     1      34.239 -16.829 -24.155  0.00  0.00    +0.078 C 
ATOM     15  C   UNL     1      34.153 -15.007 -21.994  0.00  0.00    +0.043 C 
ATOM     16  C   UNL     1      34.707 -16.279 -21.830  0.00  0.00    +0.041 C 
ATOM     17  C   UNL     1      32.769 -13.736 -24.972  0.00  0.00    +0.429 C 
ENDBRANCH   8  13
ENDBRANCH   3   8
BRANCH   6  18
ATOM     18  O   UNL     1      36.456 -20.734 -18.879  0.00  0.00    -0.375 OA
BRANCH  18  20
ATOM     19  C   UNL     1      35.212 -22.408 -15.292  0.00  0.00    +0.057 C 
ATOM     20  C   UNL     1      36.043 -21.290 -17.688  0.00  0.00    +0.161 C 
ATOM     21  C   UNL     1      34.426 -22.548 -16.435  0.00  0.00    +0.018 C 
ATOM     22  C   UNL     1      36.416 -21.707 -15.353  0.00  0.00    +0.018 C 
ATOM     23  C   UNL     1      34.844 -21.986 -17.642  0.00  0.00    +0.040 C 
ATOM     24  C   UNL     1      36.835 -21.145 -16.559  0.00  0.00    +0.040 C 
BRANCH  19  25
ATOM     25  N   UNL     1      34.796 -22.966 -14.096  0.00  0.00    -0.246 N 
ATOM     26  N   UNL     1      33.448 -23.871 -12.569  0.00  0.00    -0.224 NA
ATOM     27  C   UNL     1      35.574 -23.209 -12.992  0.00  0.00    +0.092 C 
ATOM     28  C   UNL     1      33.525 -23.383 -13.787  0.00  0.00    +0.172 C 
ATOM     29  C   UNL     1      34.721 -23.765 -12.068  0.00  0.00    +0.117 C 
ENDBRANCH  19  25
ENDBRANCH  18  20
ENDBRANCH   6  18
TORSDOF 5
ENDMDL
MODEL 9
REMARK VINA RESULT:     -11.4      1.951      2.955
REMARK  Name = 10157080
REMARK  5 active torsions:
REMARK  status: ('A' for Active; 'I' for Inactive)
REMARK    1  A    between atoms: C_3  and  O_8
REMARK    2  A    between atoms: C_6  and  O_18
REMARK    3  A    between atoms: O_8  and  C_13
REMARK    4  A    between atoms: O_18  and  C_20
REMARK    5  A    between atoms: C_19  and  N_25
REMARK                            x       y       z     vdW  Elec       q    Type
REMARK                         _______ _______ _______ _____ _____    ______ ____
ROOT
ATOM      1  N   UNL     1      34.465 -22.883 -16.820  0.00  0.00    -0.277 NA
ATOM      2  N   UNL     1      32.073 -22.727 -16.572  0.00  0.00    -0.319 NA
ATOM      3  C   UNL     1      34.558 -22.824 -15.482  0.00  0.00    +0.278 C 
ATOM      4  C   UNL     1      33.489 -22.716 -14.626  0.00  0.00    +0.156 C 
ATOM      5  C   UNL     1      32.252 -22.672 -15.236  0.00  0.00    +0.113 C 
ATOM      6  C   UNL     1      33.206 -22.831 -17.294  0.00  0.00    +0.317 C 
ATOM      7  C   UNL     1      31.023 -22.556 -14.398  0.00  0.00    +0.063 C 
ENDROOT
BRANCH   3   8
ATOM      8  O   UNL     1      35.834 -22.877 -14.948  0.00  0.00    -0.429 OA
BRANCH   8  13
ATOM      9  O   UNL     1      34.502 -24.670 -10.675  0.00  0.00    -0.435 OA
ATOM     10  O   UNL     1      36.194 -23.401  -9.519  0.00  0.00    -0.435 OA
ATOM     11  C   UNL     1      35.244 -23.906 -11.522  0.00  0.00    +0.179 C 
ATOM     12  C   UNL     1      36.210 -23.182 -10.862  0.00  0.00    +0.177 C 
ATOM     13  C   UNL     1      35.949 -22.985 -13.595  0.00  0.00    +0.151 C 
ATOM     14  C   UNL     1      35.088 -23.829 -12.890  0.00  0.00    +0.078 C 
ATOM     15  C   UNL     1      37.073 -22.341 -11.534  0.00  0.00    +0.043 C 
ATOM     16  C   UNL     1      36.937 -22.245 -12.921  0.00  0.00    +0.041 C 
ATOM     17  C   UNL     1      35.110 -24.345  -9.408  0.00  0.00    +0.429 C 
ENDBRANCH   8  13
ENDBRANCH   3   8
BRANCH   6  18
ATOM     18  O   UNL     1      33.061 -22.886 -18.660  0.00  0.00    -0.375 OA
BRANCH  18  20
ATOM     19  C   UNL     1      34.018 -19.464 -20.805  0.00  0.00    +0.057 C 
ATOM     20  C   UNL     1      33.378 -21.750 -19.373  0.00  0.00    +0.161 C 
ATOM     21  C   UNL     1      35.029 -20.328 -20.383  0.00  0.00    +0.018 C 
ATOM     22  C   UNL     1      32.686 -19.750 -20.506  0.00  0.00    +0.018 C 
ATOM     23  C   UNL     1      34.707 -21.479 -19.663  0.00  0.00    +0.040 C 
ATOM     24  C   UNL     1      32.364 -20.900 -19.786  0.00  0.00    +0.040 C 
BRANCH  19  25
ATOM     25  N   UNL     1      34.338 -18.323 -21.519  0.00  0.00    -0.246 N 
ATOM     26  N   UNL     1      34.938 -16.216 -21.933  0.00  0.00    -0.224 NA
ATOM     27  C   UNL     1      34.363 -18.192 -22.885  0.00  0.00    +0.092 C 
ATOM     28  C   UNL     1      34.691 -17.104 -20.996  0.00  0.00    +0.172 C 
ATOM     29  C   UNL     1      34.734 -16.888 -23.112  0.00  0.00    +0.117 C 
ENDBRANCH  19  25
ENDBRANCH  18  20
ENDBRANCH   6  18
TORSDOF 5
ENDMDL
