MODEL 1
REMARK VINA RESULT:     -13.5      0.000      0.000
REMARK  Name = 11955716
REMARK  6 active torsions:
REMARK  status: ('A' for Active; 'I' for Inactive)
REMARK    1  A    between atoms: C_4  and  C_25
REMARK    2  A    between atoms: C_11  and  C_12
REMARK    3  A    between atoms: C_13  and  C_18
REMARK    4  A    between atoms: C_15  and  O_21
REMARK    5  A    between atoms: C_16  and  O_23
REMARK    6  A    between atoms: C_25  and  N_26
REMARK                            x       y       z     vdW  Elec       q    Type
REMARK                         _______ _______ _______ _____ _____    ______ ____
ROOT
ATOM      1  O   UNL     1      36.941 -18.294 -21.778  0.00  0.00    -0.269 OA
ATOM      2  N   UNL     1      35.031 -19.174 -20.785  0.00  0.00    -0.231 N 
ATOM      3  C   UNL     1      34.645 -20.854 -19.220  0.00  0.00    +0.016 C 
ATOM      4  C   UNL     1      33.565 -22.412 -17.774  0.00  0.00    -0.043 C 
ATOM      5  C   UNL     1      33.397 -20.369 -19.632  0.00  0.00    +0.016 C 
ATOM      6  C   UNL     1      35.742 -20.120 -19.916  0.00  0.00    +0.072 C 
ATOM      7  C   UNL     1      33.569 -19.272 -20.630  0.00  0.00    +0.072 C 
ATOM      8  C   UNL     1      34.745 -21.873 -18.292  0.00  0.00    -0.005 C 
ATOM      9  C   UNL     1      32.313 -21.926 -18.187  0.00  0.00    -0.006 C 
ATOM     10  C   UNL     1      32.223 -20.895 -19.124  0.00  0.00    +0.001 C 
ATOM     11  C   UNL     1      35.719 -18.356 -21.670  0.00  0.00    +0.259 C 
ENDROOT
BRANCH  11  12
ATOM     12  C   UNL     1      34.917 -17.505 -22.560  0.00  0.00    +0.088 C 
ATOM     13  C   UNL     1      34.040 -15.323 -23.102  0.00  0.00    +0.012 C 
ATOM     14  C   UNL     1      34.798 -16.148 -22.270  0.00  0.00    +0.006 C 
ATOM     15  C   UNL     1      34.284 -18.042 -23.678  0.00  0.00    +0.141 C 
ATOM     16  C   UNL     1      33.406 -15.858 -24.223  0.00  0.00    +0.133 C 
ATOM     17  C   UNL     1      33.527 -17.218 -24.511  0.00  0.00    +0.073 C 
BRANCH  13  18
ATOM     18  C   UNL     1      33.921 -13.870 -22.780  0.00  0.00    +0.025 C 
ATOM     19  C   UNL     1      33.871 -13.607 -21.264  0.00  0.00    +0.005 C 
ATOM     20  C   UNL     1      32.709 -13.214 -23.466  0.00  0.00    +0.005 C 
ENDBRANCH  13  18
BRANCH  15  21
ATOM     21  O   UNL     1      34.390 -19.368 -23.975  0.00  0.00    -0.505 OA
ATOM     22  H   UNL     1      33.664 -19.940 -23.828  0.00  0.00    +0.292 HD
ENDBRANCH  15  21
BRANCH  16  23
ATOM     23  O   UNL     1      32.662 -15.068 -25.046  0.00  0.00    -0.506 OA
ATOM     24  H   UNL     1      31.813 -15.349 -25.326  0.00  0.00    +0.292 HD
ENDBRANCH  16  23
ENDBRANCH  11  12
BRANCH   4  25
ATOM     25  C   UNL     1      33.633 -23.520 -16.768  0.00  0.00    -0.050 C 
BRANCH  25  26
ATOM     26  N   UNL     1      34.103 -23.046 -15.468  0.00  0.00    +0.387 N 
ATOM     27  N   UNL     1      35.376 -23.415 -12.899  0.00  0.00    +0.383 N 
ATOM     28  C   UNL     1      33.427 -23.762 -14.379  0.00  0.00    -0.100 C 
ATOM     29  C   UNL     1      35.558 -23.195 -15.353  0.00  0.00    -0.100 C 
ATOM     30  C   UNL     1      33.921 -23.269 -13.014  0.00  0.00    -0.101 C 
ATOM     31  C   UNL     1      36.052 -22.700 -13.990  0.00  0.00    -0.101 C 
ATOM     32  C   UNL     1      35.846 -22.940 -11.599  0.00  0.00    -0.101 C 
ATOM     33  H   UNL     1      33.874 -22.055 -15.392  0.00  0.00    -0.079 HD
ATOM     34  H   UNL     1      35.607 -24.406 -12.975  0.00  0.00    -0.080 HD
ENDBRANCH  25  26
ENDBRANCH   4  25
TORSDOF 6
ENDMDL
MODEL 2
REMARK VINA RESULT:     -13.2      3.498      9.710
REMARK  Name = 11955716
REMARK  6 active torsions:
REMARK  status: ('A' for Active; 'I' for Inactive)
REMARK    1  A    between atoms: C_4  and  C_25
REMARK    2  A    between atoms: C_11  and  C_12
REMARK    3  A    between atoms: C_13  and  C_18
REMARK    4  A    between atoms: C_15  and  O_21
REMARK    5  A    between atoms: C_16  and  O_23
REMARK    6  A    between atoms: C_25  and  N_26
REMARK                            x       y       z     vdW  Elec       q    Type
REMARK                         _______ _______ _______ _____ _____    ______ ____
ROOT
ATOM      1  O   UNL     1      37.203 -22.198 -15.995  0.00  0.00    -0.269 OA
ATOM      2  N   UNL     1      35.500 -21.678 -17.490  0.00  0.00    -0.231 N 
ATOM      3  C   UNL     1      35.397 -20.456 -19.469  0.00  0.00    +0.016 C 
ATOM      4  C   UNL     1      34.591 -19.353 -21.423  0.00  0.00    -0.043 C 
ATOM      5  C   UNL     1      34.096 -20.880 -19.170  0.00  0.00    +0.016 C 
ATOM      6  C   UNL     1      36.353 -20.944 -18.433  0.00  0.00    +0.072 C 
ATOM      7  C   UNL     1      34.088 -21.688 -17.915  0.00  0.00    +0.072 C 
ATOM      8  C   UNL     1      35.660 -19.693 -20.591  0.00  0.00    -0.005 C 
ATOM      9  C   UNL     1      33.285 -19.779 -21.124  0.00  0.00    -0.006 C 
ATOM     10  C   UNL     1      33.031 -20.550 -19.988  0.00  0.00    +0.001 C 
ATOM     11  C   UNL     1      36.020 -22.220 -16.324  0.00  0.00    +0.259 C 
ENDROOT
BRANCH  11  12
ATOM     12  C   UNL     1      35.073 -22.861 -15.400  0.00  0.00    +0.088 C 
ATOM     13  C   UNL     1      32.792 -23.280 -14.734  0.00  0.00    +0.012 C 
ATOM     14  C   UNL     1      33.707 -22.680 -15.600  0.00  0.00    +0.006 C 
ATOM     15  C   UNL     1      35.530 -23.639 -14.339  0.00  0.00    +0.141 C 
ATOM     16  C   UNL     1      33.247 -24.059 -13.670  0.00  0.00    +0.133 C 
ATOM     17  C   UNL     1      34.616 -24.239 -13.472  0.00  0.00    +0.073 C 
BRANCH  13  18
ATOM     18  C   UNL     1      31.330 -23.078 -14.961  0.00  0.00    +0.025 C 
ATOM     19  C   UNL     1      31.014 -22.639 -16.402  0.00  0.00    +0.005 C 
ATOM     20  C   UNL     1      30.713 -22.081 -13.961  0.00  0.00    +0.005 C 
ENDBRANCH  13  18
BRANCH  15  21
ATOM     21  O   UNL     1      36.864 -23.825 -14.128  0.00  0.00    -0.505 OA
ATOM     22  H   UNL     1      37.471 -23.143 -14.340  0.00  0.00    +0.292 HD
ENDBRANCH  15  21
BRANCH  16  23
ATOM     23  O   UNL     1      32.368 -24.651 -12.815  0.00  0.00    -0.506 OA
ATOM     24  H   UNL     1      32.468 -25.555 -12.591  0.00  0.00    +0.292 HD
ENDBRANCH  16  23
ENDBRANCH  11  12
BRANCH   4  25
ATOM     25  C   UNL     1      34.835 -18.526 -22.647  0.00  0.00    -0.050 C 
BRANCH  25  26
ATOM     26  N   UNL     1      34.183 -17.221 -22.562  0.00  0.00    +0.387 N 
ATOM     27  N   UNL     1      34.171 -14.333 -22.697  0.00  0.00    +0.383 N 
ATOM     28  C   UNL     1      34.786 -16.406 -21.500  0.00  0.00    -0.100 C 
ATOM     29  C   UNL     1      34.253 -16.518 -23.848  0.00  0.00    -0.100 C 
ATOM     30  C   UNL     1      34.104 -15.036 -21.410  0.00  0.00    -0.101 C 
ATOM     31  C   UNL     1      33.569 -15.149 -23.760  0.00  0.00    -0.101 C 
ATOM     32  C   UNL     1      33.517 -13.029 -22.611  0.00  0.00    -0.101 C 
ATOM     33  H   UNL     1      33.201 -17.374 -22.332  0.00  0.00    -0.079 HD
ATOM     34  H   UNL     1      35.153 -14.179 -22.928  0.00  0.00    -0.080 HD
ENDBRANCH  25  26
ENDBRANCH   4  25
TORSDOF 6
ENDMDL
MODEL 3
REMARK VINA RESULT:     -13.1      3.994      9.871
REMARK  Name = 11955716
REMARK  6 active torsions:
REMARK  status: ('A' for Active; 'I' for Inactive)
REMARK    1  A    between atoms: C_4  and  C_25
REMARK    2  A    between atoms: C_11  and  C_12
REMARK    3  A    between atoms: C_13  and  C_18
REMARK    4  A    between atoms: C_15  and  O_21
REMARK    5  A    between atoms: C_16  and  O_23
REMARK    6  A    between atoms: C_25  and  N_26
REMARK                            x       y       z     vdW  Elec       q    Type
REMARK                         _______ _______ _______ _____ _____    ______ ____
ROOT
ATOM      1  O   UNL     1      35.367 -23.436 -15.410  0.00  0.00    -0.269 OA
ATOM      2  N   UNL     1      34.040 -22.420 -17.028  0.00  0.00    -0.231 N 
ATOM      3  C   UNL     1      34.488 -21.156 -18.930  0.00  0.00    +0.016 C 
ATOM      4  C   UNL     1      34.227 -19.814 -20.884  0.00  0.00    -0.043 C 
ATOM      5  C   UNL     1      33.096 -21.214 -18.783  0.00  0.00    +0.016 C 
ATOM      6  C   UNL     1      35.157 -21.922 -17.839  0.00  0.00    +0.072 C 
ATOM      7  C   UNL     1      32.733 -22.027 -17.585  0.00  0.00    +0.072 C 
ATOM      8  C   UNL     1      35.067 -20.461 -19.975  0.00  0.00    -0.005 C 
ATOM      9  C   UNL     1      32.830 -19.871 -20.736  0.00  0.00    -0.006 C 
ATOM     10  C   UNL     1      32.255 -20.577 -19.678  0.00  0.00    +0.001 C 
ATOM     11  C   UNL     1      34.264 -23.121 -15.851  0.00  0.00    +0.259 C 
ENDROOT
BRANCH  11  12
ATOM     12  C   UNL     1      33.085 -23.505 -15.062  0.00  0.00    +0.088 C 
ATOM     13  C   UNL     1      30.686 -23.527 -14.802  0.00  0.00    +0.012 C 
ATOM     14  C   UNL     1      31.818 -23.173 -15.536  0.00  0.00    +0.006 C 
ATOM     15  C   UNL     1      33.226 -24.189 -13.858  0.00  0.00    +0.141 C 
ATOM     16  C   UNL     1      30.825 -24.213 -13.595  0.00  0.00    +0.133 C 
ATOM     17  C   UNL     1      32.095 -24.543 -13.122  0.00  0.00    +0.073 C 
BRANCH  13  18
ATOM     18  C   UNL     1      29.334 -23.165 -15.322  0.00  0.00    +0.025 C 
ATOM     19  C   UNL     1      28.530 -24.397 -15.775  0.00  0.00    +0.005 C 
ATOM     20  C   UNL     1      29.401 -22.133 -16.463  0.00  0.00    +0.005 C 
ENDBRANCH  13  18
BRANCH  15  21
ATOM     21  O   UNL     1      34.459 -24.520 -13.379  0.00  0.00    -0.505 OA
ATOM     22  H   UNL     1      34.891 -25.291 -13.690  0.00  0.00    +0.292 HD
ENDBRANCH  15  21
BRANCH  16  23
ATOM     23  O   UNL     1      29.730 -24.565 -12.864  0.00  0.00    -0.506 OA
ATOM     24  H   UNL     1      29.730 -25.364 -12.376  0.00  0.00    +0.292 HD
ENDBRANCH  16  23
ENDBRANCH  11  12
BRANCH   4  25
ATOM     25  C   UNL     1      34.818 -19.048 -22.027  0.00  0.00    -0.050 C 
BRANCH  25  26
ATOM     26  N   UNL     1      34.227 -17.718 -22.155  0.00  0.00    +0.387 N 
ATOM     27  N   UNL     1      34.364 -14.880 -22.688  0.00  0.00    +0.383 N 
ATOM     28  C   UNL     1      34.825 -16.789 -21.188  0.00  0.00    -0.100 C 
ATOM     29  C   UNL     1      34.385 -17.206 -23.521  0.00  0.00    -0.100 C 
ATOM     30  C   UNL     1      34.208 -15.392 -21.322  0.00  0.00    -0.101 C 
ATOM     31  C   UNL     1      33.767 -15.810 -23.656  0.00  0.00    -0.101 C 
ATOM     32  C   UNL     1      33.771 -13.550 -22.816  0.00  0.00    -0.101 C 
ATOM     33  H   UNL     1      33.231 -17.795 -21.954  0.00  0.00    -0.079 HD
ATOM     34  H   UNL     1      35.361 -14.802 -22.891  0.00  0.00    -0.080 HD
ENDBRANCH  25  26
ENDBRANCH   4  25
TORSDOF 6
ENDMDL
MODEL 4
REMARK VINA RESULT:     -12.2      3.683     10.235
REMARK  Name = 11955716
REMARK  6 active torsions:
REMARK  status: ('A' for Active; 'I' for Inactive)
REMARK    1  A    between atoms: C_4  and  C_25
REMARK    2  A    between atoms: C_11  and  C_12
REMARK    3  A    between atoms: C_13  and  C_18
REMARK    4  A    between atoms: C_15  and  O_21
REMARK    5  A    between atoms: C_16  and  O_23
REMARK    6  A    between atoms: C_25  and  N_26
REMARK                            x       y       z     vdW  Elec       q    Type
REMARK                         _______ _______ _______ _____ _____    ______ ____
ROOT
ATOM      1  O   UNL     1      31.325 -23.082 -16.602  0.00  0.00    -0.269 OA
ATOM      2  N   UNL     1      33.222 -22.061 -17.477  0.00  0.00    -0.231 N 
ATOM      3  C   UNL     1      33.676 -20.894 -19.439  0.00  0.00    +0.016 C 
ATOM      4  C   UNL     1      34.807 -19.714 -21.175  0.00  0.00    -0.043 C 
ATOM      5  C   UNL     1      34.877 -20.999 -18.726  0.00  0.00    +0.016 C 
ATOM      6  C   UNL     1      32.566 -21.548 -18.686  0.00  0.00    +0.072 C 
ATOM      7  C   UNL     1      34.657 -21.726 -17.441  0.00  0.00    +0.072 C 
ATOM      8  C   UNL     1      33.625 -20.255 -20.663  0.00  0.00    -0.005 C 
ATOM      9  C   UNL     1      36.012 -19.818 -20.460  0.00  0.00    -0.006 C 
ATOM     10  C   UNL     1      36.053 -20.466 -19.223  0.00  0.00    +0.001 C 
ATOM     11  C   UNL     1      32.523 -22.819 -16.547  0.00  0.00    +0.259 C 
ENDROOT
BRANCH  11  12
ATOM     12  C   UNL     1      33.284 -23.361 -15.413  0.00  0.00    +0.088 C 
ATOM     13  C   UNL     1      35.267 -24.461 -14.587  0.00  0.00    +0.012 C 
ATOM     14  C   UNL     1      34.529 -23.939 -15.650  0.00  0.00    +0.006 C 
ATOM     15  C   UNL     1      32.773 -23.302 -14.120  0.00  0.00    +0.141 C 
ATOM     16  C   UNL     1      34.757 -24.402 -13.290  0.00  0.00    +0.133 C 
ATOM     17  C   UNL     1      33.510 -23.823 -13.056  0.00  0.00    +0.073 C 
BRANCH  13  18
ATOM     18  C   UNL     1      36.601 -25.077 -14.855  0.00  0.00    +0.025 C 
ATOM     19  C   UNL     1      36.659 -26.557 -14.437  0.00  0.00    +0.005 C 
ATOM     20  C   UNL     1      37.751 -24.299 -14.191  0.00  0.00    +0.005 C 
ENDBRANCH  13  18
BRANCH  15  21
ATOM     21  O   UNL     1      31.556 -22.741 -13.871  0.00  0.00    -0.505 OA
ATOM     22  H   UNL     1      31.449 -21.812 -13.921  0.00  0.00    +0.292 HD
ENDBRANCH  15  21
BRANCH  16  23
ATOM     23  O   UNL     1      35.464 -24.908 -12.241  0.00  0.00    -0.506 OA
ATOM     24  H   UNL     1      35.595 -25.832 -12.165  0.00  0.00    +0.292 HD
ENDBRANCH  16  23
ENDBRANCH  11  12
BRANCH   4  25
ATOM     25  C   UNL     1      34.792 -19.016 -22.499  0.00  0.00    -0.050 C 
BRANCH  25  26
ATOM     26  N   UNL     1      34.207 -17.680 -22.404  0.00  0.00    +0.387 N 
ATOM     27  N   UNL     1      34.337 -14.795 -22.538  0.00  0.00    +0.383 N 
ATOM     28  C   UNL     1      34.864 -16.898 -21.350  0.00  0.00    -0.100 C 
ATOM     29  C   UNL     1      34.294 -16.980 -23.691  0.00  0.00    -0.100 C 
ATOM     30  C   UNL     1      34.253 -15.496 -21.251  0.00  0.00    -0.101 C 
ATOM     31  C   UNL     1      33.681 -15.579 -23.593  0.00  0.00    -0.101 C 
ATOM     32  C   UNL     1      33.750 -13.460 -22.443  0.00  0.00    -0.101 C 
ATOM     33  H   UNL     1      33.222 -17.785 -22.162  0.00  0.00    -0.079 HD
ATOM     34  H   UNL     1      35.323 -14.690 -22.782  0.00  0.00    -0.080 HD
ENDBRANCH  25  26
ENDBRANCH   4  25
TORSDOF 6
ENDMDL
MODEL 5
REMARK VINA RESULT:     -12.2      3.791      7.239
REMARK  Name = 11955716
REMARK  6 active torsions:
REMARK  status: ('A' for Active; 'I' for Inactive)
REMARK    1  A    between atoms: C_4  and  C_25
REMARK    2  A    between atoms: C_11  and  C_12
REMARK    3  A    between atoms: C_13  and  C_18
REMARK    4  A    between atoms: C_15  and  O_21
REMARK    5  A    between atoms: C_16  and  O_23
REMARK    6  A    between atoms: C_25  and  N_26
REMARK                            x       y       z     vdW  Elec       q    Type
REMARK                         _______ _______ _______ _____ _____    ______ ____
ROOT
ATOM      1  O   UNL     1      32.572 -11.687 -25.076  0.00  0.00    -0.269 OA
ATOM      2  N   UNL     1      33.202 -12.862 -23.171  0.00  0.00    -0.231 N 
ATOM      3  C   UNL     1      33.930 -15.037 -22.775  0.00  0.00    +0.016 C 
ATOM      4  C   UNL     1      34.639 -17.037 -21.687  0.00  0.00    -0.043 C 
ATOM      5  C   UNL     1      33.829 -14.396 -21.533  0.00  0.00    +0.016 C 
ATOM      6  C   UNL     1      33.550 -14.102 -23.874  0.00  0.00    +0.072 C 
ATOM      7  C   UNL     1      33.380 -12.984 -21.712  0.00  0.00    +0.072 C 
ATOM      8  C   UNL     1      34.333 -16.356 -22.867  0.00  0.00    -0.005 C 
ATOM      9  C   UNL     1      34.538 -16.395 -20.441  0.00  0.00    -0.006 C 
ATOM     10  C   UNL     1      34.130 -15.062 -20.359  0.00  0.00    +0.001 C 
ATOM     11  C   UNL     1      32.709 -11.761 -23.857  0.00  0.00    +0.259 C 
ENDROOT
BRANCH  11  12
ATOM     12  C   UNL     1      32.307 -10.595 -23.058  0.00  0.00    +0.088 C 
ATOM     13  C   UNL     1      32.590  -8.262 -22.512  0.00  0.00    +0.012 C 
ATOM     14  C   UNL     1      32.957  -9.381 -23.261  0.00  0.00    +0.006 C 
ATOM     15  C   UNL     1      31.291 -10.698 -22.112  0.00  0.00    +0.141 C 
ATOM     16  C   UNL     1      31.572  -8.362 -21.563  0.00  0.00    +0.133 C 
ATOM     17  C   UNL     1      30.923  -9.580 -21.362  0.00  0.00    +0.073 C 
BRANCH  13  18
ATOM     18  C   UNL     1      33.296  -6.966 -22.740  0.00  0.00    +0.025 C 
ATOM     19  C   UNL     1      32.396  -5.919 -23.421  0.00  0.00    +0.005 C 
ATOM     20  C   UNL     1      34.599  -7.140 -23.542  0.00  0.00    +0.005 C 
ENDBRANCH  13  18
BRANCH  15  21
ATOM     21  O   UNL     1      30.645 -11.880 -21.900  0.00  0.00    -0.505 OA
ATOM     22  H   UNL     1      30.634 -12.534 -22.571  0.00  0.00    +0.292 HD
ENDBRANCH  15  21
BRANCH  16  23
ATOM     23  O   UNL     1      31.202  -7.280 -20.823  0.00  0.00    -0.506 OA
ATOM     24  H   UNL     1      30.645  -6.626 -21.195  0.00  0.00    +0.292 HD
ENDBRANCH  16  23
ENDBRANCH  11  12
BRANCH   4  25
ATOM     25  C   UNL     1      35.077 -18.468 -21.747  0.00  0.00    -0.050 C 
BRANCH  25  26
ATOM     26  N   UNL     1      34.625 -19.225 -20.581  0.00  0.00    +0.387 N 
ATOM     27  N   UNL     1      33.787 -21.652 -19.254  0.00  0.00    +0.383 N 
ATOM     28  C   UNL     1      33.298 -19.804 -20.820  0.00  0.00    -0.100 C 
ATOM     29  C   UNL     1      35.589 -20.277 -20.238  0.00  0.00    -0.100 C 
ATOM     30  C   UNL     1      32.824 -20.601 -19.600  0.00  0.00    -0.101 C 
ATOM     31  C   UNL     1      35.116 -21.073 -19.016  0.00  0.00    -0.101 C 
ATOM     32  C   UNL     1      33.336 -22.408 -18.087  0.00  0.00    -0.101 C 
ATOM     33  H   UNL     1      34.559 -18.581 -19.794  0.00  0.00    -0.079 HD
ATOM     34  H   UNL     1      33.855 -22.298 -20.041  0.00  0.00    -0.080 HD
ENDBRANCH  25  26
ENDBRANCH   4  25
TORSDOF 6
ENDMDL
MODEL 6
REMARK VINA RESULT:     -11.8      3.853     10.362
REMARK  Name = 11955716
REMARK  6 active torsions:
REMARK  status: ('A' for Active; 'I' for Inactive)
REMARK    1  A    between atoms: C_4  and  C_25
REMARK    2  A    between atoms: C_11  and  C_12
REMARK    3  A    between atoms: C_13  and  C_18
REMARK    4  A    between atoms: C_15  and  O_21
REMARK    5  A    between atoms: C_16  and  O_23
REMARK    6  A    between atoms: C_25  and  N_26
REMARK                            x       y       z     vdW  Elec       q    Type
REMARK                         _______ _______ _______ _____ _____    ______ ____
ROOT
ATOM      1  O   UNL     1      31.816 -23.526 -15.496  0.00  0.00    -0.269 OA
ATOM      2  N   UNL     1      33.586 -22.463 -16.565  0.00  0.00    -0.231 N 
ATOM      3  C   UNL     1      33.855 -21.465 -18.651  0.00  0.00    +0.016 C 
ATOM      4  C   UNL     1      34.809 -20.383 -20.551  0.00  0.00    -0.043 C 
ATOM      5  C   UNL     1      35.094 -21.413 -17.998  0.00  0.00    +0.016 C 
ATOM      6  C   UNL     1      32.836 -22.120 -17.780  0.00  0.00    +0.072 C 
ATOM      7  C   UNL     1      34.991 -22.024 -16.640  0.00  0.00    +0.072 C 
ATOM      8  C   UNL     1      33.698 -20.955 -19.926  0.00  0.00    -0.005 C 
ATOM      9  C   UNL     1      36.051 -20.330 -19.896  0.00  0.00    -0.006 C 
ATOM     10  C   UNL     1      36.200 -20.848 -18.608  0.00  0.00    +0.001 C 
ATOM     11  C   UNL     1      32.993 -23.173 -15.532  0.00  0.00    +0.259 C 
ENDROOT
BRANCH  11  12
ATOM     12  C   UNL     1      33.846 -23.546 -14.395  0.00  0.00    +0.088 C 
ATOM     13  C   UNL     1      35.958 -24.378 -13.577  0.00  0.00    +0.012 C 
ATOM     14  C   UNL     1      35.133 -24.018 -14.642  0.00  0.00    +0.006 C 
ATOM     15  C   UNL     1      33.380 -23.430 -13.088  0.00  0.00    +0.141 C 
ATOM     16  C   UNL     1      35.494 -24.263 -12.266  0.00  0.00    +0.133 C 
ATOM     17  C   UNL     1      34.205 -23.790 -12.021  0.00  0.00    +0.073 C 
BRANCH  13  18
ATOM     18  C   UNL     1      37.335 -24.882 -13.857  0.00  0.00    +0.025 C 
ATOM     19  C   UNL     1      38.090 -24.001 -14.869  0.00  0.00    +0.005 C 
ATOM     20  C   UNL     1      37.339 -26.347 -14.332  0.00  0.00    +0.005 C 
ENDBRANCH  13  18
BRANCH  15  21
ATOM     21  O   UNL     1      32.123 -22.971 -12.828  0.00  0.00    -0.505 OA
ATOM     22  H   UNL     1      31.842 -22.852 -11.943  0.00  0.00    +0.292 HD
ENDBRANCH  15  21
BRANCH  16  23
ATOM     23  O   UNL     1      36.287 -24.610 -11.214  0.00  0.00    -0.506 OA
ATOM     24  H   UNL     1      37.065 -25.110 -11.359  0.00  0.00    +0.292 HD
ENDBRANCH  16  23
ENDBRANCH  11  12
BRANCH   4  25
ATOM     25  C   UNL     1      34.678 -19.822 -21.933  0.00  0.00    -0.050 C 
BRANCH  25  26
ATOM     26  N   UNL     1      34.190 -18.445 -21.916  0.00  0.00    +0.387 N 
ATOM     27  N   UNL     1      34.497 -15.598 -22.317  0.00  0.00    +0.383 N 
ATOM     28  C   UNL     1      34.976 -17.625 -20.986  0.00  0.00    -0.100 C 
ATOM     29  C   UNL     1      34.223 -17.864 -23.264  0.00  0.00    -0.100 C 
ATOM     30  C   UNL     1      34.467 -16.179 -20.970  0.00  0.00    -0.101 C 
ATOM     31  C   UNL     1      33.712 -16.419 -23.248  0.00  0.00    -0.101 C 
ATOM     32  C   UNL     1      34.008 -14.221 -22.301  0.00  0.00    -0.101 C 
ATOM     33  H   UNL     1      33.222 -18.457 -21.596  0.00  0.00    -0.079 HD
ATOM     34  H   UNL     1      35.466 -15.585 -22.640  0.00  0.00    -0.080 HD
ENDBRANCH  25  26
ENDBRANCH   4  25
TORSDOF 6
ENDMDL
MODEL 7
REMARK VINA RESULT:     -11.7      3.419      9.816
REMARK  Name = 11955716
REMARK  6 active torsions:
REMARK  status: ('A' for Active; 'I' for Inactive)
REMARK    1  A    between atoms: C_4  and  C_25
REMARK    2  A    between atoms: C_11  and  C_12
REMARK    3  A    between atoms: C_13  and  C_18
REMARK    4  A    between atoms: C_15  and  O_21
REMARK    5  A    between atoms: C_16  and  O_23
REMARK    6  A    between atoms: C_25  and  N_26
REMARK                            x       y       z     vdW  Elec       q    Type
REMARK                         _______ _______ _______ _____ _____    ______ ____
ROOT
ATOM      1  O   UNL     1      31.568 -22.356 -17.790  0.00  0.00    -0.269 OA
ATOM      2  N   UNL     1      33.402 -21.209 -18.641  0.00  0.00    -0.231 N 
ATOM      3  C   UNL     1      33.770 -19.928 -20.550  0.00  0.00    +0.016 C 
ATOM      4  C   UNL     1      34.817 -18.614 -22.242  0.00  0.00    -0.043 C 
ATOM      5  C   UNL     1      34.987 -20.013 -19.861  0.00  0.00    +0.016 C 
ATOM      6  C   UNL     1      32.704 -20.667 -19.813  0.00  0.00    +0.072 C 
ATOM      7  C   UNL     1      34.822 -20.811 -18.611  0.00  0.00    +0.072 C 
ATOM      8  C   UNL     1      33.670 -19.232 -21.740  0.00  0.00    -0.005 C 
ATOM      9  C   UNL     1      36.038 -18.699 -21.552  0.00  0.00    -0.006 C 
ATOM     10  C   UNL     1      36.129 -19.404 -20.350  0.00  0.00    +0.001 C 
ATOM     11  C   UNL     1      32.755 -22.042 -17.740  0.00  0.00    +0.259 C 
ENDROOT
BRANCH  11  12
ATOM     12  C   UNL     1      33.559 -22.604 -16.646  0.00  0.00    +0.088 C 
ATOM     13  C   UNL     1      35.662 -22.716 -15.468  0.00  0.00    +0.012 C 
ATOM     14  C   UNL     1      34.881 -22.193 -16.500  0.00  0.00    +0.006 C 
ATOM     15  C   UNL     1      33.012 -23.535 -15.767  0.00  0.00    +0.141 C 
ATOM     16  C   UNL     1      35.116 -23.649 -14.586  0.00  0.00    +0.133 C 
ATOM     17  C   UNL     1      33.791 -24.059 -14.735  0.00  0.00    +0.073 C 
BRANCH  13  18
ATOM     18  C   UNL     1      37.078 -22.266 -15.323  0.00  0.00    +0.025 C 
ATOM     19  C   UNL     1      37.398 -21.040 -16.197  0.00  0.00    +0.005 C 
ATOM     20  C   UNL     1      38.085 -23.394 -15.612  0.00  0.00    +0.005 C 
ENDBRANCH  13  18
BRANCH  15  21
ATOM     21  O   UNL     1      31.719 -23.949 -15.898  0.00  0.00    -0.505 OA
ATOM     22  H   UNL     1      31.279 -24.344 -15.172  0.00  0.00    +0.292 HD
ENDBRANCH  15  21
BRANCH  16  23
ATOM     23  O   UNL     1      35.864 -24.170 -13.574  0.00  0.00    -0.506 OA
ATOM     24  H   UNL     1      36.210 -23.608 -12.909  0.00  0.00    +0.292 HD
ENDBRANCH  16  23
ENDBRANCH  11  12
BRANCH   4  25
ATOM     25  C   UNL     1      34.748 -17.853 -23.530  0.00  0.00    -0.050 C 
BRANCH  25  26
ATOM     26  N   UNL     1      34.005 -16.603 -23.385  0.00  0.00    +0.387 N 
ATOM     27  N   UNL     1      33.777 -13.722 -23.437  0.00  0.00    +0.383 N 
ATOM     28  C   UNL     1      34.585 -15.774 -22.321  0.00  0.00    -0.100 C 
ATOM     29  C   UNL     1      33.977 -15.863 -24.652  0.00  0.00    -0.100 C 
ATOM     30  C   UNL     1      33.809 -14.461 -22.169  0.00  0.00    -0.101 C 
ATOM     31  C   UNL     1      33.198 -14.552 -24.501  0.00  0.00    -0.101 C 
ATOM     32  C   UNL     1      33.033 -12.472 -23.291  0.00  0.00    -0.101 C 
ATOM     33  H   UNL     1      33.047 -16.835 -23.126  0.00  0.00    -0.079 HD
ATOM     34  H   UNL     1      34.736 -13.489 -23.697  0.00  0.00    -0.080 HD
ENDBRANCH  25  26
ENDBRANCH   4  25
TORSDOF 6
ENDMDL
MODEL 8
REMARK VINA RESULT:     -11.0      1.534      2.302
REMARK  Name = 11955716
REMARK  6 active torsions:
REMARK  status: ('A' for Active; 'I' for Inactive)
REMARK    1  A    between atoms: C_4  and  C_25
REMARK    2  A    between atoms: C_11  and  C_12
REMARK    3  A    between atoms: C_13  and  C_18
REMARK    4  A    between atoms: C_15  and  O_21
REMARK    5  A    between atoms: C_16  and  O_23
REMARK    6  A    between atoms: C_25  and  N_26
REMARK                            x       y       z     vdW  Elec       q    Type
REMARK                         _______ _______ _______ _____ _____    ______ ____
ROOT
ATOM      1  O   UNL     1      37.000 -18.263 -21.790  0.00  0.00    -0.269 OA
ATOM      2  N   UNL     1      35.103 -19.176 -20.804  0.00  0.00    -0.231 N 
ATOM      3  C   UNL     1      34.745 -20.803 -19.179  0.00  0.00    +0.016 C 
ATOM      4  C   UNL     1      33.692 -22.342 -17.692  0.00  0.00    -0.043 C 
ATOM      5  C   UNL     1      33.489 -20.386 -19.638  0.00  0.00    +0.016 C 
ATOM      6  C   UNL     1      35.829 -20.056 -19.880  0.00  0.00    +0.072 C 
ATOM      7  C   UNL     1      33.642 -19.325 -20.677  0.00  0.00    +0.072 C 
ATOM      8  C   UNL     1      34.862 -21.779 -18.206  0.00  0.00    -0.005 C 
ATOM      9  C   UNL     1      32.432 -21.923 -18.152  0.00  0.00    -0.006 C 
ATOM     10  C   UNL     1      32.325 -20.937 -19.134  0.00  0.00    +0.001 C 
ATOM     11  C   UNL     1      35.779 -18.368 -21.707  0.00  0.00    +0.259 C 
ENDROOT
BRANCH  11  12
ATOM     12  C   UNL     1      34.967 -17.587 -22.650  0.00  0.00    +0.088 C 
ATOM     13  C   UNL     1      34.061 -15.456 -23.331  0.00  0.00    +0.012 C 
ATOM     14  C   UNL     1      34.829 -16.216 -22.447  0.00  0.00    +0.006 C 
ATOM     15  C   UNL     1      34.342 -18.203 -23.731  0.00  0.00    +0.141 C 
ATOM     16  C   UNL     1      33.434 -16.071 -24.415  0.00  0.00    +0.133 C 
ATOM     17  C   UNL     1      33.574 -17.444 -24.615  0.00  0.00    +0.073 C 
BRANCH  13  18
ATOM     18  C   UNL     1      33.921 -13.987 -23.102  0.00  0.00    +0.025 C 
ATOM     19  C   UNL     1      33.844 -13.631 -21.606  0.00  0.00    +0.005 C 
ATOM     20  C   UNL     1      32.713 -13.389 -23.847  0.00  0.00    +0.005 C 
ENDBRANCH  13  18
BRANCH  15  21
ATOM     21  O   UNL     1      34.466 -19.544 -23.943  0.00  0.00    -0.505 OA
ATOM     22  H   UNL     1      33.706 -20.062 -24.118  0.00  0.00    +0.292 HD
ENDBRANCH  15  21
BRANCH  16  23
ATOM     23  O   UNL     1      32.680 -15.345 -25.287  0.00  0.00    -0.506 OA
ATOM     24  H   UNL     1      33.096 -14.799 -25.924  0.00  0.00    +0.292 HD
ENDBRANCH  16  23
ENDBRANCH  11  12
BRANCH   4  25
ATOM     25  C   UNL     1      33.779 -23.403 -16.639  0.00  0.00    -0.050 C 
BRANCH  25  26
ATOM     26  N   UNL     1      32.587 -23.431 -15.794  0.00  0.00    +0.387 N 
ATOM     27  N   UNL     1      30.124 -22.308 -14.778  0.00  0.00    +0.383 N 
ATOM     28  C   UNL     1      32.595 -22.309 -14.847  0.00  0.00    -0.100 C 
ATOM     29  C   UNL     1      31.368 -23.401 -16.612  0.00  0.00    -0.100 C 
ATOM     30  C   UNL     1      31.344 -22.335 -13.962  0.00  0.00    -0.101 C 
ATOM     31  C   UNL     1      30.117 -23.429 -15.727  0.00  0.00    -0.101 C 
ATOM     32  C   UNL     1      28.932 -22.337 -13.932  0.00  0.00    -0.101 C 
ATOM     33  H   UNL     1      32.597 -24.301 -15.264  0.00  0.00    -0.079 HD
ATOM     34  H   UNL     1      30.112 -21.437 -15.310  0.00  0.00    -0.080 HD
ENDBRANCH  25  26
ENDBRANCH   4  25
TORSDOF 6
ENDMDL
MODEL 9
REMARK VINA RESULT:     -10.7      3.911     10.149
REMARK  Name = 11955716
REMARK  6 active torsions:
REMARK  status: ('A' for Active; 'I' for Inactive)
REMARK    1  A    between atoms: C_4  and  C_25
REMARK    2  A    between atoms: C_11  and  C_12
REMARK    3  A    between atoms: C_13  and  C_18
REMARK    4  A    between atoms: C_15  and  O_21
REMARK    5  A    between atoms: C_16  and  O_23
REMARK    6  A    between atoms: C_25  and  N_26
REMARK                            x       y       z     vdW  Elec       q    Type
REMARK                         _______ _______ _______ _____ _____    ______ ____
ROOT
ATOM      1  O   UNL     1      29.603 -21.968 -17.044  0.00  0.00    -0.269 OA
ATOM      2  N   UNL     1      31.874 -21.767 -17.499  0.00  0.00    -0.231 N 
ATOM      3  C   UNL     1      33.102 -20.836 -19.244  0.00  0.00    +0.016 C 
ATOM      4  C   UNL     1      34.904 -20.167 -20.655  0.00  0.00    -0.043 C 
ATOM      5  C   UNL     1      34.013 -21.426 -18.358  0.00  0.00    +0.016 C 
ATOM      6  C   UNL     1      31.706 -21.011 -18.745  0.00  0.00    +0.072 C 
ATOM      7  C   UNL     1      33.293 -22.032 -17.199  0.00  0.00    +0.072 C 
ATOM      8  C   UNL     1      33.532 -20.204 -20.395  0.00  0.00    -0.005 C 
ATOM      9  C   UNL     1      35.818 -20.758 -19.767  0.00  0.00    -0.006 C 
ATOM     10  C   UNL     1      35.373 -21.394 -18.606  0.00  0.00    +0.001 C 
ATOM     11  C   UNL     1      30.777 -22.204 -16.770  0.00  0.00    +0.259 C 
ENDROOT
BRANCH  11  12
ATOM     12  C   UNL     1      31.043 -23.029 -15.583  0.00  0.00    +0.088 C 
ATOM     13  C   UNL     1      32.635 -24.015 -14.062  0.00  0.00    +0.012 C 
ATOM     14  C   UNL     1      32.362 -23.235 -15.185  0.00  0.00    +0.006 C 
ATOM     15  C   UNL     1      29.996 -23.598 -14.863  0.00  0.00    +0.141 C 
ATOM     16  C   UNL     1      31.588 -24.586 -13.338  0.00  0.00    +0.133 C 
ATOM     17  C   UNL     1      30.268 -24.378 -13.739  0.00  0.00    +0.073 C 
BRANCH  13  18
ATOM     18  C   UNL     1      34.053 -24.227 -13.646  0.00  0.00    +0.025 C 
ATOM     19  C   UNL     1      34.494 -23.252 -12.540  0.00  0.00    +0.005 C 
ATOM     20  C   UNL     1      35.031 -24.150 -14.834  0.00  0.00    +0.005 C 
ENDBRANCH  13  18
BRANCH  15  21
ATOM     21  O   UNL     1      28.699 -23.407 -15.240  0.00  0.00    -0.505 OA
ATOM     22  H   UNL     1      28.089 -23.025 -14.641  0.00  0.00    +0.292 HD
ENDBRANCH  15  21
BRANCH  16  23
ATOM     23  O   UNL     1      31.837 -25.352 -12.239  0.00  0.00    -0.506 OA
ATOM     24  H   UNL     1      32.306 -24.991 -11.513  0.00  0.00    +0.292 HD
ENDBRANCH  16  23
ENDBRANCH  11  12
BRANCH   4  25
ATOM     25  C   UNL     1      35.407 -19.493 -21.894  0.00  0.00    -0.050 C 
BRANCH  25  26
ATOM     26  N   UNL     1      34.594 -18.332 -22.251  0.00  0.00    +0.387 N 
ATOM     27  N   UNL     1      34.102 -15.881 -23.701  0.00  0.00    +0.383 N 
ATOM     28  C   UNL     1      35.282 -17.086 -21.895  0.00  0.00    -0.100 C 
ATOM     29  C   UNL     1      34.267 -18.346 -23.681  0.00  0.00    -0.100 C 
ATOM     30  C   UNL     1      34.432 -15.867 -22.271  0.00  0.00    -0.101 C 
ATOM     31  C   UNL     1      33.415 -17.129 -24.057  0.00  0.00    -0.101 C 
ATOM     32  C   UNL     1      33.287 -14.721 -24.057  0.00  0.00    -0.101 C 
ATOM     33  H   UNL     1      33.724 -18.383 -21.721  0.00  0.00    -0.079 HD
ATOM     34  H   UNL     1      34.972 -15.830 -24.232  0.00  0.00    -0.080 HD
ENDBRANCH  25  26
ENDBRANCH   4  25
TORSDOF 6
ENDMDL
