MODEL 1
REMARK VINA RESULT:     -12.6      0.000      0.000
REMARK  Name = 91758792
REMARK  5 active torsions:
REMARK  status: ('A' for Active; 'I' for Inactive)
REMARK    1  A    between atoms: N_3  and  C_20
REMARK    2  A    between atoms: N_4  and  C_12
REMARK    3  A    between atoms: C_7  and  C_34
REMARK    4  A    between atoms: C_25  and  C_32
REMARK    5  A    between atoms: C_34  and  O_35
REMARK                            x       y       z     vdW  Elec       q    Type
REMARK                         _______ _______ _______ _____ _____    ______ ____
ROOT
ATOM      1  O   UNL     1      35.314 -22.478 -16.154  0.00  0.00    -0.251 OA
ATOM      2  O   UNL     1      32.023 -24.507 -13.578  0.00  0.00    -0.269 OA
ATOM      3  N   UNL     1      33.674 -23.383 -14.791  0.00  0.00    -0.208 N 
ATOM      4  N   UNL     1      33.080 -22.340 -16.870  0.00  0.00    -0.220 N 
ATOM      5  C   UNL     1      34.113 -22.691 -15.957  0.00  0.00    +0.321 C 
ATOM      6  C   UNL     1      32.374 -23.835 -14.546  0.00  0.00    +0.264 C 
ATOM      7  C   UNL     1      31.385 -23.449 -15.571  0.00  0.00    +0.144 C 
ATOM      8  C   UNL     1      31.773 -22.746 -16.636  0.00  0.00    +0.085 C 
ENDROOT
BRANCH   4  12
ATOM      9  O   UNL     1      36.218 -19.959 -19.817  0.00  0.00    -0.407 OA
ATOM     10  O   UNL     1      36.796 -18.743 -21.691  0.00  0.00    -0.223 OA
ATOM     11  N   UNL     1      34.582 -19.408 -21.329  0.00  0.00    -0.260 N 
ATOM     12  C   UNL     1      33.405 -21.573 -18.058  0.00  0.00    +0.063 C 
ATOM     13  C   UNL     1      34.724 -21.170 -18.281  0.00  0.00    +0.054 C 
ATOM     14  C   UNL     1      32.385 -21.244 -18.972  0.00  0.00    +0.017 C 
ATOM     15  C   UNL     1      34.979 -20.444 -19.426  0.00  0.00    +0.167 A 
ATOM     16  C   UNL     1      33.977 -20.124 -20.320  0.00  0.00    +0.100 A 
ATOM     17  C   UNL     1      32.667 -20.508 -20.126  0.00  0.00    +0.022 C 
ATOM     18  C   UNL     1      35.931 -19.307 -21.030  0.00  0.00    +0.422 A 
ATOM     19  C   UNL     1      33.895 -18.875 -22.479  0.00  0.00    +0.137 C 
ENDBRANCH   4  12
BRANCH   3  20
ATOM     20  C   UNL     1      34.702 -23.716 -13.809  0.00  0.00    +0.107 C 
ATOM     21  C   UNL     1      35.633 -22.523 -13.522  0.00  0.00    +0.030 C 
ATOM     22  C   UNL     1      36.988 -23.113 -13.111  0.00  0.00    +0.028 C 
ATOM     23  C   UNL     1      35.689 -24.746 -14.277  0.00  0.00    -0.008 C 
ATOM     24  C   UNL     1      36.987 -24.399 -13.878  0.00  0.00    -0.021 C 
ATOM     25  C   UNL     1      38.067 -25.221 -14.152  0.00  0.00    +0.067 C 
ATOM     26  C   UNL     1      35.452 -25.932 -14.955  0.00  0.00    -0.003 C 
ATOM     27  C   UNL     1      37.836 -26.408 -14.850  0.00  0.00    +0.004 C 
ATOM     28  C   UNL     1      36.538 -26.761 -15.247  0.00  0.00    -0.000 C 
BRANCH  25  32
ATOM     29  F   UNL     1      39.490 -24.057 -12.620  0.00  0.00    -0.166 F 
ATOM     30  F   UNL     1      40.224 -25.940 -13.407  0.00  0.00    -0.166 F 
ATOM     31  F   UNL     1      40.139 -24.187 -14.691  0.00  0.00    -0.166 F 
ATOM     32  C   UNL     1      39.448 -24.861 -13.725  0.00  0.00    +0.418 C 
ENDBRANCH  25  32
ENDBRANCH   3  20
BRANCH   7  34
ATOM     33  O   UNL     1      29.050 -23.009 -15.671  0.00  0.00    -0.245 OA
ATOM     34  C   UNL     1      29.962 -23.792 -15.473  0.00  0.00    +0.344 C 
BRANCH  34  35
ATOM     35  O   UNL     1      29.832 -25.089 -15.132  0.00  0.00    -0.477 OA
ATOM     36  H   UNL     1      30.450 -25.720 -15.445  0.00  0.00    +0.295 HD
ENDBRANCH  34  35
ENDBRANCH   7  34
TORSDOF 5
ENDMDL
MODEL 2
REMARK VINA RESULT:     -10.4     12.019     16.820
REMARK  Name = 91758792
REMARK  5 active torsions:
REMARK  status: ('A' for Active; 'I' for Inactive)
REMARK    1  A    between atoms: N_3  and  C_20
REMARK    2  A    between atoms: N_4  and  C_12
REMARK    3  A    between atoms: C_7  and  C_34
REMARK    4  A    between atoms: C_25  and  C_32
REMARK    5  A    between atoms: C_34  and  O_35
REMARK                            x       y       z     vdW  Elec       q    Type
REMARK                         _______ _______ _______ _____ _____    ______ ____
ROOT
ATOM      1  O   UNL     1      33.969 -10.283 -23.983  0.00  0.00    -0.251 OA
ATOM      2  O   UNL     1      31.829  -7.334 -21.101  0.00  0.00    -0.269 OA
ATOM      3  N   UNL     1      32.802  -8.808 -22.632  0.00  0.00    -0.208 N 
ATOM      4  N   UNL     1      32.778 -11.160 -22.156  0.00  0.00    -0.220 N 
ATOM      5  C   UNL     1      33.225 -10.114 -23.011  0.00  0.00    +0.321 C 
ATOM      6  C   UNL     1      32.113  -8.475 -21.462  0.00  0.00    +0.264 C 
ATOM      7  C   UNL     1      31.727  -9.628 -20.626  0.00  0.00    +0.144 C 
ATOM      8  C   UNL     1      32.063 -10.863 -21.004  0.00  0.00    +0.085 C 
ENDROOT
BRANCH   4  12
ATOM      9  O   UNL     1      34.551 -15.620 -21.078  0.00  0.00    -0.407 OA
ATOM     10  O   UNL     1      35.071 -17.820 -21.542  0.00  0.00    -0.223 OA
ATOM     11  N   UNL     1      34.078 -16.455 -23.162  0.00  0.00    -0.260 N 
ATOM     12  C   UNL     1      33.093 -12.537 -22.486  0.00  0.00    +0.063 C 
ATOM     13  C   UNL     1      33.688 -13.360 -21.525  0.00  0.00    +0.054 C 
ATOM     14  C   UNL     1      32.796 -13.028 -23.772  0.00  0.00    +0.017 C 
ATOM     15  C   UNL     1      33.966 -14.660 -21.889  0.00  0.00    +0.167 A 
ATOM     16  C   UNL     1      33.673 -15.138 -23.151  0.00  0.00    +0.100 A 
ATOM     17  C   UNL     1      33.087 -14.351 -24.119  0.00  0.00    +0.022 C 
ATOM     18  C   UNL     1      34.607 -16.749 -21.916  0.00  0.00    +0.422 A 
ATOM     19  C   UNL     1      33.955 -17.338 -24.294  0.00  0.00    +0.137 C 
ENDBRANCH   4  12
BRANCH   3  20
ATOM     20  C   UNL     1      33.203  -7.715 -23.514  0.00  0.00    +0.107 C 
ATOM     21  C   UNL     1      34.104  -6.694 -22.794  0.00  0.00    +0.030 C 
ATOM     22  C   UNL     1      33.876  -5.343 -23.483  0.00  0.00    +0.028 C 
ATOM     23  C   UNL     1      32.070  -6.836 -23.959  0.00  0.00    -0.008 C 
ATOM     24  C   UNL     1      32.458  -5.489 -23.939  0.00  0.00    -0.021 C 
ATOM     25  C   UNL     1      31.595  -4.487 -24.354  0.00  0.00    +0.067 C 
ATOM     26  C   UNL     1      30.809  -7.202 -24.404  0.00  0.00    -0.003 C 
ATOM     27  C   UNL     1      30.318  -4.850 -24.787  0.00  0.00    +0.004 C 
ATOM     28  C   UNL     1      29.928  -6.197 -24.812  0.00  0.00    -0.000 C 
BRANCH  25  32
ATOM     29  F   UNL     1      33.239  -2.831 -24.880  0.00  0.00    -0.166 F 
ATOM     30  F   UNL     1      31.159  -2.238 -25.041  0.00  0.00    -0.166 F 
ATOM     31  F   UNL     1      32.055  -2.533 -23.082  0.00  0.00    -0.166 F 
ATOM     32  C   UNL     1      32.003  -3.055 -24.343  0.00  0.00    +0.418 C 
ENDBRANCH  25  32
ENDBRANCH   3  20
BRANCH   7  34
ATOM     33  O   UNL     1      29.756  -9.625 -19.297  0.00  0.00    -0.245 OA
ATOM     34  C   UNL     1      30.963  -9.489 -19.382  0.00  0.00    +0.344 C 
BRANCH  34  35
ATOM     35  O   UNL     1      31.800  -9.192 -18.368  0.00  0.00    -0.477 OA
ATOM     36  H   UNL     1      32.412  -8.488 -18.457  0.00  0.00    +0.295 HD
ENDBRANCH  34  35
ENDBRANCH   7  34
TORSDOF 5
ENDMDL
MODEL 3
REMARK VINA RESULT:      -9.9     12.260     17.204
REMARK  Name = 91758792
REMARK  5 active torsions:
REMARK  status: ('A' for Active; 'I' for Inactive)
REMARK    1  A    between atoms: N_3  and  C_20
REMARK    2  A    between atoms: N_4  and  C_12
REMARK    3  A    between atoms: C_7  and  C_34
REMARK    4  A    between atoms: C_25  and  C_32
REMARK    5  A    between atoms: C_34  and  O_35
REMARK                            x       y       z     vdW  Elec       q    Type
REMARK                         _______ _______ _______ _____ _____    ______ ____
ROOT
ATOM      1  O   UNL     1      32.255  -9.424 -24.438  0.00  0.00    -0.251 OA
ATOM      2  O   UNL     1      30.786  -6.594 -21.059  0.00  0.00    -0.269 OA
ATOM      3  N   UNL     1      31.399  -8.038 -22.793  0.00  0.00    -0.208 N 
ATOM      4  N   UNL     1      32.084 -10.273 -22.254  0.00  0.00    -0.220 N 
ATOM      5  C   UNL     1      31.923  -9.278 -23.257  0.00  0.00    +0.321 C 
ATOM      6  C   UNL     1      31.156  -7.696 -21.459  0.00  0.00    +0.264 C 
ATOM      7  C   UNL     1      31.388  -8.788 -20.493  0.00  0.00    +0.144 C 
ATOM      8  C   UNL     1      31.819  -9.975 -20.925  0.00  0.00    +0.085 C 
ENDROOT
BRANCH   4  12
ATOM      9  O   UNL     1      34.207 -14.602 -21.276  0.00  0.00    -0.407 OA
ATOM     10  O   UNL     1      34.960 -16.717 -21.809  0.00  0.00    -0.223 OA
ATOM     11  N   UNL     1      33.937 -15.366 -23.423  0.00  0.00    -0.260 N 
ATOM     12  C   UNL     1      32.547 -11.597 -22.627  0.00  0.00    +0.063 C 
ATOM     13  C   UNL     1      33.161 -12.410 -21.670  0.00  0.00    +0.054 C 
ATOM     14  C   UNL     1      32.373 -12.046 -23.951  0.00  0.00    +0.017 C 
ATOM     15  C   UNL     1      33.582 -13.659 -22.077  0.00  0.00    +0.167 A 
ATOM     16  C   UNL     1      33.409 -14.096 -23.375  0.00  0.00    +0.100 A 
ATOM     17  C   UNL     1      32.808 -13.316 -24.341  0.00  0.00    +0.022 C 
ATOM     18  C   UNL     1      34.418 -15.675 -22.161  0.00  0.00    +0.422 A 
ATOM     19  C   UNL     1      33.964 -16.197 -24.600  0.00  0.00    +0.137 C 
ENDBRANCH   4  12
BRANCH   3  20
ATOM     20  C   UNL     1      31.176  -7.008 -23.805  0.00  0.00    +0.107 C 
ATOM     21  C   UNL     1      30.693  -7.607 -25.139  0.00  0.00    +0.030 C 
ATOM     22  C   UNL     1      31.167  -6.653 -26.244  0.00  0.00    +0.028 C 
ATOM     23  C   UNL     1      32.421  -6.294 -24.241  0.00  0.00    -0.008 C 
ATOM     24  C   UNL     1      32.412  -6.095 -25.629  0.00  0.00    -0.021 C 
ATOM     25  C   UNL     1      33.438  -5.414 -26.264  0.00  0.00    +0.067 C 
ATOM     26  C   UNL     1      33.461  -5.805 -23.465  0.00  0.00    -0.003 C 
ATOM     27  C   UNL     1      34.494  -4.935 -25.487  0.00  0.00    +0.004 C 
ATOM     28  C   UNL     1      34.505  -5.128 -24.098  0.00  0.00    -0.000 C 
BRANCH  25  32
ATOM     29  F   UNL     1      32.961  -6.259 -28.451  0.00  0.00    -0.166 F 
ATOM     30  F   UNL     1      32.656  -4.137 -28.130  0.00  0.00    -0.166 F 
ATOM     31  F   UNL     1      34.675  -4.938 -28.237  0.00  0.00    -0.166 F 
ATOM     32  C   UNL     1      33.430  -5.193 -27.736  0.00  0.00    +0.418 C 
ENDBRANCH  25  32
ENDBRANCH   3  20
BRANCH   7  34
ATOM     33  O   UNL     1      30.789  -9.544 -18.320  0.00  0.00    -0.245 OA
ATOM     34  C   UNL     1      31.150  -8.641 -19.053  0.00  0.00    +0.344 C 
BRANCH  34  35
ATOM     35  O   UNL     1      31.391  -7.368 -18.683  0.00  0.00    -0.477 OA
ATOM     36  H   UNL     1      31.774  -6.767 -19.291  0.00  0.00    +0.295 HD
ENDBRANCH  34  35
ENDBRANCH   7  34
TORSDOF 5
ENDMDL
