MODEL 1
REMARK VINA RESULT:     -11.7      0.000      0.000
REMARK  Name = 448062
REMARK  5 active torsions:
REMARK  status: ('A' for Active; 'I' for Inactive)
REMARK    1  A    between atoms: N_1  and  C_25
REMARK    2  A    between atoms: C_4  and  O_14
REMARK    3  A    between atoms: O_14  and  C_17
REMARK    4  A    between atoms: C_25  and  C_26
REMARK    5  A    between atoms: C_34  and  C_38
REMARK                            x       y       z     vdW  Elec       q    Type
REMARK                         _______ _______ _______ _____ _____    ______ ____
ROOT
ATOM      1  N   UNL     1      31.163  -7.633 -22.649  0.00  0.00    -0.323 N 
ATOM      2  C   UNL     1      31.261  -8.689 -21.773  0.00  0.00    +0.063 A 
ATOM      3  C   UNL     1      31.307  -8.154 -20.486  0.00  0.00    +0.017 A 
ATOM      4  C   UNL     1      31.410 -10.921 -20.923  0.00  0.00    +0.140 C 
ATOM      5  C   UNL     1      31.145  -6.436 -21.973  0.00  0.00    +0.060 A 
ATOM      6  C   UNL     1      31.234  -6.730 -20.611  0.00  0.00    +0.017 A 
ATOM      7  C   UNL     1      31.310 -10.065 -22.024  0.00  0.00    +0.054 C 
ATOM      8  C   UNL     1      31.409  -9.039 -19.392  0.00  0.00    +0.005 C 
ATOM      9  C   UNL     1      31.458 -10.418 -19.626  0.00  0.00    +0.037 C 
ATOM     10  C   UNL     1      31.057  -5.128 -22.460  0.00  0.00    +0.017 C 
ATOM     11  C   UNL     1      31.236  -5.662 -19.690  0.00  0.00    +0.001 C 
ATOM     12  C   UNL     1      31.061  -4.088 -21.527  0.00  0.00    +0.001 C 
ATOM     13  C   UNL     1      31.148  -4.348 -20.162  0.00  0.00    +0.000 C 
ENDROOT
BRANCH   4  14
ATOM     14  O   UNL     1      31.461 -12.268 -21.125  0.00  0.00    -0.479 OA
BRANCH  14  17
ATOM     15  N   UNL     1      33.866 -14.919 -23.229  0.00  0.00    -0.297 N 
ATOM     16  N   UNL     1      33.801 -16.300 -25.126  0.00  0.00    -0.289 NA
ATOM     17  C   UNL     1      32.621 -12.780 -21.771  0.00  0.00    +0.169 C 
ATOM     18  C   UNL     1      32.327 -13.019 -23.252  0.00  0.00    +0.065 C 
ATOM     19  C   UNL     1      33.029 -14.086 -21.088  0.00  0.00    +0.065 C 
ATOM     20  C   UNL     1      33.502 -13.700 -23.948  0.00  0.00    +0.096 C 
ATOM     21  C   UNL     1      34.194 -14.752 -21.814  0.00  0.00    +0.096 C 
ATOM     22  C   UNL     1      33.988 -16.112 -23.856  0.00  0.00    +0.100 C 
ATOM     23  C   UNL     1      34.368 -17.300 -23.009  0.00  0.00    +0.068 C 
ATOM     24  H   UNL     1      33.552 -15.544 -25.705  0.00  0.00    +0.188 HD
ENDBRANCH  14  17
ENDBRANCH   4  14
BRANCH   1  25
ATOM     25  C   UNL     1      31.087  -7.765 -24.091  0.00  0.00    +0.133 C 
BRANCH  25  26
ATOM     26  C   UNL     1      32.217  -7.039 -24.769  0.00  0.00    +0.000 C 
ATOM     27  C   UNL     1      31.942  -6.188 -25.831  0.00  0.00    -0.002 C 
ATOM     28  C   UNL     1      33.515  -7.228 -24.324  0.00  0.00    -0.002 C 
ATOM     29  C   UNL     1      32.985  -5.502 -26.475  0.00  0.00    -0.000 C 
ATOM     30  C   UNL     1      34.315  -5.689 -26.029  0.00  0.00    -0.000 C 
ATOM     31  C   UNL     1      34.563  -6.557 -24.952  0.00  0.00    -0.000 C 
ATOM     32  C   UNL     1      32.738  -4.636 -27.552  0.00  0.00    +0.003 C 
ATOM     33  C   UNL     1      35.359  -5.004 -26.674  0.00  0.00    +0.000 C 
ATOM     34  C   UNL     1      33.787  -3.964 -28.181  0.00  0.00    +0.031 C 
ATOM     35  C   UNL     1      35.094  -4.147 -27.741  0.00  0.00    +0.003 C 
BRANCH  34  38
ATOM     36  N   UNL     1      32.210  -2.729 -29.649  0.00  0.00    -0.343 N 
ATOM     37  N   UNL     1      34.515  -2.564 -29.993  0.00  0.00    -0.285 NA
ATOM     38  C   UNL     1      33.514  -3.069 -29.294  0.00  0.00    +0.117 C 
ATOM     39  H   UNL     1      32.047  -2.122 -30.407  0.00  0.00    +0.144 HD
ATOM     40  H   UNL     1      31.450  -3.098 -29.143  0.00  0.00    +0.144 HD
ATOM     41  H   UNL     1      34.333  -1.957 -30.747  0.00  0.00    +0.188 HD
ENDBRANCH  34  38
ENDBRANCH  25  26
ENDBRANCH   1  25
TORSDOF 5
ENDMDL
MODEL 2
REMARK VINA RESULT:     -11.2     11.501     16.584
REMARK  Name = 448062
REMARK  5 active torsions:
REMARK  status: ('A' for Active; 'I' for Inactive)
REMARK    1  A    between atoms: N_1  and  C_25
REMARK    2  A    between atoms: C_4  and  O_14
REMARK    3  A    between atoms: O_14  and  C_17
REMARK    4  A    between atoms: C_25  and  C_26
REMARK    5  A    between atoms: C_34  and  C_38
REMARK                            x       y       z     vdW  Elec       q    Type
REMARK                         _______ _______ _______ _____ _____    ______ ____
ROOT
ATOM      1  N   UNL     1      36.910 -22.799 -15.276  0.00  0.00    -0.323 N 
ATOM      2  C   UNL     1      35.671 -23.030 -14.726  0.00  0.00    +0.063 A 
ATOM      3  C   UNL     1      35.765 -24.200 -13.973  0.00  0.00    +0.017 A 
ATOM      4  C   UNL     1      33.360 -22.773 -14.161  0.00  0.00    +0.140 C 
ATOM      5  C   UNL     1      37.801 -23.779 -14.904  0.00  0.00    +0.060 A 
ATOM      6  C   UNL     1      37.111 -24.674 -14.085  0.00  0.00    +0.017 A 
ATOM      7  C   UNL     1      34.485 -22.296 -14.840  0.00  0.00    +0.054 C 
ATOM      8  C   UNL     1      34.616 -24.662 -13.298  0.00  0.00    +0.005 C 
ATOM      9  C   UNL     1      33.422 -23.938 -13.401  0.00  0.00    +0.037 C 
ATOM     10  C   UNL     1      39.152 -23.936 -15.229  0.00  0.00    +0.017 C 
ATOM     11  C   UNL     1      37.808 -25.784 -13.565  0.00  0.00    +0.001 C 
ATOM     12  C   UNL     1      39.820 -25.044 -14.700  0.00  0.00    +0.001 C 
ATOM     13  C   UNL     1      39.160 -25.956 -13.880  0.00  0.00    +0.000 C 
ENDROOT
BRANCH   4  14
ATOM     14  O   UNL     1      32.185 -22.087 -14.246  0.00  0.00    -0.479 OA
BRANCH  14  17
ATOM     15  N   UNL     1      28.407 -22.862 -15.783  0.00  0.00    -0.297 N 
ATOM     16  N   UNL     1      27.101 -22.403 -17.678  0.00  0.00    -0.289 NA
ATOM     17  C   UNL     1      31.028 -22.831 -14.607  0.00  0.00    +0.169 C 
ATOM     18  C   UNL     1      30.827 -22.775 -16.122  0.00  0.00    +0.065 C 
ATOM     19  C   UNL     1      29.817 -22.241 -13.884  0.00  0.00    +0.065 C 
ATOM     20  C   UNL     1      29.519 -23.443 -16.533  0.00  0.00    +0.096 C 
ATOM     21  C   UNL     1      28.522 -22.917 -14.327  0.00  0.00    +0.096 C 
ATOM     22  C   UNL     1      27.297 -22.390 -16.397  0.00  0.00    +0.100 C 
ATOM     23  C   UNL     1      26.217 -21.813 -15.517  0.00  0.00    +0.068 C 
ATOM     24  H   UNL     1      27.788 -22.774 -18.278  0.00  0.00    +0.188 HD
ENDBRANCH  14  17
ENDBRANCH   4  14
BRANCH   1  25
ATOM     25  C   UNL     1      37.235 -21.673 -16.129  0.00  0.00    +0.133 C 
BRANCH  25  26
ATOM     26  C   UNL     1      36.188 -21.469 -17.190  0.00  0.00    +0.000 C 
ATOM     27  C   UNL     1      36.419 -20.557 -18.212  0.00  0.00    -0.002 C 
ATOM     28  C   UNL     1      35.009 -22.193 -17.134  0.00  0.00    -0.002 C 
ATOM     29  C   UNL     1      35.453 -20.355 -19.210  0.00  0.00    -0.000 C 
ATOM     30  C   UNL     1      34.243 -21.089 -19.162  0.00  0.00    -0.000 C 
ATOM     31  C   UNL     1      34.037 -22.004 -18.116  0.00  0.00    -0.000 C 
ATOM     32  C   UNL     1      35.658 -19.439 -20.255  0.00  0.00    +0.003 C 
ATOM     33  C   UNL     1      33.276 -20.886 -20.161  0.00  0.00    +0.000 C 
ATOM     34  C   UNL     1      34.687 -19.250 -21.238  0.00  0.00    +0.031 C 
ATOM     35  C   UNL     1      33.498 -19.973 -21.191  0.00  0.00    +0.003 C 
BRANCH  34  38
ATOM     36  N   UNL     1      33.994 -18.135 -23.345  0.00  0.00    -0.343 N 
ATOM     37  N   UNL     1      36.020 -17.573 -22.327  0.00  0.00    -0.285 NA
ATOM     38  C   UNL     1      34.916 -18.299 -22.314  0.00  0.00    +0.117 C 
ATOM     39  H   UNL     1      34.169 -17.486 -24.065  0.00  0.00    +0.144 HD
ATOM     40  H   UNL     1      33.166 -18.669 -23.356  0.00  0.00    +0.144 HD
ATOM     41  H   UNL     1      36.177 -16.928 -23.054  0.00  0.00    +0.188 HD
ENDBRANCH  34  38
ENDBRANCH  25  26
ENDBRANCH   1  25
TORSDOF 5
ENDMDL
MODEL 3
REMARK VINA RESULT:     -11.1      3.745      7.941
REMARK  Name = 448062
REMARK  5 active torsions:
REMARK  status: ('A' for Active; 'I' for Inactive)
REMARK    1  A    between atoms: N_1  and  C_25
REMARK    2  A    between atoms: C_4  and  O_14
REMARK    3  A    between atoms: O_14  and  C_17
REMARK    4  A    between atoms: C_25  and  C_26
REMARK    5  A    between atoms: C_34  and  C_38
REMARK                            x       y       z     vdW  Elec       q    Type
REMARK                         _______ _______ _______ _____ _____    ______ ____
ROOT
ATOM      1  N   UNL     1      33.774 -14.266 -22.340  0.00  0.00    -0.323 N 
ATOM      2  C   UNL     1      34.140 -15.591 -22.326  0.00  0.00    +0.063 A 
ATOM      3  C   UNL     1      34.003 -16.070 -23.629  0.00  0.00    +0.017 A 
ATOM      4  C   UNL     1      34.886 -17.728 -21.547  0.00  0.00    +0.140 C 
ATOM      5  C   UNL     1      33.406 -13.872 -23.605  0.00  0.00    +0.060 A 
ATOM      6  C   UNL     1      33.539 -14.984 -24.437  0.00  0.00    +0.017 A 
ATOM      7  C   UNL     1      34.578 -16.394 -21.266  0.00  0.00    +0.054 C 
ATOM      8  C   UNL     1      34.319 -17.421 -23.887  0.00  0.00    +0.005 C 
ATOM      9  C   UNL     1      34.760 -18.236 -22.838  0.00  0.00    +0.037 C 
ATOM     10  C   UNL     1      32.970 -12.627 -24.069  0.00  0.00    +0.017 C 
ATOM     11  C   UNL     1      33.219 -14.845 -25.804  0.00  0.00    +0.001 C 
ATOM     12  C   UNL     1      32.660 -12.515 -25.427  0.00  0.00    +0.001 C 
ATOM     13  C   UNL     1      32.782 -13.606 -26.284  0.00  0.00    +0.000 C 
ENDROOT
BRANCH   4  14
ATOM     14  O   UNL     1      35.316 -18.542 -20.542  0.00  0.00    -0.479 OA
BRANCH  14  17
ATOM     15  N   UNL     1      33.215 -21.674 -18.807  0.00  0.00    -0.297 N 
ATOM     16  N   UNL     1      31.294 -22.062 -17.515  0.00  0.00    -0.289 NA
ATOM     17  C   UNL     1      34.685 -19.812 -20.426  0.00  0.00    +0.169 C 
ATOM     18  C   UNL     1      33.194 -19.625 -20.141  0.00  0.00    +0.065 C 
ATOM     19  C   UNL     1      35.353 -20.593 -19.295  0.00  0.00    +0.065 C 
ATOM     20  C   UNL     1      32.510 -20.962 -19.871  0.00  0.00    +0.096 C 
ATOM     21  C   UNL     1      34.638 -21.916 -19.036  0.00  0.00    +0.096 C 
ATOM     22  C   UNL     1      32.570 -22.165 -17.723  0.00  0.00    +0.100 C 
ATOM     23  C   UNL     1      33.404 -22.881 -16.692  0.00  0.00    +0.068 C 
ATOM     24  H   UNL     1      30.723 -21.600 -18.171  0.00  0.00    +0.188 HD
ENDBRANCH  14  17
ENDBRANCH   4  14
BRANCH   1  25
ATOM     25  C   UNL     1      33.779 -13.399 -21.177  0.00  0.00    +0.133 C 
BRANCH  25  26
ATOM     26  C   UNL     1      32.862 -12.221 -21.367  0.00  0.00    +0.000 C 
ATOM     27  C   UNL     1      33.304 -11.122 -22.093  0.00  0.00    -0.002 C 
ATOM     28  C   UNL     1      31.592 -12.248 -20.816  0.00  0.00    -0.002 C 
ATOM     29  C   UNL     1      32.461 -10.015 -22.280  0.00  0.00    -0.000 C 
ATOM     30  C   UNL     1      31.161 -10.032 -21.721  0.00  0.00    -0.000 C 
ATOM     31  C   UNL     1      30.742 -11.156 -20.991  0.00  0.00    -0.000 C 
ATOM     32  C   UNL     1      32.879  -8.890 -23.009  0.00  0.00    +0.003 C 
ATOM     33  C   UNL     1      30.318  -8.923 -21.907  0.00  0.00    +0.000 C 
ATOM     34  C   UNL     1      32.029  -7.798 -23.184  0.00  0.00    +0.031 C 
ATOM     35  C   UNL     1      30.751  -7.815 -22.635  0.00  0.00    +0.003 C 
BRANCH  34  38
ATOM     36  N   UNL     1      33.502  -5.820 -23.477  0.00  0.00    -0.343 N 
ATOM     37  N   UNL     1      31.906  -6.350 -25.099  0.00  0.00    -0.285 NA
ATOM     38  C   UNL     1      32.477  -6.641 -23.943  0.00  0.00    +0.117 C 
ATOM     39  H   UNL     1      33.790  -5.042 -24.007  0.00  0.00    +0.144 HD
ATOM     40  H   UNL     1      33.938  -6.018 -22.616  0.00  0.00    +0.144 HD
ATOM     41  H   UNL     1      32.208  -5.568 -25.615  0.00  0.00    +0.188 HD
ENDBRANCH  34  38
ENDBRANCH  25  26
ENDBRANCH   1  25
TORSDOF 5
ENDMDL
MODEL 4
REMARK VINA RESULT:     -10.8     11.879     16.333
REMARK  Name = 448062
REMARK  5 active torsions:
REMARK  status: ('A' for Active; 'I' for Inactive)
REMARK    1  A    between atoms: N_1  and  C_25
REMARK    2  A    between atoms: C_4  and  O_14
REMARK    3  A    between atoms: O_14  and  C_17
REMARK    4  A    between atoms: C_25  and  C_26
REMARK    5  A    between atoms: C_34  and  C_38
REMARK                            x       y       z     vdW  Elec       q    Type
REMARK                         _______ _______ _______ _____ _____    ______ ____
ROOT
ATOM      1  N   UNL     1      31.206 -23.219 -16.084  0.00  0.00    -0.323 N 
ATOM      2  C   UNL     1      31.820 -23.200 -14.853  0.00  0.00    +0.063 A 
ATOM      3  C   UNL     1      30.896 -22.692 -13.940  0.00  0.00    +0.017 A 
ATOM      4  C   UNL     1      33.471 -23.461 -13.141  0.00  0.00    +0.140 C 
ATOM      5  C   UNL     1      29.920 -22.741 -15.997  0.00  0.00    +0.060 A 
ATOM      6  C   UNL     1      29.695 -22.401 -14.662  0.00  0.00    +0.017 A 
ATOM      7  C   UNL     1      33.112 -23.592 -14.485  0.00  0.00    +0.054 C 
ATOM      8  C   UNL     1      31.283 -22.568 -12.589  0.00  0.00    +0.005 C 
ATOM      9  C   UNL     1      32.571 -22.957 -12.205  0.00  0.00    +0.037 C 
ATOM     10  C   UNL     1      28.949 -22.585 -16.992  0.00  0.00    +0.017 C 
ATOM     11  C   UNL     1      28.435 -21.880 -14.303  0.00  0.00    +0.001 C 
ATOM     12  C   UNL     1      27.708 -22.067 -16.609  0.00  0.00    +0.001 C 
ATOM     13  C   UNL     1      27.453 -21.719 -15.285  0.00  0.00    +0.000 C 
ENDROOT
BRANCH   4  14
ATOM     14  O   UNL     1      34.721 -23.832 -12.742  0.00  0.00    -0.479 OA
BRANCH  14  17
ATOM     15  N   UNL     1      38.312 -24.964 -14.491  0.00  0.00    -0.297 N 
ATOM     16  N   UNL     1      40.089 -26.461 -14.158  0.00  0.00    -0.289 NA
ATOM     17  C   UNL     1      35.637 -24.210 -13.762  0.00  0.00    +0.169 C 
ATOM     18  C   UNL     1      36.182 -25.610 -13.476  0.00  0.00    +0.065 C 
ATOM     19  C   UNL     1      36.775 -23.190 -13.805  0.00  0.00    +0.065 C 
ATOM     20  C   UNL     1      37.274 -25.993 -14.470  0.00  0.00    +0.096 C 
ATOM     21  C   UNL     1      37.859 -23.608 -14.795  0.00  0.00    +0.096 C 
ATOM     22  C   UNL     1      39.622 -25.264 -14.335  0.00  0.00    +0.100 C 
ATOM     23  C   UNL     1      40.600 -24.117 -14.374  0.00  0.00    +0.068 C 
ATOM     24  H   UNL     1      39.475 -27.230 -14.128  0.00  0.00    +0.188 HD
ENDBRANCH  14  17
ENDBRANCH   4  14
BRANCH   1  25
ATOM     25  C   UNL     1      31.831 -23.683 -17.307  0.00  0.00    +0.133 C 
BRANCH  25  26
ATOM     26  C   UNL     1      32.973 -22.791 -17.713  0.00  0.00    +0.000 C 
ATOM     27  C   UNL     1      32.847 -21.991 -18.841  0.00  0.00    -0.002 C 
ATOM     28  C   UNL     1      34.133 -22.780 -16.957  0.00  0.00    -0.002 C 
ATOM     29  C   UNL     1      33.904 -21.152 -19.234  0.00  0.00    -0.000 C 
ATOM     30  C   UNL     1      35.094 -21.134 -18.468  0.00  0.00    -0.000 C 
ATOM     31  C   UNL     1      35.193 -21.955 -17.332  0.00  0.00    -0.000 C 
ATOM     32  C   UNL     1      33.806 -20.333 -20.370  0.00  0.00    +0.003 C 
ATOM     33  C   UNL     1      36.151 -20.296 -18.861  0.00  0.00    +0.000 C 
ATOM     34  C   UNL     1      34.865 -19.507 -20.745  0.00  0.00    +0.031 C 
ATOM     35  C   UNL     1      36.035 -19.489 -19.992  0.00  0.00    +0.003 C 
BRANCH  34  38
ATOM     36  N   UNL     1      35.642 -17.622 -22.163  0.00  0.00    -0.343 N 
ATOM     37  N   UNL     1      33.773 -18.876 -22.791  0.00  0.00    -0.285 NA
ATOM     38  C   UNL     1      34.747 -18.663 -21.924  0.00  0.00    +0.117 C 
ATOM     39  H   UNL     1      35.543 -17.062 -22.967  0.00  0.00    +0.144 HD
ATOM     40  H   UNL     1      36.372 -17.445 -21.526  0.00  0.00    +0.144 HD
ATOM     41  H   UNL     1      33.692 -18.307 -23.590  0.00  0.00    +0.188 HD
ENDBRANCH  34  38
ENDBRANCH  25  26
ENDBRANCH   1  25
TORSDOF 5
ENDMDL
MODEL 5
REMARK VINA RESULT:     -10.6      7.901     16.082
REMARK  Name = 448062
REMARK  5 active torsions:
REMARK  status: ('A' for Active; 'I' for Inactive)
REMARK    1  A    between atoms: N_1  and  C_25
REMARK    2  A    between atoms: C_4  and  O_14
REMARK    3  A    between atoms: O_14  and  C_17
REMARK    4  A    between atoms: C_25  and  C_26
REMARK    5  A    between atoms: C_34  and  C_38
REMARK                            x       y       z     vdW  Elec       q    Type
REMARK                         _______ _______ _______ _____ _____    ______ ____
ROOT
ATOM      1  N   UNL     1      34.546 -22.276 -17.898  0.00  0.00    -0.323 N 
ATOM      2  C   UNL     1      34.849 -21.283 -18.800  0.00  0.00    +0.063 A 
ATOM      3  C   UNL     1      36.000 -20.645 -18.341  0.00  0.00    +0.017 A 
ATOM      4  C   UNL     1      34.734 -19.847 -20.711  0.00  0.00    +0.140 C 
ATOM      5  C   UNL     1      35.461 -22.300 -16.872  0.00  0.00    +0.060 A 
ATOM      6  C   UNL     1      36.387 -21.286 -17.121  0.00  0.00    +0.017 A 
ATOM      7  C   UNL     1      34.194 -20.908 -19.980  0.00  0.00    +0.054 C 
ATOM      8  C   UNL     1      36.525 -19.575 -19.096  0.00  0.00    +0.005 C 
ATOM      9  C   UNL     1      35.883 -19.189 -20.278  0.00  0.00    +0.037 C 
ATOM     10  C   UNL     1      35.536 -23.135 -15.752  0.00  0.00    +0.017 C 
ATOM     11  C   UNL     1      37.443 -21.098 -16.205  0.00  0.00    +0.001 C 
ATOM     12  C   UNL     1      36.592 -22.928 -14.860  0.00  0.00    +0.001 C 
ATOM     13  C   UNL     1      37.532 -21.926 -15.081  0.00  0.00    +0.000 C 
ENDROOT
BRANCH   4  14
ATOM     14  O   UNL     1      34.126 -19.451 -21.866  0.00  0.00    -0.479 OA
BRANCH  14  17
ATOM     15  N   UNL     1      34.100 -15.579 -23.364  0.00  0.00    -0.297 N 
ATOM     16  N   UNL     1      33.381 -13.423 -22.779  0.00  0.00    -0.289 NA
ATOM     17  C   UNL     1      34.614 -18.263 -22.477  0.00  0.00    +0.169 C 
ATOM     18  C   UNL     1      34.518 -17.097 -21.492  0.00  0.00    +0.065 C 
ATOM     19  C   UNL     1      33.785 -17.977 -23.729  0.00  0.00    +0.065 C 
ATOM     20  C   UNL     1      34.900 -15.778 -22.156  0.00  0.00    +0.096 C 
ATOM     21  C   UNL     1      34.177 -16.645 -24.362  0.00  0.00    +0.096 C 
ATOM     22  C   UNL     1      33.409 -14.437 -23.586  0.00  0.00    +0.100 C 
ATOM     23  C   UNL     1      32.620 -14.349 -24.868  0.00  0.00    +0.068 C 
ATOM     24  H   UNL     1      33.887 -13.451 -21.935  0.00  0.00    +0.188 HD
ENDBRANCH  14  17
ENDBRANCH   4  14
BRANCH   1  25
ATOM     25  C   UNL     1      33.416 -23.177 -18.014  0.00  0.00    +0.133 C 
BRANCH  25  26
ATOM     26  C   UNL     1      32.413 -22.944 -16.917  0.00  0.00    +0.000 C 
ATOM     27  C   UNL     1      31.088 -22.691 -17.245  0.00  0.00    -0.002 C 
ATOM     28  C   UNL     1      32.825 -22.985 -15.595  0.00  0.00    -0.002 C 
ATOM     29  C   UNL     1      30.139 -22.472 -16.233  0.00  0.00    -0.000 C 
ATOM     30  C   UNL     1      30.550 -22.511 -14.879  0.00  0.00    -0.000 C 
ATOM     31  C   UNL     1      31.897 -22.768 -14.577  0.00  0.00    -0.000 C 
ATOM     32  C   UNL     1      28.792 -22.214 -16.534  0.00  0.00    +0.003 C 
ATOM     33  C   UNL     1      29.600 -22.291 -13.867  0.00  0.00    +0.000 C 
ATOM     34  C   UNL     1      27.863 -21.998 -15.516  0.00  0.00    +0.031 C 
ATOM     35  C   UNL     1      28.267 -22.037 -14.185  0.00  0.00    +0.003 C 
BRANCH  34  38
ATOM     36  N   UNL     1      26.060 -21.551 -17.164  0.00  0.00    -0.343 N 
ATOM     37  N   UNL     1      25.570 -21.659 -14.881  0.00  0.00    -0.285 NA
ATOM     38  C   UNL     1      26.471 -21.733 -15.845  0.00  0.00    +0.117 C 
ATOM     39  H   UNL     1      25.112 -21.372 -17.364  0.00  0.00    +0.144 HD
ATOM     40  H   UNL     1      26.717 -21.599 -17.895  0.00  0.00    +0.144 HD
ATOM     41  H   UNL     1      24.627 -21.481 -15.101  0.00  0.00    +0.188 HD
ENDBRANCH  34  38
ENDBRANCH  25  26
ENDBRANCH   1  25
TORSDOF 5
ENDMDL
MODEL 6
REMARK VINA RESULT:     -10.5     11.474     17.429
REMARK  Name = 448062
REMARK  5 active torsions:
REMARK  status: ('A' for Active; 'I' for Inactive)
REMARK    1  A    between atoms: N_1  and  C_25
REMARK    2  A    between atoms: C_4  and  O_14
REMARK    3  A    between atoms: O_14  and  C_17
REMARK    4  A    between atoms: C_25  and  C_26
REMARK    5  A    between atoms: C_34  and  C_38
REMARK                            x       y       z     vdW  Elec       q    Type
REMARK                         _______ _______ _______ _____ _____    ______ ____
ROOT
ATOM      1  N   UNL     1      34.344 -23.844 -14.107  0.00  0.00    -0.323 N 
ATOM      2  C   UNL     1      34.902 -23.145 -15.151  0.00  0.00    +0.063 A 
ATOM      3  C   UNL     1      36.016 -22.473 -14.649  0.00  0.00    +0.017 A 
ATOM      4  C   UNL     1      35.274 -22.263 -17.344  0.00  0.00    +0.140 C 
ATOM      5  C   UNL     1      35.058 -23.647 -12.948  0.00  0.00    +0.060 A 
ATOM      6  C   UNL     1      36.115 -22.790 -13.256  0.00  0.00    +0.017 A 
ATOM      7  C   UNL     1      34.506 -23.060 -16.491  0.00  0.00    +0.054 C 
ATOM      8  C   UNL     1      36.775 -21.674 -15.529  0.00  0.00    +0.005 C 
ATOM      9  C   UNL     1      36.392 -21.579 -16.873  0.00  0.00    +0.037 C 
ATOM     10  C   UNL     1      34.848 -24.159 -11.663  0.00  0.00    +0.017 C 
ATOM     11  C   UNL     1      37.009 -22.425 -12.228  0.00  0.00    +0.001 C 
ATOM     12  C   UNL     1      35.748 -23.783 -10.662  0.00  0.00    +0.001 C 
ATOM     13  C   UNL     1      36.813 -22.929 -10.938  0.00  0.00    +0.000 C 
ENDROOT
BRANCH   4  14
ATOM     14  O   UNL     1      34.922 -22.153 -18.656  0.00  0.00    -0.479 OA
BRANCH  14  17
ATOM     15  N   UNL     1      34.165 -19.092 -21.358  0.00  0.00    -0.297 N 
ATOM     16  N   UNL     1      32.990 -18.692 -23.349  0.00  0.00    -0.289 NA
ATOM     17  C   UNL     1      34.584 -20.854 -19.127  0.00  0.00    +0.169 C 
ATOM     18  C   UNL     1      33.316 -20.925 -19.980  0.00  0.00    +0.065 C 
ATOM     19  C   UNL     1      35.752 -20.308 -19.949  0.00  0.00    +0.065 C 
ATOM     20  C   UNL     1      33.001 -19.576 -20.618  0.00  0.00    +0.096 C 
ATOM     21  C   UNL     1      35.403 -18.967 -20.588  0.00  0.00    +0.096 C 
ATOM     22  C   UNL     1      34.080 -18.692 -22.647  0.00  0.00    +0.100 C 
ATOM     23  C   UNL     1      35.350 -18.213 -23.304  0.00  0.00    +0.068 C 
ATOM     24  H   UNL     1      32.145 -18.999 -22.947  0.00  0.00    +0.188 HD
ENDBRANCH  14  17
ENDBRANCH   4  14
BRANCH   1  25
ATOM     25  C   UNL     1      33.163 -24.679 -14.213  0.00  0.00    +0.133 C 
BRANCH  25  26
ATOM     26  C   UNL     1      31.903 -23.862 -14.121  0.00  0.00    +0.000 C 
ATOM     27  C   UNL     1      31.018 -23.847 -15.191  0.00  0.00    -0.002 C 
ATOM     28  C   UNL     1      31.643 -23.136 -12.971  0.00  0.00    -0.002 C 
ATOM     29  C   UNL     1      29.837 -23.091 -15.121  0.00  0.00    -0.000 C 
ATOM     30  C   UNL     1      29.562 -22.344 -13.950  0.00  0.00    -0.000 C 
ATOM     31  C   UNL     1      30.476 -22.377 -12.884  0.00  0.00    -0.000 C 
ATOM     32  C   UNL     1      28.924 -23.057 -16.187  0.00  0.00    +0.003 C 
ATOM     33  C   UNL     1      28.381 -21.586 -13.880  0.00  0.00    +0.000 C 
ATOM     34  C   UNL     1      27.756 -22.298 -16.100  0.00  0.00    +0.031 C 
ATOM     35  C   UNL     1      27.486 -21.565 -14.949  0.00  0.00    +0.003 C 
BRANCH  34  38
ATOM     36  N   UNL     1      25.978 -21.186 -17.430  0.00  0.00    -0.343 N 
ATOM     37  N   UNL     1      26.754 -23.304 -18.039  0.00  0.00    -0.285 NA
ATOM     38  C   UNL     1      26.820 -22.275 -17.213  0.00  0.00    +0.117 C 
ATOM     39  H   UNL     1      25.351 -21.191 -18.189  0.00  0.00    +0.144 HD
ATOM     40  H   UNL     1      26.009 -20.411 -16.823  0.00  0.00    +0.144 HD
ATOM     41  H   UNL     1      26.121 -23.290 -18.794  0.00  0.00    +0.188 HD
ENDBRANCH  34  38
ENDBRANCH  25  26
ENDBRANCH   1  25
TORSDOF 5
ENDMDL
MODEL 7
REMARK VINA RESULT:      -9.5     13.237     18.136
REMARK  Name = 448062
REMARK  5 active torsions:
REMARK  status: ('A' for Active; 'I' for Inactive)
REMARK    1  A    between atoms: N_1  and  C_25
REMARK    2  A    between atoms: C_4  and  O_14
REMARK    3  A    between atoms: O_14  and  C_17
REMARK    4  A    between atoms: C_25  and  C_26
REMARK    5  A    between atoms: C_34  and  C_38
REMARK                            x       y       z     vdW  Elec       q    Type
REMARK                         _______ _______ _______ _____ _____    ______ ____
ROOT
ATOM      1  N   UNL     1      35.908 -20.904 -17.609  0.00  0.00    -0.323 N 
ATOM      2  C   UNL     1      34.837 -21.684 -17.242  0.00  0.00    +0.063 A 
ATOM      3  C   UNL     1      33.930 -21.664 -18.301  0.00  0.00    +0.017 A 
ATOM      4  C   UNL     1      33.412 -23.118 -15.961  0.00  0.00    +0.140 C 
ATOM      5  C   UNL     1      35.724 -20.381 -18.867  0.00  0.00    +0.060 A 
ATOM      6  C   UNL     1      34.490 -20.839 -19.328  0.00  0.00    +0.017 A 
ATOM      7  C   UNL     1      34.607 -22.401 -16.061  0.00  0.00    +0.054 C 
ATOM      8  C   UNL     1      32.730 -22.395 -18.175  0.00  0.00    +0.005 C 
ATOM      9  C   UNL     1      32.486 -23.117 -17.001  0.00  0.00    +0.037 C 
ATOM     10  C   UNL     1      36.551 -19.543 -19.623  0.00  0.00    +0.017 C 
ATOM     11  C   UNL     1      34.059 -20.440 -20.611  0.00  0.00    +0.001 C 
ATOM     12  C   UNL     1      36.102 -19.163 -20.890  0.00  0.00    +0.001 C 
ATOM     13  C   UNL     1      34.875 -19.603 -21.379  0.00  0.00    +0.000 C 
ENDROOT
BRANCH   4  14
ATOM     14  O   UNL     1      33.151 -23.829 -14.827  0.00  0.00    -0.479 OA
BRANCH  14  17
ATOM     15  N   UNL     1      29.020 -23.416 -14.893  0.00  0.00    -0.297 N 
ATOM     16  N   UNL     1      27.160 -24.075 -16.165  0.00  0.00    -0.289 NA
ATOM     17  C   UNL     1      31.813 -23.802 -14.344  0.00  0.00    +0.169 C 
ATOM     18  C   UNL     1      30.981 -24.867 -15.060  0.00  0.00    +0.065 C 
ATOM     19  C   UNL     1      31.229 -22.411 -14.588  0.00  0.00    +0.065 C 
ATOM     20  C   UNL     1      29.509 -24.775 -14.671  0.00  0.00    +0.096 C 
ATOM     21  C   UNL     1      29.752 -22.354 -14.205  0.00  0.00    +0.096 C 
ATOM     22  C   UNL     1      27.901 -23.165 -15.612  0.00  0.00    +0.100 C 
ATOM     23  C   UNL     1      27.496 -21.722 -15.773  0.00  0.00    +0.068 C 
ATOM     24  H   UNL     1      27.399 -25.026 -16.076  0.00  0.00    +0.188 HD
ENDBRANCH  14  17
ENDBRANCH   4  14
BRANCH   1  25
ATOM     25  C   UNL     1      37.076 -20.668 -16.782  0.00  0.00    +0.133 C 
BRANCH  25  26
ATOM     26  C   UNL     1      37.304 -21.801 -15.818  0.00  0.00    +0.000 C 
ATOM     27  C   UNL     1      36.666 -21.788 -14.585  0.00  0.00    -0.002 C 
ATOM     28  C   UNL     1      38.147 -22.841 -16.174  0.00  0.00    -0.002 C 
ATOM     29  C   UNL     1      36.868 -22.837 -13.674  0.00  0.00    -0.000 C 
ATOM     30  C   UNL     1      37.728 -23.905 -14.027  0.00  0.00    -0.000 C 
ATOM     31  C   UNL     1      38.360 -23.891 -15.282  0.00  0.00    -0.000 C 
ATOM     32  C   UNL     1      36.237 -22.851 -12.420  0.00  0.00    +0.003 C 
ATOM     33  C   UNL     1      37.930 -24.954 -13.115  0.00  0.00    +0.000 C 
ATOM     34  C   UNL     1      36.450 -23.901 -11.526  0.00  0.00    +0.031 C 
ATOM     35  C   UNL     1      37.294 -24.951 -11.874  0.00  0.00    +0.003 C 
BRANCH  34  38
ATOM     36  N   UNL     1      36.056 -22.920  -9.280  0.00  0.00    -0.343 N 
ATOM     37  N   UNL     1      34.914 -24.848  -9.940  0.00  0.00    -0.285 NA
ATOM     38  C   UNL     1      35.788 -23.901 -10.232  0.00  0.00    +0.117 C 
ATOM     39  H   UNL     1      35.596 -22.939  -8.409  0.00  0.00    +0.144 HD
ATOM     40  H   UNL     1      36.707 -22.207  -9.477  0.00  0.00    +0.144 HD
ATOM     41  H   UNL     1      34.463 -24.850  -9.064  0.00  0.00    +0.188 HD
ENDBRANCH  34  38
ENDBRANCH  25  26
ENDBRANCH   1  25
TORSDOF 5
ENDMDL
MODEL 8
REMARK VINA RESULT:      -9.5      2.910      8.962
REMARK  Name = 448062
REMARK  5 active torsions:
REMARK  status: ('A' for Active; 'I' for Inactive)
REMARK    1  A    between atoms: N_1  and  C_25
REMARK    2  A    between atoms: C_4  and  O_14
REMARK    3  A    between atoms: O_14  and  C_17
REMARK    4  A    between atoms: C_25  and  C_26
REMARK    5  A    between atoms: C_34  and  C_38
REMARK                            x       y       z     vdW  Elec       q    Type
REMARK                         _______ _______ _______ _____ _____    ______ ____
ROOT
ATOM      1  N   UNL     1      33.074  -5.531 -23.541  0.00  0.00    -0.323 N 
ATOM      2  C   UNL     1      33.142  -5.178 -24.868  0.00  0.00    +0.063 A 
ATOM      3  C   UNL     1      32.166  -4.208 -25.088  0.00  0.00    +0.017 A 
ATOM      4  C   UNL     1      33.834  -5.098 -27.157  0.00  0.00    +0.140 C 
ATOM      5  C   UNL     1      32.087  -4.822 -22.897  0.00  0.00    +0.060 A 
ATOM      6  C   UNL     1      31.498  -3.982 -23.843  0.00  0.00    +0.017 A 
ATOM      7  C   UNL     1      33.991  -5.643 -25.880  0.00  0.00    +0.054 C 
ATOM      8  C   UNL     1      32.027  -3.673 -26.387  0.00  0.00    +0.005 C 
ATOM      9  C   UNL     1      32.868  -4.127 -27.409  0.00  0.00    +0.037 C 
ATOM     10  C   UNL     1      31.676  -4.862 -21.560  0.00  0.00    +0.017 C 
ATOM     11  C   UNL     1      30.444  -3.139 -23.432  0.00  0.00    +0.001 C 
ATOM     12  C   UNL     1      30.631  -4.017 -21.178  0.00  0.00    +0.001 C 
ATOM     13  C   UNL     1      30.022  -3.167 -22.099  0.00  0.00    +0.000 C 
ENDROOT
BRANCH   4  14
ATOM     14  O   UNL     1      34.641  -5.524 -28.171  0.00  0.00    -0.479 OA
BRANCH  14  17
ATOM     15  N   UNL     1      38.559  -4.148 -28.183  0.00  0.00    -0.297 N 
ATOM     16  N   UNL     1      40.753  -4.954 -28.388  0.00  0.00    -0.289 NA
ATOM     17  C   UNL     1      35.757  -4.703 -28.495  0.00  0.00    +0.169 C 
ATOM     18  C   UNL     1      36.824  -5.537 -29.206  0.00  0.00    +0.065 C 
ATOM     19  C   UNL     1      36.317  -4.102 -27.206  0.00  0.00    +0.065 C 
ATOM     20  C   UNL     1      38.094  -4.725 -29.443  0.00  0.00    +0.096 C 
ATOM     21  C   UNL     1      37.595  -3.310 -27.472  0.00  0.00    +0.096 C 
ATOM     22  C   UNL     1      39.832  -4.301 -27.751  0.00  0.00    +0.100 C 
ATOM     23  C   UNL     1      40.193  -3.660 -26.435  0.00  0.00    +0.068 C 
ATOM     24  H   UNL     1      40.547  -5.383 -29.250  0.00  0.00    +0.188 HD
ENDBRANCH  14  17
ENDBRANCH   4  14
BRANCH   1  25
ATOM     25  C   UNL     1      33.928  -6.514 -22.905  0.00  0.00    +0.133 C 
BRANCH  25  26
ATOM     26  C   UNL     1      33.190  -7.800 -22.651  0.00  0.00    +0.000 C 
ATOM     27  C   UNL     1      33.633  -8.972 -23.251  0.00  0.00    -0.002 C 
ATOM     28  C   UNL     1      32.080  -7.798 -21.823  0.00  0.00    -0.002 C 
ATOM     29  C   UNL     1      32.956 -10.182 -23.023  0.00  0.00    -0.000 C 
ATOM     30  C   UNL     1      31.819 -10.190 -22.180  0.00  0.00    -0.000 C 
ATOM     31  C   UNL     1      31.394  -8.990 -21.587  0.00  0.00    -0.000 C 
ATOM     32  C   UNL     1      33.380 -11.381 -23.616  0.00  0.00    +0.003 C 
ATOM     33  C   UNL     1      31.141 -11.400 -21.953  0.00  0.00    +0.000 C 
ATOM     34  C   UNL     1      32.694 -12.574 -23.380  0.00  0.00    +0.031 C 
ATOM     35  C   UNL     1      31.578 -12.582 -22.550  0.00  0.00    +0.003 C 
BRANCH  34  38
ATOM     36  N   UNL     1      34.059 -14.648 -23.364  0.00  0.00    -0.343 N 
ATOM     37  N   UNL     1      32.694 -14.150 -25.194  0.00  0.00    -0.285 NA
ATOM     38  C   UNL     1      33.147 -13.808 -24.001  0.00  0.00    +0.117 C 
ATOM     39  H   UNL     1      34.353 -15.479 -23.802  0.00  0.00    +0.144 HD
ATOM     40  H   UNL     1      34.411 -14.409 -22.476  0.00  0.00    +0.144 HD
ATOM     41  H   UNL     1      32.999 -14.986 -25.616  0.00  0.00    +0.188 HD
ENDBRANCH  34  38
ENDBRANCH  25  26
ENDBRANCH   1  25
TORSDOF 5
ENDMDL
MODEL 9
REMARK VINA RESULT:      -9.5     11.975     17.196
REMARK  Name = 448062
REMARK  5 active torsions:
REMARK  status: ('A' for Active; 'I' for Inactive)
REMARK    1  A    between atoms: N_1  and  C_25
REMARK    2  A    between atoms: C_4  and  O_14
REMARK    3  A    between atoms: O_14  and  C_17
REMARK    4  A    between atoms: C_25  and  C_26
REMARK    5  A    between atoms: C_34  and  C_38
REMARK                            x       y       z     vdW  Elec       q    Type
REMARK                         _______ _______ _______ _____ _____    ______ ____
ROOT
ATOM      1  N   UNL     1      35.007 -21.147 -19.481  0.00  0.00    -0.323 N 
ATOM      2  C   UNL     1      35.903 -20.815 -18.492  0.00  0.00    +0.063 A 
ATOM      3  C   UNL     1      36.464 -19.587 -18.839  0.00  0.00    +0.017 A 
ATOM      4  C   UNL     1      37.208 -20.920 -16.488  0.00  0.00    +0.140 C 
ATOM      5  C   UNL     1      34.971 -20.177 -20.454  0.00  0.00    +0.060 A 
ATOM      6  C   UNL     1      35.875 -19.183 -20.080  0.00  0.00    +0.017 A 
ATOM      7  C   UNL     1      36.253 -21.505 -17.325  0.00  0.00    +0.054 C 
ATOM      8  C   UNL     1      37.426 -19.017 -17.978  0.00  0.00    +0.005 C 
ATOM      9  C   UNL     1      37.786 -19.694 -16.808  0.00  0.00    +0.037 C 
ATOM     10  C   UNL     1      34.212 -20.107 -21.627  0.00  0.00    +0.017 C 
ATOM     11  C   UNL     1      36.030 -18.061 -20.921  0.00  0.00    +0.001 C 
ATOM     12  C   UNL     1      34.382 -18.985 -22.443  0.00  0.00    +0.001 C 
ATOM     13  C   UNL     1      35.277 -17.976 -22.096  0.00  0.00    +0.000 C 
ENDROOT
BRANCH   4  14
ATOM     14  O   UNL     1      37.576 -21.561 -15.342  0.00  0.00    -0.479 OA
BRANCH  14  17
ATOM     15  N   UNL     1      36.021 -24.504 -12.862  0.00  0.00    -0.297 N 
ATOM     16  N   UNL     1      35.185 -24.774 -10.686  0.00  0.00    -0.289 NA
ATOM     17  C   UNL     1      36.776 -22.664 -14.934  0.00  0.00    +0.169 C 
ATOM     18  C   UNL     1      35.864 -22.244 -13.781  0.00  0.00    +0.065 C 
ATOM     19  C   UNL     1      37.695 -23.806 -14.502  0.00  0.00    +0.065 C 
ATOM     20  C   UNL     1      35.092 -23.435 -13.223  0.00  0.00    +0.096 C 
ATOM     21  C   UNL     1      36.897 -24.976 -13.933  0.00  0.00    +0.096 C 
ATOM     22  C   UNL     1      36.003 -25.088 -11.641  0.00  0.00    +0.100 C 
ATOM     23  C   UNL     1      37.011 -26.180 -11.386  0.00  0.00    +0.068 C 
ATOM     24  H   UNL     1      34.516 -24.065 -10.823  0.00  0.00    +0.188 HD
ENDBRANCH  14  17
ENDBRANCH   4  14
BRANCH   1  25
ATOM     25  C   UNL     1      34.207 -22.357 -19.494  0.00  0.00    +0.133 C 
BRANCH  25  26
ATOM     26  C   UNL     1      33.063 -22.268 -18.521  0.00  0.00    +0.000 C 
ATOM     27  C   UNL     1      33.091 -23.031 -17.361  0.00  0.00    -0.002 C 
ATOM     28  C   UNL     1      31.997 -21.428 -18.796  0.00  0.00    -0.002 C 
ATOM     29  C   UNL     1      32.031 -22.960 -16.443  0.00  0.00    -0.000 C 
ATOM     30  C   UNL     1      30.936 -22.104 -16.714  0.00  0.00    -0.000 C 
ATOM     31  C   UNL     1      30.934 -21.345 -17.896  0.00  0.00    -0.000 C 
ATOM     32  C   UNL     1      32.032 -23.719 -15.262  0.00  0.00    +0.003 C 
ATOM     33  C   UNL     1      29.875 -22.034 -15.796  0.00  0.00    +0.000 C 
ATOM     34  C   UNL     1      30.970 -23.637 -14.361  0.00  0.00    +0.031 C 
ATOM     35  C   UNL     1      29.894 -22.795 -14.628  0.00  0.00    +0.003 C 
BRANCH  34  38
ATOM     36  N   UNL     1      29.820 -24.676 -12.421  0.00  0.00    -0.343 N 
ATOM     37  N   UNL     1      32.127 -24.927 -12.696  0.00  0.00    -0.285 NA
ATOM     38  C   UNL     1      30.987 -24.429 -13.142  0.00  0.00    +0.117 C 
ATOM     39  H   UNL     1      29.854 -25.215 -11.597  0.00  0.00    +0.144 HD
ATOM     40  H   UNL     1      28.961 -24.311 -12.735  0.00  0.00    +0.144 HD
ATOM     41  H   UNL     1      32.141 -25.464 -11.871  0.00  0.00    +0.188 HD
ENDBRANCH  34  38
ENDBRANCH  25  26
ENDBRANCH   1  25
TORSDOF 5
ENDMDL
