MODEL 1
REMARK VINA RESULT:     -12.4      0.000      0.000
REMARK  Name = 46937134
REMARK  9 active torsions:
REMARK  status: ('A' for Active; 'I' for Inactive)
REMARK    1  A    between atoms: N_2  and  C_15
REMARK    2  A    between atoms: N_6  and  C_29
REMARK    3  A    between atoms: C_16  and  O_19
REMARK    4  A    between atoms: C_18  and  C_21
REMARK    5  A    between atoms: C_21  and  O_22
REMARK    6  A    between atoms: O_22  and  P_23
REMARK    7  A    between atoms: P_23  and  O_25
REMARK    8  A    between atoms: P_23  and  O_27
REMARK    9  A    between atoms: C_29  and  C_30
REMARK                            x       y       z     vdW  Elec       q    Type
REMARK                         _______ _______ _______ _____ _____    ______ ____
ROOT
ATOM      1  O   UNL     1      38.174 -22.923 -14.703  0.00  0.00    -0.208 OA
ATOM      2  N   UNL     1      34.039 -23.986 -13.222  0.00  0.00    -0.209 NA
ATOM      3  N   UNL     1      34.178 -22.953 -15.419  0.00  0.00    -0.279 N 
ATOM      4  N   UNL     1      36.235 -24.001 -12.761  0.00  0.00    -0.241 NA
ATOM      5  N   UNL     1      36.412 -22.423 -16.122  0.00  0.00    -0.301 NA
ATOM      6  N   UNL     1      34.547 -21.975 -17.455  0.00  0.00    -0.292 N 
ATOM      7  C   UNL     1      34.679 -23.437 -14.279  0.00  0.00    +0.191 C 
ATOM      8  C   UNL     1      35.028 -24.314 -12.322  0.00  0.00    +0.205 C 
ATOM      9  C   UNL     1      36.012 -23.450 -13.992  0.00  0.00    +0.183 C 
ATOM     10  C   UNL     1      35.107 -22.448 -16.326  0.00  0.00    +0.248 C 
ATOM     11  C   UNL     1      36.972 -22.922 -14.940  0.00  0.00    +0.224 C 
ATOM     12  H   UNL     1      33.211 -22.954 -15.607  0.00  0.00    +0.152 HD
ATOM     13  H   UNL     1      33.568 -22.020 -17.548  0.00  0.00    +0.151 HD
ENDROOT
BRANCH   2  15
ATOM     14  O   UNL     1      31.899 -24.506 -14.286  0.00  0.00    -0.338 OA
ATOM     15  C   UNL     1      32.557 -24.204 -13.041  0.00  0.00    +0.182 C 
ATOM     16  C   UNL     1      30.429 -23.188 -12.960  0.00  0.00    +0.144 C 
ATOM     17  C   UNL     1      31.841 -22.989 -12.460  0.00  0.00    +0.079 C 
ATOM     18  C   UNL     1      30.637 -23.811 -14.335  0.00  0.00    +0.174 C 
BRANCH  16  19
ATOM     19  O   UNL     1      29.774 -24.123 -12.106  0.00  0.00    -0.382 OA
ATOM     20  H   UNL     1      28.879 -24.295 -12.441  0.00  0.00    +0.210 HD
ENDBRANCH  16  19
BRANCH  18  21
ATOM     21  C   UNL     1      30.717 -22.771 -15.445  0.00  0.00    +0.186 C 
BRANCH  21  22
ATOM     22  O   UNL     1      29.717 -23.057 -16.407  0.00  0.00    -0.271 OA
BRANCH  22  23
ATOM     23  P   UNL     1      28.165 -22.845 -15.996  0.00  0.00    +0.473 P 
ATOM     24  O   UNL     1      27.873 -21.564 -15.270  0.00  0.00    -0.227 OA
BRANCH  23  25
ATOM     25  O   UNL     1      27.390 -23.024 -17.404  0.00  0.00    -0.303 OA
ATOM     26  H   UNL     1      27.220 -22.152 -17.793  0.00  0.00    +0.222 HD
ENDBRANCH  23  25
BRANCH  23  27
ATOM     27  O   UNL     1      27.794 -24.197 -15.191  0.00  0.00    -0.303 OA
ATOM     28  H   UNL     1      27.788 -24.015 -14.238  0.00  0.00    +0.222 HD
ENDBRANCH  23  27
ENDBRANCH  22  23
ENDBRANCH  21  22
ENDBRANCH  18  21
ENDBRANCH   2  15
BRANCH   6  29
ATOM     29  C   UNL     1      35.318 -21.403 -18.535  0.00  0.00    +0.117 C 
BRANCH  29  30
ATOM     30  C   UNL     1      34.425 -20.698 -19.509  0.00  0.00    -0.003 C 
ATOM     31  C   UNL     1      34.915 -19.741 -20.412  0.00  0.00    -0.002 C 
ATOM     32  C   UNL     1      34.019 -19.110 -21.307  0.00  0.00    -0.000 C 
ATOM     33  C   UNL     1      33.070 -21.030 -19.491  0.00  0.00    -0.003 C 
ATOM     34  C   UNL     1      36.276 -19.394 -20.445  0.00  0.00    -0.000 C 
ATOM     35  C   UNL     1      32.658 -19.455 -21.273  0.00  0.00    -0.000 C 
ATOM     36  C   UNL     1      32.189 -20.410 -20.371  0.00  0.00    -0.000 C 
ATOM     37  C   UNL     1      34.509 -18.151 -22.209  0.00  0.00    -0.000 C 
ATOM     38  C   UNL     1      36.746 -18.440 -21.347  0.00  0.00    -0.000 C 
ATOM     39  C   UNL     1      35.864 -17.821 -22.228  0.00  0.00    -0.000 C 
ENDBRANCH  29  30
ENDBRANCH   6  29
TORSDOF 9
ENDMDL
MODEL 2
REMARK VINA RESULT:     -12.1      3.500      6.356
REMARK  Name = 46937134
REMARK  9 active torsions:
REMARK  status: ('A' for Active; 'I' for Inactive)
REMARK    1  A    between atoms: N_2  and  C_15
REMARK    2  A    between atoms: N_6  and  C_29
REMARK    3  A    between atoms: C_16  and  O_19
REMARK    4  A    between atoms: C_18  and  C_21
REMARK    5  A    between atoms: C_21  and  O_22
REMARK    6  A    between atoms: O_22  and  P_23
REMARK    7  A    between atoms: P_23  and  O_25
REMARK    8  A    between atoms: P_23  and  O_27
REMARK    9  A    between atoms: C_29  and  C_30
REMARK                            x       y       z     vdW  Elec       q    Type
REMARK                         _______ _______ _______ _____ _____    ______ ____
ROOT
ATOM      1  O   UNL     1      31.208 -20.227 -20.587  0.00  0.00    -0.208 OA
ATOM      2  N   UNL     1      34.354 -21.944 -17.834  0.00  0.00    -0.209 NA
ATOM      3  N   UNL     1      35.134 -20.433 -19.574  0.00  0.00    -0.279 N 
ATOM      4  N   UNL     1      32.169 -21.876 -18.340  0.00  0.00    -0.241 NA
ATOM      5  N   UNL     1      33.395 -19.572 -20.988  0.00  0.00    -0.301 NA
ATOM      6  N   UNL     1      35.638 -18.993 -21.279  0.00  0.00    -0.292 N 
ATOM      7  C   UNL     1      34.209 -21.118 -18.895  0.00  0.00    +0.191 C 
ATOM      8  C   UNL     1      33.084 -22.382 -17.532  0.00  0.00    +0.205 C 
ATOM      9  C   UNL     1      32.879 -21.081 -19.196  0.00  0.00    +0.183 C 
ATOM     10  C   UNL     1      34.663 -19.660 -20.632  0.00  0.00    +0.248 C 
ATOM     11  C   UNL     1      32.398 -20.275 -20.300  0.00  0.00    +0.224 C 
ATOM     12  H   UNL     1      36.090 -20.473 -19.339  0.00  0.00    +0.152 HD
ATOM     13  H   UNL     1      36.566 -19.099 -20.968  0.00  0.00    +0.151 HD
ENDROOT
BRANCH   2  15
ATOM     14  O   UNL     1      35.404 -23.346 -16.127  0.00  0.00    -0.338 OA
ATOM     15  C   UNL     1      35.625 -22.323 -17.116  0.00  0.00    +0.182 C 
ATOM     16  C   UNL     1      37.060 -21.851 -15.303  0.00  0.00    +0.144 C 
ATOM     17  C   UNL     1      36.271 -21.150 -16.384  0.00  0.00    +0.079 C 
ATOM     18  C   UNL     1      36.174 -23.039 -14.947  0.00  0.00    +0.174 C 
BRANCH  16  19
ATOM     19  O   UNL     1      38.283 -22.319 -15.866  0.00  0.00    -0.382 OA
ATOM     20  H   UNL     1      38.588 -23.099 -15.375  0.00  0.00    +0.210 HD
ENDBRANCH  16  19
BRANCH  18  21
ATOM     21  C   UNL     1      35.199 -22.729 -13.819  0.00  0.00    +0.186 C 
BRANCH  21  22
ATOM     22  O   UNL     1      35.861 -22.927 -12.581  0.00  0.00    -0.271 OA
BRANCH  22  23
ATOM     23  P   UNL     1      35.372 -24.141 -11.629  0.00  0.00    +0.473 P 
ATOM     24  O   UNL     1      35.641 -23.946 -10.165  0.00  0.00    -0.227 OA
BRANCH  23  25
ATOM     25  O   UNL     1      33.812 -24.302 -12.021  0.00  0.00    -0.303 OA
ATOM     26  H   UNL     1      33.551 -23.579 -12.613  0.00  0.00    +0.222 HD
ENDBRANCH  23  25
BRANCH  23  27
ATOM     27  O   UNL     1      36.060 -25.447 -12.290  0.00  0.00    -0.303 OA
ATOM     28  H   UNL     1      36.521 -25.953 -11.603  0.00  0.00    +0.222 HD
ENDBRANCH  23  27
ENDBRANCH  22  23
ENDBRANCH  21  22
ENDBRANCH  18  21
ENDBRANCH   2  15
BRANCH   6  29
ATOM     29  C   UNL     1      35.384 -18.129 -22.409  0.00  0.00    +0.117 C 
BRANCH  29  30
ATOM     30  C   UNL     1      34.766 -16.840 -21.963  0.00  0.00    -0.003 C 
ATOM     31  C   UNL     1      34.220 -15.921 -22.874  0.00  0.00    -0.002 C 
ATOM     32  C   UNL     1      33.651 -14.719 -22.389  0.00  0.00    -0.000 C 
ATOM     33  C   UNL     1      34.751 -16.577 -20.593  0.00  0.00    -0.003 C 
ATOM     34  C   UNL     1      34.226 -16.168 -24.256  0.00  0.00    -0.000 C 
ATOM     35  C   UNL     1      33.646 -14.471 -21.007  0.00  0.00    -0.000 C 
ATOM     36  C   UNL     1      34.192 -15.396 -20.116  0.00  0.00    -0.000 C 
ATOM     37  C   UNL     1      33.106 -13.800 -23.300  0.00  0.00    -0.000 C 
ATOM     38  C   UNL     1      33.680 -15.244 -25.148  0.00  0.00    -0.000 C 
ATOM     39  C   UNL     1      33.120 -14.063 -24.670  0.00  0.00    -0.000 C 
ENDBRANCH  29  30
ENDBRANCH   6  29
TORSDOF 9
ENDMDL
MODEL 3
REMARK VINA RESULT:     -11.4      2.934      6.256
REMARK  Name = 46937134
REMARK  9 active torsions:
REMARK  status: ('A' for Active; 'I' for Inactive)
REMARK    1  A    between atoms: N_2  and  C_15
REMARK    2  A    between atoms: N_6  and  C_29
REMARK    3  A    between atoms: C_16  and  O_19
REMARK    4  A    between atoms: C_18  and  C_21
REMARK    5  A    between atoms: C_21  and  O_22
REMARK    6  A    between atoms: O_22  and  P_23
REMARK    7  A    between atoms: P_23  and  O_25
REMARK    8  A    between atoms: P_23  and  O_27
REMARK    9  A    between atoms: C_29  and  C_30
REMARK                            x       y       z     vdW  Elec       q    Type
REMARK                         _______ _______ _______ _____ _____    ______ ____
ROOT
ATOM      1  O   UNL     1      30.552 -22.786 -17.206  0.00  0.00    -0.208 OA
ATOM      2  N   UNL     1      34.183 -22.918 -14.518  0.00  0.00    -0.209 NA
ATOM      3  N   UNL     1      34.522 -22.059 -16.768  0.00  0.00    -0.279 N 
ATOM      4  N   UNL     1      31.987 -23.344 -14.692  0.00  0.00    -0.241 NA
ATOM      5  N   UNL     1      32.540 -22.028 -18.124  0.00  0.00    -0.301 NA
ATOM      6  N   UNL     1      34.607 -21.291 -18.922  0.00  0.00    -0.292 N 
ATOM      7  C   UNL     1      33.799 -22.568 -15.767  0.00  0.00    +0.191 C 
ATOM      8  C   UNL     1      33.045 -23.386 -13.900  0.00  0.00    +0.205 C 
ATOM      9  C   UNL     1      32.463 -22.830 -15.864  0.00  0.00    +0.183 C 
ATOM     10  C   UNL     1      33.829 -21.802 -17.949  0.00  0.00    +0.248 C 
ATOM     11  C   UNL     1      31.750 -22.560 -17.097  0.00  0.00    +0.224 C 
ATOM     12  H   UNL     1      35.486 -21.878 -16.677  0.00  0.00    +0.152 HD
ATOM     13  H   UNL     1      35.562 -21.146 -18.733  0.00  0.00    +0.151 HD
ENDROOT
BRANCH   2  15
ATOM     14  O   UNL     1      36.571 -23.380 -14.769  0.00  0.00    -0.338 OA
ATOM     15  C   UNL     1      35.559 -22.827 -13.907  0.00  0.00    +0.182 C 
ATOM     16  C   UNL     1      37.153 -23.874 -12.517  0.00  0.00    +0.144 C 
ATOM     17  C   UNL     1      35.674 -23.568 -12.579  0.00  0.00    +0.079 C 
ATOM     18  C   UNL     1      37.511 -24.132 -13.975  0.00  0.00    +0.174 C 
BRANCH  16  19
ATOM     19  O   UNL     1      37.836 -22.711 -12.055  0.00  0.00    -0.382 OA
ATOM     20  H   UNL     1      38.561 -22.974 -11.466  0.00  0.00    +0.210 HD
ENDBRANCH  16  19
BRANCH  18  21
ATOM     21  C   UNL     1      37.382 -25.599 -14.361  0.00  0.00    +0.186 C 
BRANCH  21  22
ATOM     22  O   UNL     1      38.570 -26.273 -13.982  0.00  0.00    -0.271 OA
BRANCH  22  23
ATOM     23  P   UNL     1      39.993 -25.571 -14.302  0.00  0.00    +0.473 P 
ATOM     24  O   UNL     1      40.191 -24.225 -13.669  0.00  0.00    -0.227 OA
BRANCH  23  25
ATOM     25  O   UNL     1      41.062 -26.699 -13.855  0.00  0.00    -0.303 OA
ATOM     26  H   UNL     1      41.588 -26.369 -13.110  0.00  0.00    +0.222 HD
ENDBRANCH  23  25
BRANCH  23  27
ATOM     27  O   UNL     1      40.078 -25.596 -15.917  0.00  0.00    -0.303 OA
ATOM     28  H   UNL     1      39.993 -24.693 -16.259  0.00  0.00    +0.222 HD
ENDBRANCH  23  27
ENDBRANCH  22  23
ENDBRANCH  21  22
ENDBRANCH  18  21
ENDBRANCH   2  15
BRANCH   6  29
ATOM     29  C   UNL     1      34.103 -20.947 -20.232  0.00  0.00    +0.117 C 
BRANCH  29  30
ATOM     30  C   UNL     1      34.868 -19.796 -20.809  0.00  0.00    -0.003 C 
ATOM     31  C   UNL     1      34.427 -19.106 -21.950  0.00  0.00    -0.002 C 
ATOM     32  C   UNL     1      35.196 -18.027 -22.447  0.00  0.00    -0.000 C 
ATOM     33  C   UNL     1      36.049 -19.426 -20.167  0.00  0.00    -0.003 C 
ATOM     34  C   UNL     1      33.241 -19.464 -22.610  0.00  0.00    -0.000 C 
ATOM     35  C   UNL     1      36.383 -17.670 -21.788  0.00  0.00    -0.000 C 
ATOM     36  C   UNL     1      36.806 -18.365 -20.655  0.00  0.00    -0.000 C 
ATOM     37  C   UNL     1      34.756 -17.338 -23.589  0.00  0.00    -0.000 C 
ATOM     38  C   UNL     1      32.818 -18.769 -23.743  0.00  0.00    -0.000 C 
ATOM     39  C   UNL     1      33.574 -17.707 -24.231  0.00  0.00    -0.000 C 
ENDBRANCH  29  30
ENDBRANCH   6  29
TORSDOF 9
ENDMDL
MODEL 4
REMARK VINA RESULT:     -11.3      2.762      5.648
REMARK  Name = 46937134
REMARK  9 active torsions:
REMARK  status: ('A' for Active; 'I' for Inactive)
REMARK    1  A    between atoms: N_2  and  C_15
REMARK    2  A    between atoms: N_6  and  C_29
REMARK    3  A    between atoms: C_16  and  O_19
REMARK    4  A    between atoms: C_18  and  C_21
REMARK    5  A    between atoms: C_21  and  O_22
REMARK    6  A    between atoms: O_22  and  P_23
REMARK    7  A    between atoms: P_23  and  O_25
REMARK    8  A    between atoms: P_23  and  O_27
REMARK    9  A    between atoms: C_29  and  C_30
REMARK                            x       y       z     vdW  Elec       q    Type
REMARK                         _______ _______ _______ _____ _____    ______ ____
ROOT
ATOM      1  O   UNL     1      30.419 -22.022 -16.992  0.00  0.00    -0.208 OA
ATOM      2  N   UNL     1      34.367 -23.625 -15.486  0.00  0.00    -0.209 NA
ATOM      3  N   UNL     1      34.406 -22.455 -17.618  0.00  0.00    -0.279 N 
ATOM      4  N   UNL     1      32.170 -23.422 -15.078  0.00  0.00    -0.241 NA
ATOM      5  N   UNL     1      32.266 -21.641 -18.339  0.00  0.00    -0.301 NA
ATOM      6  N   UNL     1      34.207 -21.324 -19.598  0.00  0.00    -0.292 N 
ATOM      7  C   UNL     1      33.822 -22.947 -16.522  0.00  0.00    +0.191 C 
ATOM      8  C   UNL     1      33.321 -23.893 -14.632  0.00  0.00    +0.205 C 
ATOM      9  C   UNL     1      32.488 -22.827 -16.266  0.00  0.00    +0.183 C 
ATOM     10  C   UNL     1      33.565 -21.798 -18.513  0.00  0.00    +0.248 C 
ATOM     11  C   UNL     1      31.619 -22.142 -17.202  0.00  0.00    +0.224 C 
ATOM     12  H   UNL     1      35.372 -22.553 -17.784  0.00  0.00    +0.152 HD
ATOM     13  H   UNL     1      35.177 -21.473 -19.672  0.00  0.00    +0.151 HD
ENDROOT
BRANCH   2  15
ATOM     14  O   UNL     1      35.936 -25.307 -14.656  0.00  0.00    -0.338 OA
ATOM     15  C   UNL     1      35.809 -24.018 -15.286  0.00  0.00    +0.182 C 
ATOM     16  C   UNL     1      37.684 -23.907 -13.857  0.00  0.00    +0.144 C 
ATOM     17  C   UNL     1      36.581 -23.035 -14.411  0.00  0.00    +0.079 C 
ATOM     18  C   UNL     1      37.000 -25.257 -13.684  0.00  0.00    +0.174 C 
BRANCH  16  19
ATOM     19  O   UNL     1      38.712 -24.014 -14.839  0.00  0.00    -0.382 OA
ATOM     20  H   UNL     1      38.311 -24.155 -15.712  0.00  0.00    +0.210 HD
ENDBRANCH  16  19
BRANCH  18  21
ATOM     21  C   UNL     1      36.382 -25.431 -12.303  0.00  0.00    +0.186 C 
BRANCH  21  22
ATOM     22  O   UNL     1      36.941 -24.463 -11.432  0.00  0.00    -0.271 OA
BRANCH  22  23
ATOM     23  P   UNL     1      35.940 -23.471 -10.635  0.00  0.00    +0.473 P 
ATOM     24  O   UNL     1      35.814 -23.745  -9.165  0.00  0.00    -0.227 OA
BRANCH  23  25
ATOM     25  O   UNL     1      36.511 -22.005 -11.010  0.00  0.00    -0.303 OA
ATOM     26  H   UNL     1      36.822 -21.564 -10.204  0.00  0.00    +0.222 HD
ENDBRANCH  23  25
BRANCH  23  27
ATOM     27  O   UNL     1      34.562 -23.560 -11.477  0.00  0.00    -0.303 OA
ATOM     28  H   UNL     1      34.633 -23.010 -12.272  0.00  0.00    +0.222 HD
ENDBRANCH  23  27
ENDBRANCH  22  23
ENDBRANCH  21  22
ENDBRANCH  18  21
ENDBRANCH   2  15
BRANCH   6  29
ATOM     29  C   UNL     1      33.536 -20.608 -20.658  0.00  0.00    +0.117 C 
BRANCH  29  30
ATOM     30  C   UNL     1      34.396 -19.497 -21.175  0.00  0.00    -0.003 C 
ATOM     31  C   UNL     1      34.081 -18.796 -22.351  0.00  0.00    -0.002 C 
ATOM     32  C   UNL     1      34.936 -17.756 -22.788  0.00  0.00    -0.000 C 
ATOM     33  C   UNL     1      35.536 -19.174 -20.439  0.00  0.00    -0.003 C 
ATOM     34  C   UNL     1      32.938 -19.107 -23.105  0.00  0.00    -0.000 C 
ATOM     35  C   UNL     1      36.080 -17.447 -22.035  0.00  0.00    -0.000 C 
ATOM     36  C   UNL     1      36.376 -18.152 -20.868  0.00  0.00    -0.000 C 
ATOM     37  C   UNL     1      34.622 -17.056 -23.964  0.00  0.00    -0.000 C 
ATOM     38  C   UNL     1      32.640 -18.402 -24.271  0.00  0.00    -0.000 C 
ATOM     39  C   UNL     1      33.481 -17.378 -24.699  0.00  0.00    -0.000 C 
ENDBRANCH  29  30
ENDBRANCH   6  29
TORSDOF 9
ENDMDL
MODEL 5
REMARK VINA RESULT:     -10.8      2.410      5.290
REMARK  Name = 46937134
REMARK  9 active torsions:
REMARK  status: ('A' for Active; 'I' for Inactive)
REMARK    1  A    between atoms: N_2  and  C_15
REMARK    2  A    between atoms: N_6  and  C_29
REMARK    3  A    between atoms: C_16  and  O_19
REMARK    4  A    between atoms: C_18  and  C_21
REMARK    5  A    between atoms: C_21  and  O_22
REMARK    6  A    between atoms: O_22  and  P_23
REMARK    7  A    between atoms: P_23  and  O_25
REMARK    8  A    between atoms: P_23  and  O_27
REMARK    9  A    between atoms: C_29  and  C_30
REMARK                            x       y       z     vdW  Elec       q    Type
REMARK                         _______ _______ _______ _____ _____    ______ ____
ROOT
ATOM      1  O   UNL     1      29.044 -22.111 -16.695  0.00  0.00    -0.208 OA
ATOM      2  N   UNL     1      32.166 -23.917 -13.970  0.00  0.00    -0.209 NA
ATOM      3  N   UNL     1      32.958 -22.993 -16.076  0.00  0.00    -0.279 N 
ATOM      4  N   UNL     1      29.986 -23.459 -14.248  0.00  0.00    -0.241 NA
ATOM      5  N   UNL     1      31.232 -22.058 -17.458  0.00  0.00    -0.301 NA
ATOM      6  N   UNL     1      33.475 -22.068 -18.104  0.00  0.00    -0.292 N 
ATOM      7  C   UNL     1      32.029 -23.305 -15.168  0.00  0.00    +0.191 C 
ATOM      8  C   UNL     1      30.895 -23.989 -13.447  0.00  0.00    +0.205 C 
ATOM      9  C   UNL     1      30.702 -23.029 -15.330  0.00  0.00    +0.183 C 
ATOM     10  C   UNL     1      32.497 -22.358 -17.226  0.00  0.00    +0.248 C 
ATOM     11  C   UNL     1      30.230 -22.368 -16.530  0.00  0.00    +0.224 C 
ATOM     12  H   UNL     1      33.912 -23.200 -15.940  0.00  0.00    +0.152 HD
ATOM     13  H   UNL     1      34.400 -22.317 -17.876  0.00  0.00    +0.151 HD
ENDROOT
BRANCH   2  15
ATOM     14  O   UNL     1      34.040 -23.430 -12.477  0.00  0.00    -0.338 OA
ATOM     15  C   UNL     1      33.430 -24.423 -13.323  0.00  0.00    +0.182 C 
ATOM     16  C   UNL     1      35.767 -24.678 -13.534  0.00  0.00    +0.144 C 
ATOM     17  C   UNL     1      34.494 -24.840 -14.333  0.00  0.00    +0.079 C 
ATOM     18  C   UNL     1      35.470 -23.467 -12.658  0.00  0.00    +0.174 C 
BRANCH  16  19
ATOM     19  O   UNL     1      35.934 -25.832 -12.713  0.00  0.00    -0.382 OA
ATOM     20  H   UNL     1      35.189 -25.899 -12.095  0.00  0.00    +0.210 HD
ENDBRANCH  16  19
BRANCH  18  21
ATOM     21  C   UNL     1      35.895 -22.156 -13.306  0.00  0.00    +0.186 C 
BRANCH  21  22
ATOM     22  O   UNL     1      37.122 -22.362 -13.985  0.00  0.00    -0.271 OA
BRANCH  22  23
ATOM     23  P   UNL     1      37.146 -22.214 -15.598  0.00  0.00    +0.473 P 
ATOM     24  O   UNL     1      35.890 -22.654 -16.292  0.00  0.00    -0.227 OA
BRANCH  23  25
ATOM     25  O   UNL     1      37.537 -20.660 -15.812  0.00  0.00    -0.303 OA
ATOM     26  H   UNL     1      37.113 -20.122 -15.125  0.00  0.00    +0.222 HD
ENDBRANCH  23  25
BRANCH  23  27
ATOM     27  O   UNL     1      38.490 -23.001 -16.034  0.00  0.00    -0.303 OA
ATOM     28  H   UNL     1      39.249 -22.631 -15.558  0.00  0.00    +0.222 HD
ENDBRANCH  23  27
ENDBRANCH  22  23
ENDBRANCH  21  22
ENDBRANCH  18  21
ENDBRANCH   2  15
BRANCH   6  29
ATOM     29  C   UNL     1      33.230 -21.409 -19.366  0.00  0.00    +0.117 C 
BRANCH  29  30
ATOM     30  C   UNL     1      34.391 -20.543 -19.747  0.00  0.00    -0.003 C 
ATOM     31  C   UNL     1      34.354 -19.700 -20.870  0.00  0.00    -0.002 C 
ATOM     32  C   UNL     1      35.485 -18.906 -21.178  0.00  0.00    -0.000 C 
ATOM     33  C   UNL     1      35.525 -20.601 -18.938  0.00  0.00    -0.003 C 
ATOM     34  C   UNL     1      33.221 -19.628 -21.696  0.00  0.00    -0.000 C 
ATOM     35  C   UNL     1      36.619 -18.979 -20.353  0.00  0.00    -0.000 C 
ATOM     36  C   UNL     1      36.637 -19.821 -19.240  0.00  0.00    -0.000 C 
ATOM     37  C   UNL     1      35.450 -18.064 -22.301  0.00  0.00    -0.000 C 
ATOM     38  C   UNL     1      33.202 -18.786 -22.808  0.00  0.00    -0.000 C 
ATOM     39  C   UNL     1      34.314 -18.005 -23.109  0.00  0.00    -0.000 C 
ENDBRANCH  29  30
ENDBRANCH   6  29
TORSDOF 9
ENDMDL
MODEL 6
REMARK VINA RESULT:     -10.5     13.518     17.049
REMARK  Name = 46937134
REMARK  9 active torsions:
REMARK  status: ('A' for Active; 'I' for Inactive)
REMARK    1  A    between atoms: N_2  and  C_15
REMARK    2  A    between atoms: N_6  and  C_29
REMARK    3  A    between atoms: C_16  and  O_19
REMARK    4  A    between atoms: C_18  and  C_21
REMARK    5  A    between atoms: C_21  and  O_22
REMARK    6  A    between atoms: O_22  and  P_23
REMARK    7  A    between atoms: P_23  and  O_25
REMARK    8  A    between atoms: P_23  and  O_27
REMARK    9  A    between atoms: C_29  and  C_30
REMARK                            x       y       z     vdW  Elec       q    Type
REMARK                         _______ _______ _______ _____ _____    ______ ____
ROOT
ATOM      1  O   UNL     1      31.132  -8.153 -19.404  0.00  0.00    -0.208 OA
ATOM      2  N   UNL     1      32.698  -6.060 -23.091  0.00  0.00    -0.209 NA
ATOM      3  N   UNL     1      32.602  -8.489 -23.173  0.00  0.00    -0.279 N 
ATOM      4  N   UNL     1      31.892  -5.802 -21.013  0.00  0.00    -0.241 NA
ATOM      5  N   UNL     1      31.760  -9.514 -21.172  0.00  0.00    -0.301 NA
ATOM      6  N   UNL     1      32.425 -10.766 -23.027  0.00  0.00    -0.292 N 
ATOM      7  C   UNL     1      32.439  -7.293 -22.600  0.00  0.00    +0.191 C 
ATOM      8  C   UNL     1      32.348  -5.184 -22.089  0.00  0.00    +0.205 C 
ATOM      9  C   UNL     1      31.949  -7.129 -21.338  0.00  0.00    +0.183 C 
ATOM     10  C   UNL     1      32.240  -9.589 -22.400  0.00  0.00    +0.248 C 
ATOM     11  C   UNL     1      31.575  -8.278 -20.539  0.00  0.00    +0.224 C 
ATOM     12  H   UNL     1      32.958  -8.586 -24.087  0.00  0.00    +0.152 HD
ATOM     13  H   UNL     1      32.787 -10.758 -23.942  0.00  0.00    +0.151 HD
ENDROOT
BRANCH   2  15
ATOM     14  O   UNL     1      33.669  -4.317 -24.506  0.00  0.00    -0.338 OA
ATOM     15  C   UNL     1      33.252  -5.695 -24.445  0.00  0.00    +0.182 C 
ATOM     16  C   UNL     1      32.751  -4.916 -26.616  0.00  0.00    +0.144 C 
ATOM     17  C   UNL     1      32.246  -5.888 -25.576  0.00  0.00    +0.079 C 
ATOM     18  C   UNL     1      33.279  -3.759 -25.777  0.00  0.00    +0.174 C 
BRANCH  16  19
ATOM     19  O   UNL     1      33.830  -5.527 -27.320  0.00  0.00    -0.382 OA
ATOM     20  H   UNL     1      34.442  -4.841 -27.633  0.00  0.00    +0.210 HD
ENDBRANCH  16  19
BRANCH  18  21
ATOM     21  C   UNL     1      32.225  -2.692 -25.517  0.00  0.00    +0.186 C 
BRANCH  21  22
ATOM     22  O   UNL     1      31.997  -2.610 -24.120  0.00  0.00    -0.271 OA
BRANCH  22  23
ATOM     23  P   UNL     1      30.469  -2.593 -23.586  0.00  0.00    +0.473 P 
ATOM     24  O   UNL     1      29.516  -1.786 -24.418  0.00  0.00    -0.227 OA
BRANCH  23  25
ATOM     25  O   UNL     1      30.109  -4.165 -23.469  0.00  0.00    -0.303 OA
ATOM     26  H   UNL     1      29.552  -4.426 -24.220  0.00  0.00    +0.222 HD
ENDBRANCH  23  25
BRANCH  23  27
ATOM     27  O   UNL     1      30.607  -2.127 -22.044  0.00  0.00    -0.303 OA
ATOM     28  H   UNL     1      30.928  -2.870 -21.509  0.00  0.00    +0.222 HD
ENDBRANCH  23  27
ENDBRANCH  22  23
ENDBRANCH  21  22
ENDBRANCH  18  21
ENDBRANCH   2  15
BRANCH   6  29
ATOM     29  C   UNL     1      32.118 -12.039 -22.417  0.00  0.00    +0.117 C 
BRANCH  29  30
ATOM     30  C   UNL     1      32.711 -13.164 -23.209  0.00  0.00    -0.003 C 
ATOM     31  C   UNL     1      33.368 -14.242 -22.595  0.00  0.00    -0.002 C 
ATOM     32  C   UNL     1      33.908 -15.274 -23.399  0.00  0.00    -0.000 C 
ATOM     33  C   UNL     1      32.585 -13.105 -24.597  0.00  0.00    -0.003 C 
ATOM     34  C   UNL     1      33.504 -14.318 -21.199  0.00  0.00    -0.000 C 
ATOM     35  C   UNL     1      33.774 -15.197 -24.795  0.00  0.00    -0.000 C 
ATOM     36  C   UNL     1      33.116 -14.119 -25.389  0.00  0.00    -0.000 C 
ATOM     37  C   UNL     1      34.567 -16.351 -22.785  0.00  0.00    -0.000 C 
ATOM     38  C   UNL     1      34.161 -15.396 -20.605  0.00  0.00    -0.000 C 
ATOM     39  C   UNL     1      34.691 -16.411 -21.397  0.00  0.00    -0.000 C 
ENDBRANCH  29  30
ENDBRANCH   6  29
TORSDOF 9
ENDMDL
MODEL 7
REMARK VINA RESULT:     -10.2     11.439     14.708
REMARK  Name = 46937134
REMARK  9 active torsions:
REMARK  status: ('A' for Active; 'I' for Inactive)
REMARK    1  A    between atoms: N_2  and  C_15
REMARK    2  A    between atoms: N_6  and  C_29
REMARK    3  A    between atoms: C_16  and  O_19
REMARK    4  A    between atoms: C_18  and  C_21
REMARK    5  A    between atoms: C_21  and  O_22
REMARK    6  A    between atoms: O_22  and  P_23
REMARK    7  A    between atoms: P_23  and  O_25
REMARK    8  A    between atoms: P_23  and  O_27
REMARK    9  A    between atoms: C_29  and  C_30
REMARK                            x       y       z     vdW  Elec       q    Type
REMARK                         _______ _______ _______ _____ _____    ______ ____
ROOT
ATOM      1  O   UNL     1      31.164  -9.592 -18.786  0.00  0.00    -0.208 OA
ATOM      2  N   UNL     1      32.115 -12.632 -21.993  0.00  0.00    -0.209 NA
ATOM      3  N   UNL     1      31.487 -10.407 -22.749  0.00  0.00    -0.279 N 
ATOM      4  N   UNL     1      31.955 -12.250 -19.787  0.00  0.00    -0.241 NA
ATOM      5  N   UNL     1      30.999  -8.861 -20.979  0.00  0.00    -0.301 NA
ATOM      6  N   UNL     1      30.874  -8.255 -23.230  0.00  0.00    -0.292 N 
ATOM      7  C   UNL     1      31.738 -11.343 -21.830  0.00  0.00    +0.191 C 
ATOM      8  C   UNL     1      32.234 -13.143 -20.720  0.00  0.00    +0.205 C 
ATOM      9  C   UNL     1      31.644 -11.118 -20.488  0.00  0.00    +0.183 C 
ATOM     10  C   UNL     1      31.114  -9.157 -22.260  0.00  0.00    +0.248 C 
ATOM     11  C   UNL     1      31.254  -9.816 -19.987  0.00  0.00    +0.224 C 
ATOM     12  H   UNL     1      31.562 -10.590 -23.715  0.00  0.00    +0.152 HD
ATOM     13  H   UNL     1      30.976  -8.536 -24.168  0.00  0.00    +0.151 HD
ENDROOT
BRANCH   2  15
ATOM     14  O   UNL     1      32.561 -14.784 -23.065  0.00  0.00    -0.338 OA
ATOM     15  C   UNL     1      32.358 -13.375 -23.282  0.00  0.00    +0.182 C 
ATOM     16  C   UNL     1      33.969 -14.090 -24.851  0.00  0.00    +0.144 C 
ATOM     17  C   UNL     1      33.586 -12.876 -24.038  0.00  0.00    +0.079 C 
ATOM     18  C   UNL     1      33.623 -15.248 -23.923  0.00  0.00    +0.174 C 
BRANCH  16  19
ATOM     19  O   UNL     1      33.138 -14.141 -26.008  0.00  0.00    -0.382 OA
ATOM     20  H   UNL     1      33.639 -14.517 -26.750  0.00  0.00    +0.210 HD
ENDBRANCH  16  19
BRANCH  18  21
ATOM     21  C   UNL     1      34.792 -15.663 -23.039  0.00  0.00    +0.186 C 
BRANCH  21  22
ATOM     22  O   UNL     1      34.922 -17.073 -23.092  0.00  0.00    -0.271 OA
BRANCH  22  23
ATOM     23  P   UNL     1      35.276 -17.868 -21.727  0.00  0.00    +0.473 P 
ATOM     24  O   UNL     1      34.564 -19.178 -21.554  0.00  0.00    -0.227 OA
BRANCH  23  25
ATOM     25  O   UNL     1      36.889 -17.969 -21.776  0.00  0.00    -0.303 OA
ATOM     26  H   UNL     1      37.215 -18.340 -20.941  0.00  0.00    +0.222 HD
ENDBRANCH  23  25
BRANCH  23  27
ATOM     27  O   UNL     1      35.007 -16.775 -20.566  0.00  0.00    -0.303 OA
ATOM     28  H   UNL     1      35.782 -16.722 -19.986  0.00  0.00    +0.222 HD
ENDBRANCH  23  27
ENDBRANCH  22  23
ENDBRANCH  21  22
ENDBRANCH  18  21
ENDBRANCH   2  15
BRANCH   6  29
ATOM     29  C   UNL     1      30.474  -6.894 -22.957  0.00  0.00    +0.117 C 
BRANCH  29  30
ATOM     30  C   UNL     1      31.016  -5.962 -23.996  0.00  0.00    -0.003 C 
ATOM     31  C   UNL     1      31.049  -4.571 -23.805  0.00  0.00    -0.002 C 
ATOM     32  C   UNL     1      31.574  -3.744 -24.826  0.00  0.00    -0.000 C 
ATOM     33  C   UNL     1      31.497  -6.529 -25.176  0.00  0.00    -0.003 C 
ATOM     34  C   UNL     1      30.570  -3.982 -22.623  0.00  0.00    -0.000 C 
ATOM     35  C   UNL     1      32.051  -4.332 -26.008  0.00  0.00    -0.000 C 
ATOM     36  C   UNL     1      32.013  -5.716 -26.180  0.00  0.00    -0.000 C 
ATOM     37  C   UNL     1      31.605  -2.352 -24.636  0.00  0.00    -0.000 C 
ATOM     38  C   UNL     1      30.608  -2.599 -22.450  0.00  0.00    -0.000 C 
ATOM     39  C   UNL     1      31.125  -1.786 -23.455  0.00  0.00    -0.000 C 
ENDBRANCH  29  30
ENDBRANCH   6  29
TORSDOF 9
ENDMDL
MODEL 8
REMARK VINA RESULT:     -10.2      3.595      6.100
REMARK  Name = 46937134
REMARK  9 active torsions:
REMARK  status: ('A' for Active; 'I' for Inactive)
REMARK    1  A    between atoms: N_2  and  C_15
REMARK    2  A    between atoms: N_6  and  C_29
REMARK    3  A    between atoms: C_16  and  O_19
REMARK    4  A    between atoms: C_18  and  C_21
REMARK    5  A    between atoms: C_21  and  O_22
REMARK    6  A    between atoms: O_22  and  P_23
REMARK    7  A    between atoms: P_23  and  O_25
REMARK    8  A    between atoms: P_23  and  O_27
REMARK    9  A    between atoms: C_29  and  C_30
REMARK                            x       y       z     vdW  Elec       q    Type
REMARK                         _______ _______ _______ _____ _____    ______ ____
ROOT
ATOM      1  O   UNL     1      31.874 -19.919 -20.435  0.00  0.00    -0.208 OA
ATOM      2  N   UNL     1      34.529 -22.260 -17.624  0.00  0.00    -0.209 NA
ATOM      3  N   UNL     1      35.608 -20.543 -18.968  0.00  0.00    -0.279 N 
ATOM      4  N   UNL     1      32.441 -21.967 -18.392  0.00  0.00    -0.241 NA
ATOM      5  N   UNL     1      34.122 -19.353 -20.431  0.00  0.00    -0.301 NA
ATOM      6  N   UNL     1      36.406 -18.883 -20.326  0.00  0.00    -0.292 N 
ATOM      7  C   UNL     1      34.569 -21.266 -18.541  0.00  0.00    +0.191 C 
ATOM      8  C   UNL     1      33.212 -22.656 -17.568  0.00  0.00    +0.205 C 
ATOM      9  C   UNL     1      33.296 -21.094 -19.002  0.00  0.00    +0.183 C 
ATOM     10  C   UNL     1      35.323 -19.580 -19.934  0.00  0.00    +0.248 C 
ATOM     11  C   UNL     1      33.009 -20.090 -20.007  0.00  0.00    +0.224 C 
ATOM     12  H   UNL     1      36.519 -20.683 -18.622  0.00  0.00    +0.152 HD
ATOM     13  H   UNL     1      37.276 -19.099 -19.920  0.00  0.00    +0.151 HD
ENDROOT
BRANCH   2  15
ATOM     14  O   UNL     1      35.214 -23.755 -15.814  0.00  0.00    -0.338 OA
ATOM     15  C   UNL     1      35.670 -22.832 -16.821  0.00  0.00    +0.182 C 
ATOM     16  C   UNL     1      37.071 -22.551 -14.943  0.00  0.00    +0.144 C 
ATOM     17  C   UNL     1      36.481 -21.766 -16.091  0.00  0.00    +0.079 C 
ATOM     18  C   UNL     1      35.965 -23.543 -14.602  0.00  0.00    +0.174 C 
BRANCH  16  19
ATOM     19  O   UNL     1      38.215 -23.257 -15.418  0.00  0.00    -0.382 OA
ATOM     20  H   UNL     1      37.981 -23.749 -16.221  0.00  0.00    +0.210 HD
ENDBRANCH  16  19
BRANCH  18  21
ATOM     21  C   UNL     1      35.007 -23.014 -13.543  0.00  0.00    +0.186 C 
BRANCH  21  22
ATOM     22  O   UNL     1      35.719 -22.850 -12.329  0.00  0.00    -0.271 OA
BRANCH  22  23
ATOM     23  P   UNL     1      35.821 -24.110 -11.317  0.00  0.00    +0.473 P 
ATOM     24  O   UNL     1      36.877 -25.117 -11.664  0.00  0.00    -0.227 OA
BRANCH  23  25
ATOM     25  O   UNL     1      36.001 -23.402  -9.875  0.00  0.00    -0.303 OA
ATOM     26  H   UNL     1      35.550 -23.930  -9.197  0.00  0.00    +0.222 HD
ENDBRANCH  23  25
BRANCH  23  27
ATOM     27  O   UNL     1      34.309 -24.683 -11.265  0.00  0.00    -0.303 OA
ATOM     28  H   UNL     1      33.972 -24.622 -10.358  0.00  0.00    +0.222 HD
ENDBRANCH  23  27
ENDBRANCH  22  23
ENDBRANCH  21  22
ENDBRANCH  18  21
ENDBRANCH   2  15
BRANCH   6  29
ATOM     29  C   UNL     1      36.349 -17.834 -21.318  0.00  0.00    +0.117 C 
BRANCH  29  30
ATOM     30  C   UNL     1      35.403 -18.197 -22.420  0.00  0.00    -0.003 C 
ATOM     31  C   UNL     1      34.637 -17.230 -23.092  0.00  0.00    -0.002 C 
ATOM     32  C   UNL     1      33.759 -17.637 -24.125  0.00  0.00    -0.000 C 
ATOM     33  C   UNL     1      35.306 -19.545 -22.764  0.00  0.00    -0.003 C 
ATOM     34  C   UNL     1      34.721 -15.868 -22.760  0.00  0.00    -0.000 C 
ATOM     35  C   UNL     1      33.674 -18.999 -24.456  0.00  0.00    -0.000 C 
ATOM     36  C   UNL     1      34.444 -19.946 -23.779  0.00  0.00    -0.000 C 
ATOM     37  C   UNL     1      32.992 -16.671 -24.796  0.00  0.00    -0.000 C 
ATOM     38  C   UNL     1      33.952 -14.921 -23.437  0.00  0.00    -0.000 C 
ATOM     39  C   UNL     1      33.090 -15.322 -24.453  0.00  0.00    -0.000 C 
ENDBRANCH  29  30
ENDBRANCH   6  29
TORSDOF 9
ENDMDL
MODEL 9
REMARK VINA RESULT:     -10.1      1.178      2.354
REMARK  Name = 46937134
REMARK  9 active torsions:
REMARK  status: ('A' for Active; 'I' for Inactive)
REMARK    1  A    between atoms: N_2  and  C_15
REMARK    2  A    between atoms: N_6  and  C_29
REMARK    3  A    between atoms: C_16  and  O_19
REMARK    4  A    between atoms: C_18  and  C_21
REMARK    5  A    between atoms: C_21  and  O_22
REMARK    6  A    between atoms: O_22  and  P_23
REMARK    7  A    between atoms: P_23  and  O_25
REMARK    8  A    between atoms: P_23  and  O_27
REMARK    9  A    between atoms: C_29  and  C_30
REMARK                            x       y       z     vdW  Elec       q    Type
REMARK                         _______ _______ _______ _____ _____    ______ ____
ROOT
ATOM      1  O   UNL     1      37.452 -22.222 -13.224  0.00  0.00    -0.208 OA
ATOM      2  N   UNL     1      33.355 -24.095 -13.594  0.00  0.00    -0.209 NA
ATOM      3  N   UNL     1      34.255 -23.036 -15.590  0.00  0.00    -0.279 N 
ATOM      4  N   UNL     1      35.088 -23.678 -12.231  0.00  0.00    -0.241 NA
ATOM      5  N   UNL     1      36.433 -22.068 -15.300  0.00  0.00    -0.301 NA
ATOM      6  N   UNL     1      35.295 -21.986 -17.337  0.00  0.00    -0.292 N 
ATOM      7  C   UNL     1      34.283 -23.421 -14.312  0.00  0.00    +0.191 C 
ATOM      8  C   UNL     1      33.890 -24.228 -12.333  0.00  0.00    +0.205 C 
ATOM      9  C   UNL     1      35.333 -23.172 -13.477  0.00  0.00    +0.183 C 
ATOM     10  C   UNL     1      35.379 -22.348 -16.044  0.00  0.00    +0.248 C 
ATOM     11  C   UNL     1      36.498 -22.456 -13.956  0.00  0.00    +0.224 C 
ATOM     12  H   UNL     1      33.487 -23.226 -16.177  0.00  0.00    +0.152 HD
ATOM     13  H   UNL     1      34.483 -22.222 -17.840  0.00  0.00    +0.151 HD
ENDROOT
BRANCH   2  15
ATOM     14  O   UNL     1      31.429 -23.756 -15.063  0.00  0.00    -0.338 OA
ATOM     15  C   UNL     1      32.011 -24.603 -14.054  0.00  0.00    +0.182 C 
ATOM     16  C   UNL     1      29.681 -24.582 -13.678  0.00  0.00    +0.144 C 
ATOM     17  C   UNL     1      30.988 -24.693 -12.926  0.00  0.00    +0.079 C 
ATOM     18  C   UNL     1      30.017 -23.616 -14.808  0.00  0.00    +0.174 C 
BRANCH  16  19
ATOM     19  O   UNL     1      29.362 -25.861 -14.221  0.00  0.00    -0.382 OA
ATOM     20  H   UNL     1      29.441 -26.535 -13.527  0.00  0.00    +0.210 HD
ENDBRANCH  16  19
BRANCH  18  21
ATOM     21  C   UNL     1      29.748 -22.163 -14.438  0.00  0.00    +0.186 C 
BRANCH  21  22
ATOM     22  O   UNL     1      28.378 -21.883 -14.669  0.00  0.00    -0.271 OA
BRANCH  22  23
ATOM     23  P   UNL     1      27.726 -22.326 -16.084  0.00  0.00    +0.473 P 
ATOM     24  O   UNL     1      27.123 -23.700 -16.100  0.00  0.00    -0.227 OA
BRANCH  23  25
ATOM     25  O   UNL     1      26.693 -21.123 -16.398  0.00  0.00    -0.303 OA
ATOM     26  H   UNL     1      26.113 -20.987 -15.632  0.00  0.00    +0.222 HD
ENDBRANCH  23  25
BRANCH  23  27
ATOM     27  O   UNL     1      28.919 -22.081 -17.148  0.00  0.00    -0.303 OA
ATOM     28  H   UNL     1      29.118 -21.133 -17.198  0.00  0.00    +0.222 HD
ENDBRANCH  23  27
ENDBRANCH  22  23
ENDBRANCH  21  22
ENDBRANCH  18  21
ENDBRANCH   2  15
BRANCH   6  29
ATOM     29  C   UNL     1      36.344 -21.263 -18.021  0.00  0.00    +0.117 C 
BRANCH  29  30
ATOM     30  C   UNL     1      35.779 -20.431 -19.130  0.00  0.00    -0.003 C 
ATOM     31  C   UNL     1      34.417 -20.469 -19.471  0.00  0.00    -0.002 C 
ATOM     32  C   UNL     1      33.946 -19.659 -20.531  0.00  0.00    -0.000 C 
ATOM     33  C   UNL     1      36.663 -19.605 -19.824  0.00  0.00    -0.003 C 
ATOM     34  C   UNL     1      33.513 -21.295 -18.784  0.00  0.00    -0.000 C 
ATOM     35  C   UNL     1      34.850 -18.834 -21.219  0.00  0.00    -0.000 C 
ATOM     36  C   UNL     1      36.200 -18.808 -20.866  0.00  0.00    -0.000 C 
ATOM     37  C   UNL     1      32.584 -19.698 -20.873  0.00  0.00    -0.000 C 
ATOM     38  C   UNL     1      32.163 -21.322 -19.136  0.00  0.00    -0.000 C 
ATOM     39  C   UNL     1      31.700 -20.524 -20.178  0.00  0.00    -0.000 C 
ENDBRANCH  29  30
ENDBRANCH   6  29
TORSDOF 9
ENDMDL
