MODEL 1
REMARK VINA RESULT:     -13.4      0.000      0.000
REMARK  Name = 10407120
REMARK  4 active torsions:
REMARK  status: ('A' for Active; 'I' for Inactive)
REMARK    1  A    between atoms: N_2  and  C_19
REMARK    2  A    between atoms: C_3  and  C_6
REMARK    3  A    between atoms: C_5  and  C_16
REMARK    4  A    between atoms: C_19  and  C_21
REMARK                            x       y       z     vdW  Elec       q    Type
REMARK                         _______ _______ _______ _____ _____    ______ ____
ROOT
ATOM      1  O   UNL     1      32.760 -16.355 -25.251  0.00  0.00    -0.270 OA
ATOM      2  N   UNL     1      33.494 -14.294 -24.465  0.00  0.00    -0.267 N 
ATOM      3  C   UNL     1      33.317 -15.679 -24.385  0.00  0.00    +0.250 C 
ATOM      4  C   UNL     1      32.998 -13.577 -25.632  0.00  0.00    +0.116 C 
ENDROOT
BRANCH   3   6
ATOM      5  C   UNL     1      34.205 -17.636 -23.168  0.00  0.00    +0.006 C 
ATOM      6  C   UNL     1      33.825 -16.336 -23.145  0.00  0.00    +0.058 C 
BRANCH   5  16
ATOM      7  O   UNL     1      35.951 -22.058 -17.107  0.00  0.00    -0.275 OA
ATOM      8  N   UNL     1      36.169 -20.473 -18.755  0.00  0.00    -0.270 N 
ATOM      9  N   UNL     1      36.477 -18.888 -20.484  0.00  0.00    -0.229 NA
ATOM     10  C   UNL     1      33.466 -20.925 -19.477  0.00  0.00    +0.039 C 
ATOM     11  C   UNL     1      34.348 -20.013 -20.272  0.00  0.00    +0.010 C 
ATOM     12  C   UNL     1      34.280 -22.032 -18.826  0.00  0.00    +0.090 C 
ATOM     13  C   UNL     1      35.662 -19.779 -19.871  0.00  0.00    +0.130 C 
ATOM     14  C   UNL     1      33.859 -19.296 -21.366  0.00  0.00    +0.000 C 
ATOM     15  C   UNL     1      35.518 -21.513 -18.122  0.00  0.00    +0.227 C 
ATOM     16  C   UNL     1      34.684 -18.391 -22.025  0.00  0.00    +0.019 C 
ATOM     17  C   UNL     1      35.971 -18.224 -21.547  0.00  0.00    +0.100 C 
ATOM     18  H   UNL     1      37.046 -20.198 -18.403  0.00  0.00    +0.156 HD
ENDBRANCH   5  16
ENDBRANCH   3   6
BRANCH   2  19
ATOM     19  C   UNL     1      34.121 -13.467 -23.436  0.00  0.00    +0.158 C 
BRANCH  19  21
ATOM     20  O   UNL     1      33.093 -11.302 -23.561  0.00  0.00    -0.456 OA
ATOM     21  C   UNL     1      33.168 -12.455 -22.870  0.00  0.00    +0.139 A 
ATOM     22  C   UNL     1      32.354 -12.473 -21.787  0.00  0.00    +0.013 A 
ATOM     23  C   UNL     1      31.699 -11.213 -21.785  0.00  0.00    +0.033 A 
ATOM     24  C   UNL     1      32.188 -10.531 -22.895  0.00  0.00    +0.145 A 
ATOM     25  C   UNL     1      32.179 -13.565 -20.810  0.00  0.00    +0.034 C 
ATOM     26  C   UNL     1      30.749 -10.576 -20.970  0.00  0.00    +0.003 C 
ATOM     27  C   UNL     1      31.794  -9.245 -23.257  0.00  0.00    +0.037 C 
ATOM     28  C   UNL     1      30.333  -9.281 -21.308  0.00  0.00    +0.000 C 
ATOM     29  C   UNL     1      30.849  -8.629 -22.432  0.00  0.00    +0.003 C 
ENDBRANCH  19  21
ENDBRANCH   2  19
TORSDOF 4
ENDMDL
MODEL 2
REMARK VINA RESULT:     -13.0      1.803      2.873
REMARK  Name = 10407120
REMARK  4 active torsions:
REMARK  status: ('A' for Active; 'I' for Inactive)
REMARK    1  A    between atoms: N_2  and  C_19
REMARK    2  A    between atoms: C_3  and  C_6
REMARK    3  A    between atoms: C_5  and  C_16
REMARK    4  A    between atoms: C_19  and  C_21
REMARK                            x       y       z     vdW  Elec       q    Type
REMARK                         _______ _______ _______ _____ _____    ______ ____
ROOT
ATOM      1  O   UNL     1      33.838 -18.618 -23.990  0.00  0.00    -0.270 OA
ATOM      2  N   UNL     1      34.268 -16.541 -23.039  0.00  0.00    -0.267 N 
ATOM      3  C   UNL     1      34.147 -17.934 -23.014  0.00  0.00    +0.250 C 
ATOM      4  C   UNL     1      34.017 -15.825 -24.283  0.00  0.00    +0.116 C 
ENDROOT
BRANCH   3   6
ATOM      5  C   UNL     1      33.756 -19.746 -21.381  0.00  0.00    +0.006 C 
ATOM      6  C   UNL     1      34.390 -18.591 -21.695  0.00  0.00    +0.058 C 
BRANCH   5  16
ATOM      7  O   UNL     1      35.306 -23.285 -14.718  0.00  0.00    -0.275 OA
ATOM      8  N   UNL     1      34.125 -22.544 -16.543  0.00  0.00    -0.270 N 
ATOM      9  N   UNL     1      32.842 -21.737 -18.359  0.00  0.00    -0.229 NA
ATOM     10  C   UNL     1      36.534 -21.505 -17.615  0.00  0.00    +0.039 C 
ATOM     11  C   UNL     1      35.213 -21.269 -18.281  0.00  0.00    +0.010 C 
ATOM     12  C   UNL     1      36.364 -21.647 -16.111  0.00  0.00    +0.090 C 
ATOM     13  C   UNL     1      34.049 -21.825 -17.752  0.00  0.00    +0.130 C 
ATOM     14  C   UNL     1      35.118 -20.582 -19.492  0.00  0.00    +0.000 C 
ATOM     15  C   UNL     1      35.243 -22.594 -15.734  0.00  0.00    +0.227 C 
ATOM     16  C   UNL     1      33.886 -20.460 -20.124  0.00  0.00    +0.019 C 
ATOM     17  C   UNL     1      32.790 -21.052 -19.523  0.00  0.00    +0.100 C 
ATOM     18  H   UNL     1      33.328 -23.044 -16.255  0.00  0.00    +0.156 HD
ENDBRANCH   5  16
ENDBRANCH   3   6
BRANCH   2  19
ATOM     19  C   UNL     1      34.600 -15.705 -21.887  0.00  0.00    +0.158 C 
BRANCH  19  21
ATOM     20  O   UNL     1      34.111 -13.588 -22.904  0.00  0.00    -0.456 OA
ATOM     21  C   UNL     1      33.827 -14.419 -21.885  0.00  0.00    +0.139 A 
ATOM     22  C   UNL     1      32.885 -13.921 -21.048  0.00  0.00    +0.013 A 
ATOM     23  C   UNL     1      32.535 -12.654 -21.583  0.00  0.00    +0.033 A 
ATOM     24  C   UNL     1      33.317 -12.496 -22.723  0.00  0.00    +0.145 A 
ATOM     25  C   UNL     1      32.333 -14.555 -19.834  0.00  0.00    +0.034 C 
ATOM     26  C   UNL     1      31.646 -11.624 -21.230  0.00  0.00    +0.003 C 
ATOM     27  C   UNL     1      33.277 -11.374 -23.549  0.00  0.00    +0.037 C 
ATOM     28  C   UNL     1      31.584 -10.483 -22.041  0.00  0.00    +0.000 C 
ATOM     29  C   UNL     1      32.386 -10.362 -23.178  0.00  0.00    +0.003 C 
ENDBRANCH  19  21
ENDBRANCH   2  19
TORSDOF 4
ENDMDL
MODEL 3
REMARK VINA RESULT:     -12.6      2.444      9.401
REMARK  Name = 10407120
REMARK  4 active torsions:
REMARK  status: ('A' for Active; 'I' for Inactive)
REMARK    1  A    between atoms: N_2  and  C_19
REMARK    2  A    between atoms: C_3  and  C_6
REMARK    3  A    between atoms: C_5  and  C_16
REMARK    4  A    between atoms: C_19  and  C_21
REMARK                            x       y       z     vdW  Elec       q    Type
REMARK                         _______ _______ _______ _____ _____    ______ ____
ROOT
ATOM      1  O   UNL     1      33.081 -15.530 -25.492  0.00  0.00    -0.270 OA
ATOM      2  N   UNL     1      34.034 -16.462 -23.587  0.00  0.00    -0.267 N 
ATOM      3  C   UNL     1      33.515 -15.408 -24.345  0.00  0.00    +0.250 C 
ATOM      4  C   UNL     1      34.079 -17.800 -24.161  0.00  0.00    +0.116 C 
ENDROOT
BRANCH   3   6
ATOM      5  C   UNL     1      32.383 -13.361 -23.555  0.00  0.00    +0.006 C 
ATOM      6  C   UNL     1      33.531 -14.063 -23.699  0.00  0.00    +0.058 C 
BRANCH   5  16
ATOM      7  O   UNL     1      31.463  -6.727 -19.749  0.00  0.00    -0.275 OA
ATOM      8  N   UNL     1      32.016  -8.190 -21.431  0.00  0.00    -0.270 N 
ATOM      9  N   UNL     1      32.681  -9.660 -23.160  0.00  0.00    -0.229 NA
ATOM     10  C   UNL     1      30.872 -10.290 -19.910  0.00  0.00    +0.039 C 
ATOM     11  C   UNL     1      31.593 -10.556 -21.196  0.00  0.00    +0.010 C 
ATOM     12  C   UNL     1      31.440  -9.064 -19.214  0.00  0.00    +0.090 C 
ATOM     13  C   UNL     1      32.111  -9.499 -21.943  0.00  0.00    +0.130 C 
ATOM     14  C   UNL     1      31.676 -11.841 -21.734  0.00  0.00    +0.000 C 
ATOM     15  C   UNL     1      31.602  -7.882 -20.149  0.00  0.00    +0.227 C 
ATOM     16  C   UNL     1      32.276 -12.035 -22.973  0.00  0.00    +0.019 C 
ATOM     17  C   UNL     1      32.756 -10.922 -23.640  0.00  0.00    +0.100 C 
ATOM     18  H   UNL     1      32.261  -7.446 -22.025  0.00  0.00    +0.156 HD
ENDBRANCH   5  16
ENDBRANCH   3   6
BRANCH   2  19
ATOM     19  C   UNL     1      34.584 -16.335 -22.239  0.00  0.00    +0.158 C 
BRANCH  19  21
ATOM     20  O   UNL     1      33.515 -18.160 -21.104  0.00  0.00    -0.456 OA
ATOM     21  C   UNL     1      34.685 -17.663 -21.547  0.00  0.00    +0.139 A 
ATOM     22  C   UNL     1      35.736 -18.474 -21.276  0.00  0.00    +0.013 A 
ATOM     23  C   UNL     1      35.186 -19.593 -20.597  0.00  0.00    +0.033 A 
ATOM     24  C   UNL     1      33.818 -19.351 -20.516  0.00  0.00    +0.145 A 
ATOM     25  C   UNL     1      37.156 -18.250 -21.612  0.00  0.00    +0.034 C 
ATOM     26  C   UNL     1      35.692 -20.781 -20.042  0.00  0.00    +0.003 C 
ATOM     27  C   UNL     1      32.906 -20.216 -19.917  0.00  0.00    +0.037 C 
ATOM     28  C   UNL     1      34.799 -21.671 -19.431  0.00  0.00    +0.000 C 
ATOM     29  C   UNL     1      33.431 -21.392 -19.371  0.00  0.00    +0.003 C 
ENDBRANCH  19  21
ENDBRANCH   2  19
TORSDOF 4
ENDMDL
MODEL 4
REMARK VINA RESULT:     -12.3      2.488      9.673
REMARK  Name = 10407120
REMARK  4 active torsions:
REMARK  status: ('A' for Active; 'I' for Inactive)
REMARK    1  A    between atoms: N_2  and  C_19
REMARK    2  A    between atoms: C_3  and  C_6
REMARK    3  A    between atoms: C_5  and  C_16
REMARK    4  A    between atoms: C_19  and  C_21
REMARK                            x       y       z     vdW  Elec       q    Type
REMARK                         _______ _______ _______ _____ _____    ______ ____
ROOT
ATOM      1  O   UNL     1      33.401 -15.368 -25.354  0.00  0.00    -0.270 OA
ATOM      2  N   UNL     1      34.181 -16.373 -23.408  0.00  0.00    -0.267 N 
ATOM      3  C   UNL     1      33.697 -15.299 -24.160  0.00  0.00    +0.250 C 
ATOM      4  C   UNL     1      34.358 -17.670 -24.048  0.00  0.00    +0.116 C 
ENDROOT
BRANCH   3   6
ATOM      5  C   UNL     1      32.353 -13.455 -23.216  0.00  0.00    +0.006 C 
ATOM      6  C   UNL     1      33.573 -13.996 -23.441  0.00  0.00    +0.058 C 
BRANCH   5  16
ATOM      7  O   UNL     1      31.316  -6.326 -20.487  0.00  0.00    -0.275 OA
ATOM      8  N   UNL     1      31.373  -8.621 -20.560  0.00  0.00    -0.270 N 
ATOM      9  N   UNL     1      31.333 -10.986 -20.608  0.00  0.00    -0.229 NA
ATOM     10  C   UNL     1      32.547  -8.460 -23.134  0.00  0.00    +0.039 C 
ATOM     11  C   UNL     1      32.152  -9.774 -22.533  0.00  0.00    +0.010 C 
ATOM     12  C   UNL     1      31.645  -7.343 -22.633  0.00  0.00    +0.090 C 
ATOM     13  C   UNL     1      31.613  -9.826 -21.248  0.00  0.00    +0.130 C 
ATOM     14  C   UNL     1      32.405 -10.981 -23.186  0.00  0.00    +0.000 C 
ATOM     15  C   UNL     1      31.464  -7.366 -21.129  0.00  0.00    +0.227 C 
ATOM     16  C   UNL     1      32.106 -12.184 -22.558  0.00  0.00    +0.019 C 
ATOM     17  C   UNL     1      31.579 -12.132 -21.280  0.00  0.00    +0.100 C 
ATOM     18  H   UNL     1      31.123  -8.677 -19.610  0.00  0.00    +0.156 HD
ENDBRANCH   5  16
ENDBRANCH   3   6
BRANCH   2  19
ATOM     19  C   UNL     1      34.571 -16.306 -22.001  0.00  0.00    +0.158 C 
BRANCH  19  21
ATOM     20  O   UNL     1      33.482 -18.168 -20.948  0.00  0.00    -0.456 OA
ATOM     21  C   UNL     1      34.656 -17.669 -21.377  0.00  0.00    +0.139 A 
ATOM     22  C   UNL     1      35.696 -18.509 -21.157  0.00  0.00    +0.013 A 
ATOM     23  C   UNL     1      35.133 -19.651 -20.529  0.00  0.00    +0.033 A 
ATOM     24  C   UNL     1      33.770 -19.391 -20.422  0.00  0.00    +0.145 A 
ATOM     25  C   UNL     1      37.116 -18.292 -21.495  0.00  0.00    +0.034 C 
ATOM     26  C   UNL     1      35.624 -20.873 -20.039  0.00  0.00    +0.003 C 
ATOM     27  C   UNL     1      32.849 -20.271 -19.858  0.00  0.00    +0.037 C 
ATOM     28  C   UNL     1      34.722 -21.779 -19.464  0.00  0.00    +0.000 C 
ATOM     29  C   UNL     1      33.360 -21.480 -19.376  0.00  0.00    +0.003 C 
ENDBRANCH  19  21
ENDBRANCH   2  19
TORSDOF 4
ENDMDL
MODEL 5
REMARK VINA RESULT:     -11.8      5.628     12.316
REMARK  Name = 10407120
REMARK  4 active torsions:
REMARK  status: ('A' for Active; 'I' for Inactive)
REMARK    1  A    between atoms: N_2  and  C_19
REMARK    2  A    between atoms: C_3  and  C_6
REMARK    3  A    between atoms: C_5  and  C_16
REMARK    4  A    between atoms: C_19  and  C_21
REMARK                            x       y       z     vdW  Elec       q    Type
REMARK                         _______ _______ _______ _____ _____    ______ ____
ROOT
ATOM      1  O   UNL     1      30.334 -24.077 -15.997  0.00  0.00    -0.270 OA
ATOM      2  N   UNL     1      31.584 -23.613 -14.093  0.00  0.00    -0.267 N 
ATOM      3  C   UNL     1      31.228 -23.443 -15.434  0.00  0.00    +0.250 C 
ATOM      4  C   UNL     1      30.874 -24.594 -13.284  0.00  0.00    +0.116 C 
ENDROOT
BRANCH   3   6
ATOM      5  C   UNL     1      32.870 -22.847 -17.179  0.00  0.00    +0.006 C 
ATOM      6  C   UNL     1      32.023 -22.442 -16.204  0.00  0.00    +0.058 C 
BRANCH   5  16
ATOM      7  O   UNL     1      36.617 -17.995 -21.844  0.00  0.00    -0.275 OA
ATOM      8  N   UNL     1      36.246 -19.527 -20.174  0.00  0.00    -0.270 N 
ATOM      9  N   UNL     1      35.905 -21.040 -18.388  0.00  0.00    -0.229 NA
ATOM     10  C   UNL     1      33.550 -19.726 -21.026  0.00  0.00    +0.039 C 
ATOM     11  C   UNL     1      34.038 -20.431 -19.797  0.00  0.00    +0.010 C 
ATOM     12  C   UNL     1      34.335 -18.446 -21.263  0.00  0.00    +0.090 C 
ATOM     13  C   UNL     1      35.379 -20.347 -19.424  0.00  0.00    +0.130 C 
ATOM     14  C   UNL     1      33.204 -21.268 -19.055  0.00  0.00    +0.000 C 
ATOM     15  C   UNL     1      35.833 -18.649 -21.157  0.00  0.00    +0.227 C 
ATOM     16  C   UNL     1      33.716 -21.974 -17.973  0.00  0.00    +0.019 C 
ATOM     17  C   UNL     1      35.061 -21.829 -17.686  0.00  0.00    +0.100 C 
ATOM     18  H   UNL     1      37.209 -19.584 -19.985  0.00  0.00    +0.156 HD
ENDBRANCH   5  16
ENDBRANCH   3   6
BRANCH   2  19
ATOM     19  C   UNL     1      32.663 -22.897 -13.414  0.00  0.00    +0.158 C 
BRANCH  19  21
ATOM     20  O   UNL     1      34.169 -24.422 -14.492  0.00  0.00    -0.456 OA
ATOM     21  C   UNL     1      33.934 -23.693 -13.385  0.00  0.00    +0.139 A 
ATOM     22  C   UNL     1      34.909 -23.825 -12.453  0.00  0.00    +0.013 A 
ATOM     23  C   UNL     1      35.854 -24.722 -13.017  0.00  0.00    +0.033 A 
ATOM     24  C   UNL     1      35.352 -25.061 -14.270  0.00  0.00    +0.145 A 
ATOM     25  C   UNL     1      34.981 -23.177 -11.129  0.00  0.00    +0.034 C 
ATOM     26  C   UNL     1      37.074 -25.285 -12.607  0.00  0.00    +0.003 C 
ATOM     27  C   UNL     1      35.986 -25.928 -15.157  0.00  0.00    +0.037 C 
ATOM     28  C   UNL     1      37.735 -26.163 -13.478  0.00  0.00    +0.000 C 
ATOM     29  C   UNL     1      37.198 -26.478 -14.729  0.00  0.00    +0.003 C 
ENDBRANCH  19  21
ENDBRANCH   2  19
TORSDOF 4
ENDMDL
MODEL 6
REMARK VINA RESULT:     -11.7      5.396     11.029
REMARK  Name = 10407120
REMARK  4 active torsions:
REMARK  status: ('A' for Active; 'I' for Inactive)
REMARK    1  A    between atoms: N_2  and  C_19
REMARK    2  A    between atoms: C_3  and  C_6
REMARK    3  A    between atoms: C_5  and  C_16
REMARK    4  A    between atoms: C_19  and  C_21
REMARK                            x       y       z     vdW  Elec       q    Type
REMARK                         _______ _______ _______ _____ _____    ______ ____
ROOT
ATOM      1  O   UNL     1      37.521 -21.871 -14.674  0.00  0.00    -0.270 OA
ATOM      2  N   UNL     1      36.280 -23.837 -14.697  0.00  0.00    -0.267 N 
ATOM      3  C   UNL     1      36.624 -22.562 -15.158  0.00  0.00    +0.250 C 
ATOM      4  C   UNL     1      37.011 -24.411 -13.575  0.00  0.00    +0.116 C 
ENDROOT
BRANCH   3   6
ATOM      5  C   UNL     1      36.416 -21.512 -17.384  0.00  0.00    +0.006 C 
ATOM      6  C   UNL     1      35.809 -22.031 -16.291  0.00  0.00    +0.058 C 
BRANCH   5  16
ATOM      7  O   UNL     1      33.555 -18.013 -23.621  0.00  0.00    -0.275 OA
ATOM      8  N   UNL     1      33.670 -19.368 -21.771  0.00  0.00    -0.270 N 
ATOM      9  N   UNL     1      33.763 -20.843 -19.924  0.00  0.00    -0.229 NA
ATOM     10  C   UNL     1      36.240 -18.309 -21.218  0.00  0.00    +0.039 C 
ATOM     11  C   UNL     1      35.664 -19.431 -20.410  0.00  0.00    +0.010 C 
ATOM     12  C   UNL     1      35.719 -18.347 -22.646  0.00  0.00    +0.090 C 
ATOM     13  C   UNL     1      34.381 -19.905 -20.680  0.00  0.00    +0.130 C 
ATOM     14  C   UNL     1      36.340 -19.960 -19.309  0.00  0.00    +0.000 C 
ATOM     15  C   UNL     1      34.216 -18.523 -22.716  0.00  0.00    +0.227 C 
ATOM     16  C   UNL     1      35.734 -20.939 -18.531  0.00  0.00    +0.019 C 
ATOM     17  C   UNL     1      34.457 -21.341 -18.875  0.00  0.00    +0.100 C 
ATOM     18  H   UNL     1      32.722 -19.612 -21.865  0.00  0.00    +0.156 HD
ENDBRANCH   5  16
ENDBRANCH   3   6
BRANCH   2  19
ATOM     19  C   UNL     1      35.198 -24.661 -15.233  0.00  0.00    +0.158 C 
BRANCH  19  21
ATOM     20  O   UNL     1      33.159 -23.725 -16.085  0.00  0.00    -0.456 OA
ATOM     21  C   UNL     1      33.850 -24.053 -14.977  0.00  0.00    +0.139 A 
ATOM     22  C   UNL     1      33.180 -23.765 -13.836  0.00  0.00    +0.013 A 
ATOM     23  C   UNL     1      31.946 -23.200 -14.253  0.00  0.00    +0.033 A 
ATOM     24  C   UNL     1      31.983 -23.197 -15.644  0.00  0.00    +0.145 A 
ATOM     25  C   UNL     1      33.630 -23.987 -12.447  0.00  0.00    +0.034 C 
ATOM     26  C   UNL     1      30.805 -22.692 -13.610  0.00  0.00    +0.003 C 
ATOM     27  C   UNL     1      30.953 -22.721 -16.452  0.00  0.00    +0.037 C 
ATOM     28  C   UNL     1      29.752 -22.204 -14.396  0.00  0.00    +0.000 C 
ATOM     29  C   UNL     1      29.827 -22.219 -15.791  0.00  0.00    +0.003 C 
ENDBRANCH  19  21
ENDBRANCH   2  19
TORSDOF 4
ENDMDL
MODEL 7
REMARK VINA RESULT:     -11.2      3.996     11.367
REMARK  Name = 10407120
REMARK  4 active torsions:
REMARK  status: ('A' for Active; 'I' for Inactive)
REMARK    1  A    between atoms: N_2  and  C_19
REMARK    2  A    between atoms: C_3  and  C_6
REMARK    3  A    between atoms: C_5  and  C_16
REMARK    4  A    between atoms: C_19  and  C_21
REMARK                            x       y       z     vdW  Elec       q    Type
REMARK                         _______ _______ _______ _____ _____    ______ ____
ROOT
ATOM      1  O   UNL     1      30.537 -10.937 -20.943  0.00  0.00    -0.270 OA
ATOM      2  N   UNL     1      32.351 -12.241 -21.586  0.00  0.00    -0.267 N 
ATOM      3  C   UNL     1      31.537 -11.107 -21.643  0.00  0.00    +0.250 C 
ATOM      4  C   UNL     1      32.024 -13.309 -20.650  0.00  0.00    +0.116 C 
ENDROOT
BRANCH   3   6
ATOM      5  C   UNL     1      31.389  -8.828 -22.585  0.00  0.00    +0.006 C 
ATOM      6  C   UNL     1      31.921 -10.072 -22.648  0.00  0.00    +0.058 C 
BRANCH   5  16
ATOM      7  O   UNL     1      33.598  -2.993 -27.103  0.00  0.00    -0.275 OA
ATOM      8  N   UNL     1      32.306  -4.688 -26.245  0.00  0.00    -0.270 N 
ATOM      9  N   UNL     1      30.975  -6.475 -25.454  0.00  0.00    -0.229 NA
ATOM     10  C   UNL     1      34.196  -5.002 -24.156  0.00  0.00    +0.039 C 
ATOM     11  C   UNL     1      33.035  -5.935 -24.310  0.00  0.00    +0.010 C 
ATOM     12  C   UNL     1      34.631  -4.452 -25.505  0.00  0.00    +0.090 C 
ATOM     13  C   UNL     1      32.099  -5.733 -25.323  0.00  0.00    +0.130 C 
ATOM     14  C   UNL     1      32.796  -6.961 -23.394  0.00  0.00    +0.000 C 
ATOM     15  C   UNL     1      33.468  -3.946 -26.334  0.00  0.00    +0.227 C 
ATOM     16  C   UNL     1      31.659  -7.751 -23.519  0.00  0.00    +0.019 C 
ATOM     17  C   UNL     1      30.787  -7.468 -24.555  0.00  0.00    +0.100 C 
ATOM     18  H   UNL     1      31.575  -4.471 -26.866  0.00  0.00    +0.156 HD
ENDBRANCH   5  16
ENDBRANCH   3   6
BRANCH   2  19
ATOM     19  C   UNL     1      33.521 -12.479 -22.429  0.00  0.00    +0.158 C 
BRANCH  19  21
ATOM     20  O   UNL     1      34.262 -14.601 -21.587  0.00  0.00    -0.456 OA
ATOM     21  C   UNL     1      33.764 -13.943 -22.651  0.00  0.00    +0.139 A 
ATOM     22  C   UNL     1      33.579 -14.747 -23.726  0.00  0.00    +0.013 A 
ATOM     23  C   UNL     1      33.997 -16.039 -23.310  0.00  0.00    +0.033 A 
ATOM     24  C   UNL     1      34.408 -15.895 -21.988  0.00  0.00    +0.145 A 
ATOM     25  C   UNL     1      33.054 -14.370 -25.053  0.00  0.00    +0.034 C 
ATOM     26  C   UNL     1      34.074 -17.311 -23.902  0.00  0.00    +0.003 C 
ATOM     27  C   UNL     1      34.895 -16.938 -21.203  0.00  0.00    +0.037 C 
ATOM     28  C   UNL     1      34.561 -18.380 -23.138  0.00  0.00    +0.000 C 
ATOM     29  C   UNL     1      34.964 -18.194 -21.813  0.00  0.00    +0.003 C 
ENDBRANCH  19  21
ENDBRANCH   2  19
TORSDOF 4
ENDMDL
MODEL 8
REMARK VINA RESULT:     -11.1      5.252     11.087
REMARK  Name = 10407120
REMARK  4 active torsions:
REMARK  status: ('A' for Active; 'I' for Inactive)
REMARK    1  A    between atoms: N_2  and  C_19
REMARK    2  A    between atoms: C_3  and  C_6
REMARK    3  A    between atoms: C_5  and  C_16
REMARK    4  A    between atoms: C_19  and  C_21
REMARK                            x       y       z     vdW  Elec       q    Type
REMARK                         _______ _______ _______ _____ _____    ______ ____
ROOT
ATOM      1  O   UNL     1      35.705 -24.159 -15.506  0.00  0.00    -0.270 OA
ATOM      2  N   UNL     1      34.110 -23.199 -14.113  0.00  0.00    -0.267 N 
ATOM      3  C   UNL     1      34.768 -23.378 -15.334  0.00  0.00    +0.250 C 
ATOM      4  C   UNL     1      34.536 -23.969 -12.953  0.00  0.00    +0.116 C 
ENDROOT
BRANCH   3   6
ATOM      5  C   UNL     1      35.156 -22.140 -17.436  0.00  0.00    +0.006 C 
ATOM      6  C   UNL     1      34.294 -22.529 -16.467  0.00  0.00    +0.058 C 
BRANCH   5  16
ATOM      7  O   UNL     1      34.252 -17.423 -23.458  0.00  0.00    -0.275 OA
ATOM      8  N   UNL     1      33.733 -18.903 -21.780  0.00  0.00    -0.270 N 
ATOM      9  N   UNL     1      33.158 -20.489 -20.122  0.00  0.00    -0.229 NA
ATOM     10  C   UNL     1      36.407 -18.718 -20.859  0.00  0.00    +0.039 C 
ATOM     11  C   UNL     1      35.432 -19.679 -20.250  0.00  0.00    +0.010 C 
ATOM     12  C   UNL     1      36.084 -18.476 -22.325  0.00  0.00    +0.090 C 
ATOM     13  C   UNL     1      34.112 -19.720 -20.697  0.00  0.00    +0.130 C 
ATOM     14  C   UNL     1      35.779 -20.479 -19.161  0.00  0.00    +0.000 C 
ATOM     15  C   UNL     1      34.616 -18.183 -22.561  0.00  0.00    +0.227 C 
ATOM     16  C   UNL     1      34.822 -21.293 -18.566  0.00  0.00    +0.019 C 
ATOM     17  C   UNL     1      33.537 -21.259 -19.078  0.00  0.00    +0.100 C 
ATOM     18  H   UNL     1      32.774 -18.840 -21.994  0.00  0.00    +0.156 HD
ENDBRANCH   5  16
ENDBRANCH   3   6
BRANCH   2  19
ATOM     19  C   UNL     1      33.020 -22.254 -13.877  0.00  0.00    +0.158 C 
BRANCH  19  21
ATOM     20  O   UNL     1      31.124 -22.072 -15.337  0.00  0.00    -0.456 OA
ATOM     21  C   UNL     1      31.701 -22.788 -14.355  0.00  0.00    +0.139 A 
ATOM     22  C   UNL     1      30.966 -23.866 -13.989  0.00  0.00    +0.013 A 
ATOM     23  C   UNL     1      29.811 -23.835 -14.814  0.00  0.00    +0.033 A 
ATOM     24  C   UNL     1      29.956 -22.713 -15.624  0.00  0.00    +0.145 A 
ATOM     25  C   UNL     1      31.288 -24.866 -12.952  0.00  0.00    +0.034 C 
ATOM     26  C   UNL     1      28.661 -24.628 -14.965  0.00  0.00    +0.003 C 
ATOM     27  C   UNL     1      29.029 -22.319 -16.587  0.00  0.00    +0.037 C 
ATOM     28  C   UNL     1      27.710 -24.257 -15.925  0.00  0.00    +0.000 C 
ATOM     29  C   UNL     1      27.892 -23.123 -16.720  0.00  0.00    +0.003 C 
ENDBRANCH  19  21
ENDBRANCH   2  19
TORSDOF 4
ENDMDL
MODEL 9
REMARK VINA RESULT:     -11.1      3.108      5.850
REMARK  Name = 10407120
REMARK  4 active torsions:
REMARK  status: ('A' for Active; 'I' for Inactive)
REMARK    1  A    between atoms: N_2  and  C_19
REMARK    2  A    between atoms: C_3  and  C_6
REMARK    3  A    between atoms: C_5  and  C_16
REMARK    4  A    between atoms: C_19  and  C_21
REMARK                            x       y       z     vdW  Elec       q    Type
REMARK                         _______ _______ _______ _____ _____    ______ ____
ROOT
ATOM      1  O   UNL     1      31.481 -10.400 -19.188  0.00  0.00    -0.270 OA
ATOM      2  N   UNL     1      31.458  -9.300 -21.236  0.00  0.00    -0.267 N 
ATOM      3  C   UNL     1      31.549 -10.430 -20.418  0.00  0.00    +0.250 C 
ATOM      4  C   UNL     1      31.272  -7.990 -20.627  0.00  0.00    +0.116 C 
ENDROOT
BRANCH   3   6
ATOM      5  C   UNL     1      32.973 -12.348 -21.045  0.00  0.00    +0.006 C 
ATOM      6  C   UNL     1      31.770 -11.731 -21.116  0.00  0.00    +0.058 C 
BRANCH   5  16
ATOM      7  O   UNL     1      35.016 -19.276 -23.723  0.00  0.00    -0.275 OA
ATOM      8  N   UNL     1      34.277 -17.101 -23.707  0.00  0.00    -0.270 N 
ATOM      9  N   UNL     1      33.431 -14.892 -23.738  0.00  0.00    -0.229 NA
ATOM     10  C   UNL     1      34.856 -16.978 -20.936  0.00  0.00    +0.039 C 
ATOM     11  C   UNL     1      34.179 -15.846 -21.647  0.00  0.00    +0.010 C 
ATOM     12  C   UNL     1      34.514 -18.308 -21.588  0.00  0.00    +0.090 C 
ATOM     13  C   UNL     1      33.943 -15.919 -23.019  0.00  0.00    +0.130 C 
ATOM     14  C   UNL     1      33.863 -14.656 -20.989  0.00  0.00    +0.000 C 
ATOM     15  C   UNL     1      34.663 -18.277 -23.095  0.00  0.00    +0.227 C 
ATOM     16  C   UNL     1      33.317 -13.595 -21.703  0.00  0.00    +0.019 C 
ATOM     17  C   UNL     1      33.125 -13.762 -23.062  0.00  0.00    +0.100 C 
ATOM     18  H   UNL     1      34.233 -17.088 -24.690  0.00  0.00    +0.156 HD
ENDBRANCH   5  16
ENDBRANCH   3   6
BRANCH   2  19
ATOM     19  C   UNL     1      31.569  -9.307 -22.694  0.00  0.00    +0.158 C 
BRANCH  19  21
ATOM     20  O   UNL     1      30.947  -7.100 -23.402  0.00  0.00    -0.456 OA
ATOM     21  C   UNL     1      31.966  -7.964 -23.233  0.00  0.00    +0.139 A 
ATOM     22  C   UNL     1      33.163  -7.440 -23.588  0.00  0.00    +0.013 A 
ATOM     23  C   UNL     1      32.885  -6.119 -24.025  0.00  0.00    +0.033 A 
ATOM     24  C   UNL     1      31.509  -5.959 -23.891  0.00  0.00    +0.145 A 
ATOM     25  C   UNL     1      34.485  -8.097 -23.536  0.00  0.00    +0.034 C 
ATOM     26  C   UNL     1      33.641  -5.042 -24.518  0.00  0.00    +0.003 C 
ATOM     27  C   UNL     1      30.822  -4.791 -24.216  0.00  0.00    +0.037 C 
ATOM     28  C   UNL     1      32.979  -3.853 -24.853  0.00  0.00    +0.000 C 
ATOM     29  C   UNL     1      31.594  -3.732 -24.705  0.00  0.00    +0.003 C 
ENDBRANCH  19  21
ENDBRANCH   2  19
TORSDOF 4
ENDMDL
