MODEL 1
REMARK VINA RESULT:     -12.9      0.000      0.000
REMARK  Name = 9865515
REMARK  6 active torsions:
REMARK  status: ('A' for Active; 'I' for Inactive)
REMARK    1  A    between atoms: C_1  and  C_20
REMARK    2  A    between atoms: C_2  and  C_9
REMARK    3  A    between atoms: N_8  and  C_11
REMARK    4  A    between atoms: C_12  and  N_17
REMARK    5  A    between atoms: C_20  and  N_21
REMARK    6  A    between atoms: C_25  and  C_30
REMARK                            x       y       z     vdW  Elec       q    Type
REMARK                         _______ _______ _______ _____ _____    ______ ____
ROOT
ATOM      1  C   UNL     1      34.205 -21.419 -19.495  0.00  0.00    -0.002 C 
ATOM      2  C   UNL     1      34.721 -18.937 -20.658  0.00  0.00    +0.054 C 
ATOM      3  C   UNL     1      33.152 -20.645 -19.983  0.00  0.00    -0.002 C 
ATOM      4  C   UNL     1      35.516 -20.952 -19.588  0.00  0.00    -0.002 C 
ATOM      5  C   UNL     1      33.410 -19.404 -20.564  0.00  0.00    +0.004 C 
ATOM      6  C   UNL     1      35.774 -19.711 -20.169  0.00  0.00    +0.004 C 
ENDROOT
BRANCH   2   9
ATOM      7  O   UNL     1      36.064 -17.465 -21.858  0.00  0.00    -0.270 OA
ATOM      8  N   UNL     1      33.973 -16.685 -21.134  0.00  0.00    -0.279 N 
ATOM      9  C   UNL     1      34.990 -17.641 -21.261  0.00  0.00    +0.250 C 
ATOM     10  H   UNL     1      33.177 -16.971 -20.631  0.00  0.00    +0.155 HD
BRANCH   8  11
ATOM     11  C   UNL     1      33.942 -15.359 -21.635  0.00  0.00    +0.064 C 
ATOM     12  C   UNL     1      34.012 -15.126 -22.998  0.00  0.00    +0.055 C 
ATOM     13  C   UNL     1      33.842 -14.316 -20.728  0.00  0.00    +0.016 C 
ATOM     14  C   UNL     1      33.981 -13.812 -23.468  0.00  0.00    +0.015 C 
ATOM     15  C   UNL     1      33.811 -13.004 -21.198  0.00  0.00    +0.001 C 
ATOM     16  C   UNL     1      33.881 -12.751 -22.568  0.00  0.00    +0.001 C 
BRANCH  12  17
ATOM     17  N   UNL     1      34.113 -16.184 -23.927  0.00  0.00    -0.356 N 
ATOM     18  H   UNL     1      34.935 -16.299 -24.457  0.00  0.00    +0.142 HD
ATOM     19  H   UNL     1      33.361 -16.809 -24.046  0.00  0.00    +0.142 HD
ENDBRANCH  12  17
ENDBRANCH   8  11
ENDBRANCH   2   9
BRANCH   1  20
ATOM     20  C   UNL     1      33.930 -22.748 -18.875  0.00  0.00    +0.124 C 
BRANCH  20  21
ATOM     21  N   UNL     1      32.905 -22.642 -17.859  0.00  0.00    -0.264 N 
ATOM     22  N   UNL     1      34.324 -23.476 -16.185  0.00  0.00    -0.338 NA
ATOM     23  N   UNL     1      32.052 -22.850 -15.683  0.00  0.00    -0.170 NA
ATOM     24  C   UNL     1      33.100 -23.001 -16.536  0.00  0.00    +0.145 C 
ATOM     25  C   UNL     1      34.479 -23.815 -14.889  0.00  0.00    +0.147 C 
ATOM     26  C   UNL     1      33.480 -23.702 -13.942  0.00  0.00    +0.055 C 
ATOM     27  C   UNL     1      32.276 -23.208 -14.401  0.00  0.00    +0.114 C 
ATOM     28  H   UNL     1      32.023 -22.297 -18.122  0.00  0.00    +0.160 HD
BRANCH  25  30
ATOM     29  N   UNL     1      38.011 -23.878 -13.705  0.00  0.00    -0.242 NA
ATOM     30  C   UNL     1      35.785 -24.318 -14.538  0.00  0.00    +0.050 C 
ATOM     31  C   UNL     1      36.097 -25.667 -14.677  0.00  0.00    +0.006 C 
ATOM     32  C   UNL     1      36.770 -23.473 -14.050  0.00  0.00    +0.101 C 
ATOM     33  C   UNL     1      37.364 -26.122 -14.331  0.00  0.00    +0.021 C 
ATOM     34  C   UNL     1      38.278 -25.195 -13.854  0.00  0.00    +0.099 C 
ENDBRANCH  25  30
ENDBRANCH  20  21
ENDBRANCH   1  20
TORSDOF 6
ENDMDL
MODEL 2
REMARK VINA RESULT:     -12.7      4.836      8.935
REMARK  Name = 9865515
REMARK  6 active torsions:
REMARK  status: ('A' for Active; 'I' for Inactive)
REMARK    1  A    between atoms: C_1  and  C_20
REMARK    2  A    between atoms: C_2  and  C_9
REMARK    3  A    between atoms: N_8  and  C_11
REMARK    4  A    between atoms: C_12  and  N_17
REMARK    5  A    between atoms: C_20  and  N_21
REMARK    6  A    between atoms: C_25  and  C_30
REMARK                            x       y       z     vdW  Elec       q    Type
REMARK                         _______ _______ _______ _____ _____    ______ ____
ROOT
ATOM      1  C   UNL     1      33.401 -13.356 -21.932  0.00  0.00    -0.002 C 
ATOM      2  C   UNL     1      31.893 -11.014 -21.797  0.00  0.00    +0.054 C 
ATOM      3  C   UNL     1      32.601 -13.105 -20.818  0.00  0.00    -0.002 C 
ATOM      4  C   UNL     1      33.447 -12.436 -22.979  0.00  0.00    -0.002 C 
ATOM      5  C   UNL     1      31.848 -11.934 -20.750  0.00  0.00    +0.004 C 
ATOM      6  C   UNL     1      32.693 -11.265 -22.912  0.00  0.00    +0.004 C 
ENDROOT
BRANCH   2   9
ATOM      7  O   UNL     1      29.873  -9.871 -21.641  0.00  0.00    -0.270 OA
ATOM      8  N   UNL     1      31.840  -8.595 -21.732  0.00  0.00    -0.279 N 
ATOM      9  C   UNL     1      31.109  -9.790 -21.725  0.00  0.00    +0.250 C 
ATOM     10  H   UNL     1      32.817  -8.690 -21.805  0.00  0.00    +0.155 HD
BRANCH   8  11
ATOM     11  C   UNL     1      31.355  -7.265 -21.649  0.00  0.00    +0.064 C 
ATOM     12  C   UNL     1      31.648  -6.482 -20.544  0.00  0.00    +0.055 C 
ATOM     13  C   UNL     1      30.587  -6.779 -22.694  0.00  0.00    +0.016 C 
ATOM     14  C   UNL     1      31.159  -5.177 -20.484  0.00  0.00    +0.015 C 
ATOM     15  C   UNL     1      30.099  -5.475 -22.634  0.00  0.00    +0.001 C 
ATOM     16  C   UNL     1      30.384  -4.673 -21.529  0.00  0.00    +0.001 C 
BRANCH  12  17
ATOM     17  N   UNL     1      32.431  -6.971 -19.476  0.00  0.00    -0.356 N 
ATOM     18  H   UNL     1      32.554  -7.941 -19.359  0.00  0.00    +0.142 HD
ATOM     19  H   UNL     1      32.856  -6.342 -18.848  0.00  0.00    +0.142 HD
ENDBRANCH  12  17
ENDBRANCH   8  11
ENDBRANCH   2   9
BRANCH   1  20
ATOM     20  C   UNL     1      34.206 -14.610 -22.006  0.00  0.00    +0.124 C 
BRANCH  20  21
ATOM     21  N   UNL     1      33.974 -15.301 -23.257  0.00  0.00    -0.264 N 
ATOM     22  N   UNL     1      34.183 -17.413 -22.257  0.00  0.00    -0.338 NA
ATOM     23  N   UNL     1      33.731 -17.200 -24.613  0.00  0.00    -0.170 NA
ATOM     24  C   UNL     1      33.963 -16.680 -23.379  0.00  0.00    +0.145 C 
ATOM     25  C   UNL     1      34.164 -18.753 -22.412  0.00  0.00    +0.147 C 
ATOM     26  C   UNL     1      33.940 -19.382 -23.620  0.00  0.00    +0.055 C 
ATOM     27  C   UNL     1      33.727 -18.547 -24.697  0.00  0.00    +0.114 C 
ATOM     28  H   UNL     1      33.815 -14.760 -24.064  0.00  0.00    +0.160 HD
BRANCH  25  30
ATOM     29  N   UNL     1      35.956 -20.297 -19.532  0.00  0.00    -0.242 NA
ATOM     30  C   UNL     1      34.400 -19.514 -21.208  0.00  0.00    +0.050 C 
ATOM     31  C   UNL     1      33.362 -20.183 -20.567  0.00  0.00    +0.006 C 
ATOM     32  C   UNL     1      35.667 -19.602 -20.654  0.00  0.00    +0.101 C 
ATOM     33  C   UNL     1      33.620 -20.909 -19.410  0.00  0.00    +0.021 C 
ATOM     34  C   UNL     1      34.922 -20.934 -18.937  0.00  0.00    +0.099 C 
ENDBRANCH  25  30
ENDBRANCH  20  21
ENDBRANCH   1  20
TORSDOF 6
ENDMDL
MODEL 3
REMARK VINA RESULT:     -12.7      1.360      2.067
REMARK  Name = 9865515
REMARK  6 active torsions:
REMARK  status: ('A' for Active; 'I' for Inactive)
REMARK    1  A    between atoms: C_1  and  C_20
REMARK    2  A    between atoms: C_2  and  C_9
REMARK    3  A    between atoms: N_8  and  C_11
REMARK    4  A    between atoms: C_12  and  N_17
REMARK    5  A    between atoms: C_20  and  N_21
REMARK    6  A    between atoms: C_25  and  C_30
REMARK                            x       y       z     vdW  Elec       q    Type
REMARK                         _______ _______ _______ _____ _____    ______ ____
ROOT
ATOM      1  C   UNL     1      35.361 -20.336 -19.588  0.00  0.00    -0.002 C 
ATOM      2  C   UNL     1      34.791 -18.411 -21.523  0.00  0.00    +0.054 C 
ATOM      3  C   UNL     1      36.358 -19.460 -20.014  0.00  0.00    -0.002 C 
ATOM      4  C   UNL     1      34.078 -20.250 -20.129  0.00  0.00    -0.002 C 
ATOM      5  C   UNL     1      36.074 -18.497 -20.983  0.00  0.00    +0.004 C 
ATOM      6  C   UNL     1      33.794 -19.287 -21.097  0.00  0.00    +0.004 C 
ENDROOT
BRANCH   2   9
ATOM      7  O   UNL     1      34.519 -17.735 -23.733  0.00  0.00    -0.270 OA
ATOM      8  N   UNL     1      34.175 -16.131 -22.055  0.00  0.00    -0.279 N 
ATOM      9  C   UNL     1      34.495 -17.408 -22.535  0.00  0.00    +0.250 C 
ATOM     10  H   UNL     1      34.199 -16.023 -21.077  0.00  0.00    +0.155 HD
BRANCH   8  11
ATOM     11  C   UNL     1      33.823 -14.974 -22.795  0.00  0.00    +0.064 C 
ATOM     12  C   UNL     1      33.747 -13.741 -22.169  0.00  0.00    +0.055 C 
ATOM     13  C   UNL     1      33.558 -15.115 -24.147  0.00  0.00    +0.016 C 
ATOM     14  C   UNL     1      33.397 -12.616 -22.918  0.00  0.00    +0.015 C 
ATOM     15  C   UNL     1      33.209 -13.991 -24.895  0.00  0.00    +0.001 C 
ATOM     16  C   UNL     1      33.128 -12.741 -24.281  0.00  0.00    +0.001 C 
BRANCH  12  17
ATOM     17  N   UNL     1      34.016 -13.591 -20.791  0.00  0.00    -0.356 N 
ATOM     18  H   UNL     1      33.464 -12.986 -20.244  0.00  0.00    +0.142 HD
ATOM     19  H   UNL     1      34.756 -14.091 -20.376  0.00  0.00    +0.142 HD
ENDBRANCH  12  17
ENDBRANCH   8  11
ENDBRANCH   2   9
BRANCH   1  20
ATOM     20  C   UNL     1      35.664 -21.366 -18.551  0.00  0.00    +0.124 C 
BRANCH  20  21
ATOM     21  N   UNL     1      34.475 -21.713 -17.804  0.00  0.00    -0.264 N 
ATOM     22  N   UNL     1      35.703 -22.865 -16.170  0.00  0.00    -0.338 NA
ATOM     23  N   UNL     1      33.303 -22.706 -16.030  0.00  0.00    -0.170 NA
ATOM     24  C   UNL     1      34.495 -22.451 -16.632  0.00  0.00    +0.145 C 
ATOM     25  C   UNL     1      35.686 -23.581 -15.027  0.00  0.00    +0.147 C 
ATOM     26  C   UNL     1      34.533 -23.896 -14.337  0.00  0.00    +0.055 C 
ATOM     27  C   UNL     1      33.359 -23.428 -14.890  0.00  0.00    +0.114 C 
ATOM     28  H   UNL     1      33.604 -21.408 -18.147  0.00  0.00    +0.160 HD
BRANCH  25  30
ATOM     29  N   UNL     1      39.387 -23.902 -14.735  0.00  0.00    -0.242 NA
ATOM     30  C   UNL     1      36.980 -24.011 -14.552  0.00  0.00    +0.050 C 
ATOM     31  C   UNL     1      37.094 -24.914 -13.499  0.00  0.00    +0.006 C 
ATOM     32  C   UNL     1      38.147 -23.539 -15.130  0.00  0.00    +0.101 C 
ATOM     33  C   UNL     1      38.353 -25.311 -13.065  0.00  0.00    +0.021 C 
ATOM     34  C   UNL     1      39.459 -24.780 -13.710  0.00  0.00    +0.099 C 
ENDBRANCH  25  30
ENDBRANCH  20  21
ENDBRANCH   1  20
TORSDOF 6
ENDMDL
MODEL 4
REMARK VINA RESULT:     -12.6      2.990     10.513
REMARK  Name = 9865515
REMARK  6 active torsions:
REMARK  status: ('A' for Active; 'I' for Inactive)
REMARK    1  A    between atoms: C_1  and  C_20
REMARK    2  A    between atoms: C_2  and  C_9
REMARK    3  A    between atoms: N_8  and  C_11
REMARK    4  A    between atoms: C_12  and  N_17
REMARK    5  A    between atoms: C_20  and  N_21
REMARK    6  A    between atoms: C_25  and  C_30
REMARK                            x       y       z     vdW  Elec       q    Type
REMARK                         _______ _______ _______ _____ _____    ______ ____
ROOT
ATOM      1  C   UNL     1      34.745 -19.951 -20.240  0.00  0.00    -0.002 C 
ATOM      2  C   UNL     1      33.543 -21.806 -18.539  0.00  0.00    +0.054 C 
ATOM      3  C   UNL     1      33.358 -20.093 -20.232  0.00  0.00    -0.002 C 
ATOM      4  C   UNL     1      35.531 -20.737 -19.398  0.00  0.00    -0.002 C 
ATOM      5  C   UNL     1      32.756 -21.021 -19.382  0.00  0.00    +0.004 C 
ATOM      6  C   UNL     1      34.930 -21.664 -18.548  0.00  0.00    +0.004 C 
ENDROOT
BRANCH   2   9
ATOM      7  O   UNL     1      33.036 -23.986 -17.903  0.00  0.00    -0.270 OA
ATOM      8  N   UNL     1      32.231 -22.244 -16.552  0.00  0.00    -0.279 N 
ATOM      9  C   UNL     1      32.915 -22.775 -17.654  0.00  0.00    +0.250 C 
ATOM     10  H   UNL     1      32.220 -21.262 -16.488  0.00  0.00    +0.155 HD
BRANCH   8  11
ATOM     11  C   UNL     1      31.551 -22.937 -15.519  0.00  0.00    +0.064 C 
ATOM     12  C   UNL     1      30.169 -23.026 -15.529  0.00  0.00    +0.055 C 
ATOM     13  C   UNL     1      32.305 -23.515 -14.510  0.00  0.00    +0.016 C 
ATOM     14  C   UNL     1      29.522 -23.713 -14.501  0.00  0.00    +0.015 C 
ATOM     15  C   UNL     1      31.658 -24.201 -13.483  0.00  0.00    +0.001 C 
ATOM     16  C   UNL     1      30.267 -24.301 -13.478  0.00  0.00    +0.001 C 
BRANCH  12  17
ATOM     17  N   UNL     1      29.396 -22.441 -16.555  0.00  0.00    -0.356 N 
ATOM     18  H   UNL     1      29.116 -21.499 -16.485  0.00  0.00    +0.142 HD
ATOM     19  H   UNL     1      29.136 -22.973 -17.342  0.00  0.00    +0.142 HD
ENDBRANCH  12  17
ENDBRANCH   8  11
ENDBRANCH   2   9
BRANCH   1  20
ATOM     20  C   UNL     1      35.389 -18.958 -21.149  0.00  0.00    +0.124 C 
BRANCH  20  21
ATOM     21  N   UNL     1      34.871 -19.077 -22.495  0.00  0.00    -0.264 N 
ATOM     22  N   UNL     1      34.269 -16.810 -22.581  0.00  0.00    -0.338 NA
ATOM     23  N   UNL     1      33.872 -18.269 -24.458  0.00  0.00    -0.170 NA
ATOM     24  C   UNL     1      34.321 -18.020 -23.199  0.00  0.00    +0.145 C 
ATOM     25  C   UNL     1      33.726 -15.804 -23.296  0.00  0.00    +0.147 C 
ATOM     26  C   UNL     1      33.241 -15.949 -24.580  0.00  0.00    +0.055 C 
ATOM     27  C   UNL     1      33.341 -17.217 -25.116  0.00  0.00    +0.114 C 
ATOM     28  H   UNL     1      34.914 -19.957 -22.933  0.00  0.00    +0.160 HD
BRANCH  25  30
ATOM     29  N   UNL     1      33.426 -12.128 -22.761  0.00  0.00    -0.242 NA
ATOM     30  C   UNL     1      33.681 -14.527 -22.623  0.00  0.00    +0.050 C 
ATOM     31  C   UNL     1      33.840 -14.438 -21.243  0.00  0.00    +0.006 C 
ATOM     32  C   UNL     1      33.478 -13.353 -23.329  0.00  0.00    +0.101 C 
ATOM     33  C   UNL     1      33.792 -13.195 -20.623  0.00  0.00    +0.021 C 
ATOM     34  C   UNL     1      33.584 -12.080 -21.419  0.00  0.00    +0.099 C 
ENDBRANCH  25  30
ENDBRANCH  20  21
ENDBRANCH   1  20
TORSDOF 6
ENDMDL
MODEL 5
REMARK VINA RESULT:     -12.4      1.708      3.254
REMARK  Name = 9865515
REMARK  6 active torsions:
REMARK  status: ('A' for Active; 'I' for Inactive)
REMARK    1  A    between atoms: C_1  and  C_20
REMARK    2  A    between atoms: C_2  and  C_9
REMARK    3  A    between atoms: N_8  and  C_11
REMARK    4  A    between atoms: C_12  and  N_17
REMARK    5  A    between atoms: C_20  and  N_21
REMARK    6  A    between atoms: C_25  and  C_30
REMARK                            x       y       z     vdW  Elec       q    Type
REMARK                         _______ _______ _______ _____ _____    ______ ____
ROOT
ATOM      1  C   UNL     1      34.892 -20.362 -19.868  0.00  0.00    -0.002 C 
ATOM      2  C   UNL     1      34.852 -18.039 -21.411  0.00  0.00    +0.054 C 
ATOM      3  C   UNL     1      36.078 -19.674 -20.123  0.00  0.00    -0.002 C 
ATOM      4  C   UNL     1      33.686 -19.889 -20.385  0.00  0.00    -0.002 C 
ATOM      5  C   UNL     1      36.058 -18.513 -20.896  0.00  0.00    +0.004 C 
ATOM      6  C   UNL     1      33.666 -18.727 -21.156  0.00  0.00    +0.004 C 
ENDROOT
BRANCH   2   9
ATOM      7  O   UNL     1      35.607 -16.736 -23.185  0.00  0.00    -0.270 OA
ATOM      8  N   UNL     1      33.896 -15.857 -21.841  0.00  0.00    -0.279 N 
ATOM      9  C   UNL     1      34.832 -16.829 -22.219  0.00  0.00    +0.250 C 
ATOM     10  H   UNL     1      33.350 -16.073 -21.051  0.00  0.00    +0.155 HD
BRANCH   8  11
ATOM     11  C   UNL     1      33.634 -14.603 -22.448  0.00  0.00    +0.064 C 
ATOM     12  C   UNL     1      33.224 -14.538 -23.769  0.00  0.00    +0.055 C 
ATOM     13  C   UNL     1      33.801 -13.457 -21.687  0.00  0.00    +0.016 C 
ATOM     14  C   UNL     1      32.972 -13.292 -24.345  0.00  0.00    +0.015 C 
ATOM     15  C   UNL     1      33.550 -12.213 -22.263  0.00  0.00    +0.001 C 
ATOM     16  C   UNL     1      33.135 -12.130 -23.592  0.00  0.00    +0.001 C 
BRANCH  12  17
ATOM     17  N   UNL     1      33.051 -15.702 -24.550  0.00  0.00    -0.356 N 
ATOM     18  H   UNL     1      33.827 -16.121 -24.987  0.00  0.00    +0.142 HD
ATOM     19  H   UNL     1      32.154 -16.096 -24.656  0.00  0.00    +0.142 HD
ENDBRANCH  12  17
ENDBRANCH   8  11
ENDBRANCH   2   9
BRANCH   1  20
ATOM     20  C   UNL     1      34.911 -21.604 -19.041  0.00  0.00    +0.124 C 
BRANCH  20  21
ATOM     21  N   UNL     1      35.985 -21.562 -18.072  0.00  0.00    -0.264 N 
ATOM     22  N   UNL     1      34.617 -22.393 -16.356  0.00  0.00    -0.338 NA
ATOM     23  N   UNL     1      36.931 -21.861 -15.945  0.00  0.00    -0.170 NA
ATOM     24  C   UNL     1      35.839 -21.950 -16.751  0.00  0.00    +0.145 C 
ATOM     25  C   UNL     1      34.511 -22.764 -15.063  0.00  0.00    +0.147 C 
ATOM     26  C   UNL     1      35.555 -22.712 -14.162  0.00  0.00    +0.055 C 
ATOM     27  C   UNL     1      36.754 -22.248 -14.664  0.00  0.00    +0.114 C 
ATOM     28  H   UNL     1      36.867 -21.239 -18.368  0.00  0.00    +0.160 HD
BRANCH  25  30
ATOM     29  N   UNL     1      31.837 -24.415 -13.061  0.00  0.00    -0.242 NA
ATOM     30  C   UNL     1      33.205 -23.231 -14.664  0.00  0.00    +0.050 C 
ATOM     31  C   UNL     1      32.082 -22.977 -15.444  0.00  0.00    +0.006 C 
ATOM     32  C   UNL     1      33.030 -23.948 -13.491  0.00  0.00    +0.101 C 
ATOM     33  C   UNL     1      30.837 -23.440 -15.034  0.00  0.00    +0.021 C 
ATOM     34  C   UNL     1      30.768 -24.148 -13.845  0.00  0.00    +0.099 C 
ENDBRANCH  25  30
ENDBRANCH  20  21
ENDBRANCH   1  20
TORSDOF 6
ENDMDL
MODEL 6
REMARK VINA RESULT:     -12.1      1.919      4.094
REMARK  Name = 9865515
REMARK  6 active torsions:
REMARK  status: ('A' for Active; 'I' for Inactive)
REMARK    1  A    between atoms: C_1  and  C_20
REMARK    2  A    between atoms: C_2  and  C_9
REMARK    3  A    between atoms: N_8  and  C_11
REMARK    4  A    between atoms: C_12  and  N_17
REMARK    5  A    between atoms: C_20  and  N_21
REMARK    6  A    between atoms: C_25  and  C_30
REMARK                            x       y       z     vdW  Elec       q    Type
REMARK                         _______ _______ _______ _____ _____    ______ ____
ROOT
ATOM      1  C   UNL     1      34.345 -21.342 -19.458  0.00  0.00    -0.002 C 
ATOM      2  C   UNL     1      34.793 -18.896 -20.721  0.00  0.00    +0.054 C 
ATOM      3  C   UNL     1      35.645 -20.858 -19.599  0.00  0.00    -0.002 C 
ATOM      4  C   UNL     1      33.268 -20.603 -19.948  0.00  0.00    -0.002 C 
ATOM      5  C   UNL     1      35.870 -19.635 -20.232  0.00  0.00    +0.004 C 
ATOM      6  C   UNL     1      33.492 -19.380 -20.580  0.00  0.00    +0.004 C 
ENDROOT
BRANCH   2   9
ATOM      7  O   UNL     1      36.066 -17.468 -22.045  0.00  0.00    -0.270 OA
ATOM      8  N   UNL     1      34.018 -16.661 -21.233  0.00  0.00    -0.279 N 
ATOM      9  C   UNL     1      35.027 -17.622 -21.383  0.00  0.00    +0.250 C 
ATOM     10  H   UNL     1      33.252 -16.928 -20.677  0.00  0.00    +0.155 HD
BRANCH   8  11
ATOM     11  C   UNL     1      33.959 -15.353 -21.777  0.00  0.00    +0.064 C 
ATOM     12  C   UNL     1      33.992 -15.165 -23.149  0.00  0.00    +0.055 C 
ATOM     13  C   UNL     1      33.870 -14.281 -20.904  0.00  0.00    +0.016 C 
ATOM     14  C   UNL     1      33.933 -13.869 -23.662  0.00  0.00    +0.015 C 
ATOM     15  C   UNL     1      33.811 -12.986 -21.416  0.00  0.00    +0.001 C 
ATOM     16  C   UNL     1      33.843 -12.779 -22.796  0.00  0.00    +0.001 C 
BRANCH  12  17
ATOM     17  N   UNL     1      34.081 -16.253 -24.045  0.00  0.00    -0.356 N 
ATOM     18  H   UNL     1      34.912 -16.409 -24.549  0.00  0.00    +0.142 HD
ATOM     19  H   UNL     1      33.312 -16.857 -24.165  0.00  0.00    +0.142 HD
ENDBRANCH  12  17
ENDBRANCH   8  11
ENDBRANCH   2   9
BRANCH   1  20
ATOM     20  C   UNL     1      34.104 -22.649 -18.780  0.00  0.00    +0.124 C 
BRANCH  20  21
ATOM     21  N   UNL     1      34.618 -22.633 -17.427  0.00  0.00    -0.264 N 
ATOM     22  N   UNL     1      32.477 -22.854 -16.493  0.00  0.00    -0.338 NA
ATOM     23  N   UNL     1      34.429 -22.705 -15.090  0.00  0.00    -0.170 NA
ATOM     24  C   UNL     1      33.817 -22.734 -16.303  0.00  0.00    +0.145 C 
ATOM     25  C   UNL     1      31.726 -22.950 -15.377  0.00  0.00    +0.147 C 
ATOM     26  C   UNL     1      32.247 -22.931 -14.099  0.00  0.00    +0.055 C 
ATOM     27  C   UNL     1      33.619 -22.805 -14.015  0.00  0.00    +0.114 C 
ATOM     28  H   UNL     1      35.590 -22.545 -17.300  0.00  0.00    +0.160 HD
BRANCH  25  30
ATOM     29  N   UNL     1      28.305 -22.264 -16.686  0.00  0.00    -0.242 NA
ATOM     30  C   UNL     1      30.306 -23.078 -15.601  0.00  0.00    +0.050 C 
ATOM     31  C   UNL     1      29.570 -24.085 -14.984  0.00  0.00    +0.006 C 
ATOM     32  C   UNL     1      29.632 -22.201 -16.436  0.00  0.00    +0.101 C 
ATOM     33  C   UNL     1      28.203 -24.182 -15.218  0.00  0.00    +0.021 C 
ATOM     34  C   UNL     1      27.623 -23.256 -16.070  0.00  0.00    +0.099 C 
ENDBRANCH  25  30
ENDBRANCH  20  21
ENDBRANCH   1  20
TORSDOF 6
ENDMDL
MODEL 7
REMARK VINA RESULT:     -12.0      4.646     13.460
REMARK  Name = 9865515
REMARK  6 active torsions:
REMARK  status: ('A' for Active; 'I' for Inactive)
REMARK    1  A    between atoms: C_1  and  C_20
REMARK    2  A    between atoms: C_2  and  C_9
REMARK    3  A    between atoms: N_8  and  C_11
REMARK    4  A    between atoms: C_12  and  N_17
REMARK    5  A    between atoms: C_20  and  N_21
REMARK    6  A    between atoms: C_25  and  C_30
REMARK                            x       y       z     vdW  Elec       q    Type
REMARK                         _______ _______ _______ _____ _____    ______ ____
ROOT
ATOM      1  C   UNL     1      33.438 -13.274 -23.178  0.00  0.00    -0.002 C 
ATOM      2  C   UNL     1      34.186 -15.902 -22.619  0.00  0.00    +0.054 C 
ATOM      3  C   UNL     1      33.446 -14.228 -24.196  0.00  0.00    -0.002 C 
ATOM      4  C   UNL     1      33.803 -13.634 -21.882  0.00  0.00    -0.002 C 
ATOM      5  C   UNL     1      33.821 -15.542 -23.917  0.00  0.00    +0.004 C 
ATOM      6  C   UNL     1      34.177 -14.948 -21.602  0.00  0.00    +0.004 C 
ENDROOT
BRANCH   2   9
ATOM      7  O   UNL     1      35.255 -17.895 -23.163  0.00  0.00    -0.270 OA
ATOM      8  N   UNL     1      34.169 -17.775 -21.086  0.00  0.00    -0.279 N 
ATOM      9  C   UNL     1      34.579 -17.272 -22.329  0.00  0.00    +0.250 C 
ATOM     10  H   UNL     1      33.636 -17.162 -20.531  0.00  0.00    +0.155 HD
BRANCH   8  11
ATOM     11  C   UNL     1      34.423 -19.052 -20.526  0.00  0.00    +0.064 C 
ATOM     12  C   UNL     1      35.721 -19.450 -20.251  0.00  0.00    +0.055 C 
ATOM     13  C   UNL     1      33.344 -19.882 -20.266  0.00  0.00    +0.016 C 
ATOM     14  C   UNL     1      35.946 -20.712 -19.700  0.00  0.00    +0.015 C 
ATOM     15  C   UNL     1      33.569 -21.143 -19.715  0.00  0.00    +0.001 C 
ATOM     16  C   UNL     1      34.870 -21.558 -19.432  0.00  0.00    +0.001 C 
BRANCH  12  17
ATOM     17  N   UNL     1      36.825 -18.609 -20.513  0.00  0.00    -0.356 N 
ATOM     18  H   UNL     1      37.732 -18.988 -20.564  0.00  0.00    +0.142 HD
ATOM     19  H   UNL     1      36.687 -17.642 -20.644  0.00  0.00    +0.142 HD
ENDBRANCH  12  17
ENDBRANCH   8  11
ENDBRANCH   2   9
BRANCH   1  20
ATOM     20  C   UNL     1      33.035 -11.868 -23.476  0.00  0.00    +0.124 C 
BRANCH  20  21
ATOM     21  N   UNL     1      32.279 -11.304 -22.380  0.00  0.00    -0.264 N 
ATOM     22  N   UNL     1      32.405  -9.134 -23.264  0.00  0.00    -0.338 NA
ATOM     23  N   UNL     1      31.250  -9.560 -21.193  0.00  0.00    -0.170 NA
ATOM     24  C   UNL     1      31.969  -9.958 -22.276  0.00  0.00    +0.145 C 
ATOM     25  C   UNL     1      32.086  -7.830 -23.131  0.00  0.00    +0.147 C 
ATOM     26  C   UNL     1      31.362  -7.322 -22.072  0.00  0.00    +0.055 C 
ATOM     27  C   UNL     1      30.966  -8.243 -21.123  0.00  0.00    +0.114 C 
ATOM     28  H   UNL     1      31.967 -11.910 -21.669  0.00  0.00    +0.160 HD
BRANCH  25  30
ATOM     29  N   UNL     1      32.054  -5.598 -26.115  0.00  0.00    -0.242 NA
ATOM     30  C   UNL     1      32.558  -6.971 -24.191  0.00  0.00    +0.050 C 
ATOM     31  C   UNL     1      33.912  -6.683 -24.331  0.00  0.00    +0.006 C 
ATOM     32  C   UNL     1      31.678  -6.408 -25.101  0.00  0.00    +0.101 C 
ATOM     33  C   UNL     1      34.337  -5.853 -25.362  0.00  0.00    +0.021 C 
ATOM     34  C   UNL     1      33.377  -5.340 -26.220  0.00  0.00    +0.099 C 
ENDBRANCH  25  30
ENDBRANCH  20  21
ENDBRANCH   1  20
TORSDOF 6
ENDMDL
MODEL 8
REMARK VINA RESULT:     -12.0      6.535     14.681
REMARK  Name = 9865515
REMARK  6 active torsions:
REMARK  status: ('A' for Active; 'I' for Inactive)
REMARK    1  A    between atoms: C_1  and  C_20
REMARK    2  A    between atoms: C_2  and  C_9
REMARK    3  A    between atoms: N_8  and  C_11
REMARK    4  A    between atoms: C_12  and  N_17
REMARK    5  A    between atoms: C_20  and  N_21
REMARK    6  A    between atoms: C_25  and  C_30
REMARK                            x       y       z     vdW  Elec       q    Type
REMARK                         _______ _______ _______ _____ _____    ______ ____
ROOT
ATOM      1  C   UNL     1      32.146 -10.795 -22.504  0.00  0.00    -0.002 C 
ATOM      2  C   UNL     1      33.194 -13.273 -21.769  0.00  0.00    +0.054 C 
ATOM      3  C   UNL     1      33.113 -11.408 -23.301  0.00  0.00    -0.002 C 
ATOM      4  C   UNL     1      31.703 -11.422 -21.339  0.00  0.00    -0.002 C 
ATOM      5  C   UNL     1      33.638 -12.646 -22.933  0.00  0.00    +0.004 C 
ATOM      6  C   UNL     1      32.228 -12.661 -20.971  0.00  0.00    +0.004 C 
ENDROOT
BRANCH   2   9
ATOM      7  O   UNL     1      33.982 -14.785 -20.185  0.00  0.00    -0.270 OA
ATOM      8  N   UNL     1      33.939 -15.481 -22.426  0.00  0.00    -0.279 N 
ATOM      9  C   UNL     1      33.744 -14.564 -21.383  0.00  0.00    +0.250 C 
ATOM     10  H   UNL     1      33.704 -15.161 -23.326  0.00  0.00    +0.155 HD
BRANCH   8  11
ATOM     11  C   UNL     1      34.430 -16.808 -22.351  0.00  0.00    +0.064 C 
ATOM     12  C   UNL     1      34.135 -17.720 -23.351  0.00  0.00    +0.055 C 
ATOM     13  C   UNL     1      35.204 -17.162 -21.258  0.00  0.00    +0.016 C 
ATOM     14  C   UNL     1      34.629 -19.021 -23.256  0.00  0.00    +0.015 C 
ATOM     15  C   UNL     1      35.698 -18.462 -21.163  0.00  0.00    +0.001 C 
ATOM     16  C   UNL     1      35.410 -19.393 -22.162  0.00  0.00    +0.001 C 
BRANCH  12  17
ATOM     17  N   UNL     1      33.347 -17.366 -24.469  0.00  0.00    -0.356 N 
ATOM     18  H   UNL     1      33.560 -16.554 -24.984  0.00  0.00    +0.142 HD
ATOM     19  H   UNL     1      32.585 -17.930 -24.733  0.00  0.00    +0.142 HD
ENDBRANCH  12  17
ENDBRANCH   8  11
ENDBRANCH   2   9
BRANCH   1  20
ATOM     20  C   UNL     1      31.583  -9.471 -22.897  0.00  0.00    +0.124 C 
BRANCH  20  21
ATOM     21  N   UNL     1      31.249  -8.683 -21.730  0.00  0.00    -0.264 N 
ATOM     22  N   UNL     1      32.029  -6.698 -22.709  0.00  0.00    -0.338 NA
ATOM     23  N   UNL     1      31.106  -6.701 -20.483  0.00  0.00    -0.170 NA
ATOM     24  C   UNL     1      31.468  -7.320 -21.638  0.00  0.00    +0.145 C 
ATOM     25  C   UNL     1      32.228  -5.370 -22.585  0.00  0.00    +0.147 C 
ATOM     26  C   UNL     1      31.897  -4.647 -21.457  0.00  0.00    +0.055 C 
ATOM     27  C   UNL     1      31.334  -5.372 -20.427  0.00  0.00    +0.114 C 
ATOM     28  H   UNL     1      30.843  -9.143 -20.960  0.00  0.00    +0.160 HD
BRANCH  25  30
ATOM     29  N   UNL     1      32.722  -2.994 -25.414  0.00  0.00    -0.242 NA
ATOM     30  C   UNL     1      32.824  -4.729 -23.733  0.00  0.00    +0.050 C 
ATOM     31  C   UNL     1      34.024  -5.187 -24.269  0.00  0.00    +0.006 C 
ATOM     32  C   UNL     1      32.219  -3.638 -24.338  0.00  0.00    +0.101 C 
ATOM     33  C   UNL     1      34.573  -4.550 -25.375  0.00  0.00    +0.021 C 
ATOM     34  C   UNL     1      33.889  -3.467 -25.906  0.00  0.00    +0.099 C 
ENDBRANCH  25  30
ENDBRANCH  20  21
ENDBRANCH   1  20
TORSDOF 6
ENDMDL
MODEL 9
REMARK VINA RESULT:     -11.5      1.709      3.649
REMARK  Name = 9865515
REMARK  6 active torsions:
REMARK  status: ('A' for Active; 'I' for Inactive)
REMARK    1  A    between atoms: C_1  and  C_20
REMARK    2  A    between atoms: C_2  and  C_9
REMARK    3  A    between atoms: N_8  and  C_11
REMARK    4  A    between atoms: C_12  and  N_17
REMARK    5  A    between atoms: C_20  and  N_21
REMARK    6  A    between atoms: C_25  and  C_30
REMARK                            x       y       z     vdW  Elec       q    Type
REMARK                         _______ _______ _______ _____ _____    ______ ____
ROOT
ATOM      1  C   UNL     1      34.475 -21.176 -19.232  0.00  0.00    -0.002 C 
ATOM      2  C   UNL     1      34.902 -18.954 -20.863  0.00  0.00    +0.054 C 
ATOM      3  C   UNL     1      33.395 -20.547 -19.851  0.00  0.00    -0.002 C 
ATOM      4  C   UNL     1      35.769 -20.694 -19.429  0.00  0.00    -0.002 C 
ATOM      5  C   UNL     1      33.608 -19.435 -20.665  0.00  0.00    +0.004 C 
ATOM      6  C   UNL     1      35.983 -19.583 -20.244  0.00  0.00    +0.004 C 
ENDROOT
BRANCH   2   9
ATOM      7  O   UNL     1      36.197 -17.694 -22.330  0.00  0.00    -0.270 OA
ATOM      8  N   UNL     1      34.070 -16.872 -21.776  0.00  0.00    -0.279 N 
ATOM      9  C   UNL     1      35.125 -17.793 -21.711  0.00  0.00    +0.250 C 
ATOM     10  H   UNL     1      33.281 -17.085 -21.227  0.00  0.00    +0.155 HD
BRANCH   8  11
ATOM     11  C   UNL     1      33.991 -15.675 -22.530  0.00  0.00    +0.064 C 
ATOM     12  C   UNL     1      33.862 -14.453 -21.890  0.00  0.00    +0.055 C 
ATOM     13  C   UNL     1      34.044 -15.763 -23.912  0.00  0.00    +0.016 C 
ATOM     14  C   UNL     1      33.786 -13.288 -22.653  0.00  0.00    +0.015 C 
ATOM     15  C   UNL     1      33.968 -14.598 -24.674  0.00  0.00    +0.001 C 
ATOM     16  C   UNL     1      33.838 -13.360 -24.045  0.00  0.00    +0.001 C 
BRANCH  12  17
ATOM     17  N   UNL     1      33.808 -14.356 -20.482  0.00  0.00    -0.356 N 
ATOM     18  H   UNL     1      34.520 -13.883 -19.993  0.00  0.00    +0.142 HD
ATOM     19  H   UNL     1      33.059 -14.762 -19.989  0.00  0.00    +0.142 HD
ENDBRANCH  12  17
ENDBRANCH   8  11
ENDBRANCH   2   9
BRANCH   1  20
ATOM     20  C   UNL     1      34.247 -22.366 -18.361  0.00  0.00    +0.124 C 
BRANCH  20  21
ATOM     21  N   UNL     1      35.056 -22.292 -17.163  0.00  0.00    -0.264 N 
ATOM     22  N   UNL     1      33.301 -23.044 -15.799  0.00  0.00    -0.338 NA
ATOM     23  N   UNL     1      35.456 -22.512 -14.862  0.00  0.00    -0.170 NA
ATOM     24  C   UNL     1      34.589 -22.626 -15.903  0.00  0.00    +0.145 C 
ATOM     25  C   UNL     1      32.880 -23.361 -14.558  0.00  0.00    +0.147 C 
ATOM     26  C   UNL     1      33.677 -23.280 -13.434  0.00  0.00    +0.055 C 
ATOM     27  C   UNL     1      34.968 -22.845 -13.648  0.00  0.00    +0.114 C 
ATOM     28  H   UNL     1      35.988 -21.989 -17.250  0.00  0.00    +0.160 HD
BRANCH  25  30
ATOM     29  N   UNL     1      29.327 -23.985 -15.494  0.00  0.00    -0.242 NA
ATOM     30  C   UNL     1      31.508 -23.803 -14.469  0.00  0.00    +0.050 C 
ATOM     31  C   UNL     1      31.034 -24.446 -13.330  0.00  0.00    +0.006 C 
ATOM     32  C   UNL     1      30.622 -23.598 -15.514  0.00  0.00    +0.101 C 
ATOM     33  C   UNL     1      29.708 -24.859 -13.273  0.00  0.00    +0.021 C 
ATOM     34  C   UNL     1      28.902 -24.607 -14.372  0.00  0.00    +0.099 C 
ENDBRANCH  25  30
ENDBRANCH  20  21
ENDBRANCH   1  20
TORSDOF 6
ENDMDL
