MODEL 1
REMARK VINA RESULT:     -12.0      0.000      0.000
REMARK  Name = 132881
REMARK  11 active torsions:
REMARK  status: ('A' for Active; 'I' for Inactive)
REMARK    1  A    between atoms: C_1  and  O_22
REMARK    2  A    between atoms: C_4  and  C_7
REMARK    3  A    between atoms: C_10  and  C_15
REMARK    4  A    between atoms: N_14  and  C_15
REMARK    5  A    between atoms: N_14  and  C_19
REMARK    6  A    between atoms: C_19  and  O_20
REMARK    7  A    between atoms: O_22  and  C_23
REMARK    8  A    between atoms: C_23  and  C_27
REMARK    9  A    between atoms: C_26  and  C_31
REMARK   10  A    between atoms: C_31  and  C_33
REMARK   11  A    between atoms: C_33  and  O_34
REMARK                            x       y       z     vdW  Elec       q    Type
REMARK                         _______ _______ _______ _____ _____    ______ ____
ROOT
ATOM      1  C   UNL     1      34.130 -21.893 -18.583  0.00  0.00    +0.139 C 
ATOM      2  C   UNL     1      35.351 -21.343 -18.975  0.00  0.00    +0.037 C 
ATOM      3  C   UNL     1      32.937 -21.356 -19.064  0.00  0.00    +0.037 C 
ATOM      4  C   UNL     1      34.183 -19.719 -20.331  0.00  0.00    +0.000 C 
ATOM      5  C   UNL     1      35.377 -20.256 -19.849  0.00  0.00    +0.003 C 
ATOM      6  C   UNL     1      32.962 -20.269 -19.938  0.00  0.00    +0.003 C 
ENDROOT
BRANCH   4   7
ATOM      7  C   UNL     1      34.211 -18.593 -21.238  0.00  0.00    +0.000 C 
ATOM      8  C   UNL     1      33.898 -18.773 -22.586  0.00  0.00    +0.000 C 
ATOM      9  C   UNL     1      34.552 -17.327 -20.765  0.00  0.00    +0.000 C 
ATOM     10  C   UNL     1      34.265 -16.418 -22.985  0.00  0.00    +0.031 C 
ATOM     11  C   UNL     1      33.925 -17.686 -23.460  0.00  0.00    +0.003 C 
ATOM     12  C   UNL     1      34.579 -16.239 -21.638  0.00  0.00    +0.003 C 
BRANCH  10  14
ATOM     13  N   UNL     1      34.359 -15.520 -25.275  0.00  0.00    -0.385 N 
ATOM     14  C   UNL     1      34.293 -15.285 -23.895  0.00  0.00    +0.129 C 
ATOM     15  H   UNL     1      34.378 -14.764 -25.904  0.00  0.00    +0.157 HD
ATOM     16  H   UNL     1      34.385 -16.445 -25.616  0.00  0.00    +0.157 HD
BRANCH  14  17
ATOM     17  N   UNL     1      34.269 -14.068 -23.371  0.00  0.00    -0.126 NA
BRANCH  17  19
ATOM     18  O   UNL     1      32.643 -13.092 -24.713  0.00  0.00    -0.224 OA
ATOM     19  C   UNL     1      33.262 -13.179 -23.657  0.00  0.00    +0.427 C 
BRANCH  19  20
ATOM     20  O   UNL     1      33.017 -12.408 -22.555  0.00  0.00    -0.429 OA
ATOM     21  C   UNL     1      32.661 -13.118 -21.363  0.00  0.00    +0.257 C 
ENDBRANCH  19  20
ENDBRANCH  17  19
ENDBRANCH  14  17
ENDBRANCH  10  14
ENDBRANCH   4   7
BRANCH   1  22
ATOM     22  O   UNL     1      34.105 -22.962 -17.722  0.00  0.00    -0.474 OA
BRANCH  22  23
ATOM     23  C   UNL     1      33.405 -22.788 -16.503  0.00  0.00    +0.225 C 
BRANCH  23  27
ATOM     24  O   UNL     1      33.884 -24.238 -12.387  0.00  0.00    -0.275 OA
ATOM     25  N   UNL     1      33.833 -22.640 -14.097  0.00  0.00    -0.302 N 
ATOM     26  C   UNL     1      35.136 -24.548 -14.463  0.00  0.00    +0.089 C 
ATOM     27  C   UNL     1      34.409 -22.459 -15.406  0.00  0.00    +0.116 C 
ATOM     28  C   UNL     1      35.598 -23.413 -15.383  0.00  0.00    +0.033 C 
ATOM     29  C   UNL     1      34.227 -23.828 -13.485  0.00  0.00    +0.223 C 
ATOM     30  H   UNL     1      33.222 -21.991 -13.678  0.00  0.00    +0.149 HD
BRANCH  26  31
ATOM     31  C   UNL     1      36.283 -25.269 -13.780  0.00  0.00    +0.119 C 
BRANCH  31  33
ATOM     32  O   UNL     1      36.407 -26.813 -15.653  0.00  0.00    -0.250 OA
ATOM     33  C   UNL     1      36.939 -26.286 -14.686  0.00  0.00    +0.318 C 
BRANCH  33  34
ATOM     34  O   UNL     1      38.212 -26.513 -14.248  0.00  0.00    -0.444 OA
ATOM     35  C   UNL     1      38.866 -25.392 -13.642  0.00  0.00    +0.256 C 
ENDBRANCH  33  34
ENDBRANCH  31  33
ENDBRANCH  26  31
ENDBRANCH  23  27
ENDBRANCH  22  23
ENDBRANCH   1  22
TORSDOF 11
ENDMDL
MODEL 2
REMARK VINA RESULT:     -11.6      5.598     14.904
REMARK  Name = 132881
REMARK  11 active torsions:
REMARK  status: ('A' for Active; 'I' for Inactive)
REMARK    1  A    between atoms: C_1  and  O_22
REMARK    2  A    between atoms: C_4  and  C_7
REMARK    3  A    between atoms: C_10  and  C_15
REMARK    4  A    between atoms: N_14  and  C_15
REMARK    5  A    between atoms: N_14  and  C_19
REMARK    6  A    between atoms: C_19  and  O_20
REMARK    7  A    between atoms: O_22  and  C_23
REMARK    8  A    between atoms: C_23  and  C_27
REMARK    9  A    between atoms: C_26  and  C_31
REMARK   10  A    between atoms: C_31  and  C_33
REMARK   11  A    between atoms: C_33  and  O_34
REMARK                            x       y       z     vdW  Elec       q    Type
REMARK                         _______ _______ _______ _____ _____    ______ ____
ROOT
ATOM      1  C   UNL     1      31.527 -10.556 -22.087  0.00  0.00    +0.139 C 
ATOM      2  C   UNL     1      31.316 -11.435 -21.025  0.00  0.00    +0.037 C 
ATOM      3  C   UNL     1      32.399 -10.904 -23.117  0.00  0.00    +0.037 C 
ATOM      4  C   UNL     1      32.850 -13.011 -22.025  0.00  0.00    +0.000 C 
ATOM      5  C   UNL     1      31.977 -12.663 -20.994  0.00  0.00    +0.003 C 
ATOM      6  C   UNL     1      33.061 -12.131 -23.087  0.00  0.00    +0.003 C 
ENDROOT
BRANCH   4   7
ATOM      7  C   UNL     1      33.534 -14.284 -21.992  0.00  0.00    +0.000 C 
ATOM      8  C   UNL     1      33.811 -14.899 -20.770  0.00  0.00    +0.000 C 
ATOM      9  C   UNL     1      33.918 -14.900 -23.184  0.00  0.00    +0.000 C 
ATOM     10  C   UNL     1      34.853 -16.743 -21.932  0.00  0.00    +0.031 C 
ATOM     11  C   UNL     1      34.470 -16.128 -20.740  0.00  0.00    +0.003 C 
ATOM     12  C   UNL     1      34.577 -16.129 -23.153  0.00  0.00    +0.003 C 
BRANCH  10  14
ATOM     13  N   UNL     1      36.940 -18.047 -21.927  0.00  0.00    -0.385 N 
ATOM     14  C   UNL     1      35.540 -18.024 -21.901  0.00  0.00    +0.129 C 
ATOM     15  H   UNL     1      37.420 -18.906 -21.906  0.00  0.00    +0.157 HD
ATOM     16  H   UNL     1      37.446 -17.202 -21.966  0.00  0.00    +0.157 HD
BRANCH  14  17
ATOM     17  N   UNL     1      34.800 -19.123 -21.863  0.00  0.00    -0.126 NA
BRANCH  17  19
ATOM     18  O   UNL     1      33.323 -20.100 -20.359  0.00  0.00    -0.224 OA
ATOM     19  C   UNL     1      34.443 -19.712 -20.674  0.00  0.00    +0.427 C 
BRANCH  19  20
ATOM     20  O   UNL     1      35.553 -19.839 -19.886  0.00  0.00    -0.429 OA
ATOM     21  C   UNL     1      35.624 -21.030 -19.095  0.00  0.00    +0.257 C 
ENDBRANCH  19  20
ENDBRANCH  17  19
ENDBRANCH  14  17
ENDBRANCH  10  14
ENDBRANCH   4   7
BRANCH   1  22
ATOM     22  O   UNL     1      30.876  -9.347 -22.116  0.00  0.00    -0.474 OA
BRANCH  22  23
ATOM     23  C   UNL     1      31.438  -8.334 -22.932  0.00  0.00    +0.225 C 
BRANCH  23  27
ATOM     24  O   UNL     1      33.882  -4.802 -23.834  0.00  0.00    -0.275 OA
ATOM     25  N   UNL     1      33.371  -6.838 -22.799  0.00  0.00    -0.302 N 
ATOM     26  C   UNL     1      31.748  -5.155 -22.697  0.00  0.00    +0.089 C 
ATOM     27  C   UNL     1      32.277  -7.413 -22.056  0.00  0.00    +0.116 C 
ATOM     28  C   UNL     1      31.511  -6.183 -21.584  0.00  0.00    +0.033 C 
ATOM     29  C   UNL     1      33.136  -5.521 -23.188  0.00  0.00    +0.223 C 
ATOM     30  H   UNL     1      34.200  -7.326 -23.011  0.00  0.00    +0.149 HD
BRANCH  26  31
ATOM     31  C   UNL     1      31.652  -3.720 -22.216  0.00  0.00    +0.119 C 
BRANCH  31  33
ATOM     32  O   UNL     1      29.712  -2.265 -22.043  0.00  0.00    -0.250 OA
ATOM     33  C   UNL     1      30.394  -3.038 -22.702  0.00  0.00    +0.318 C 
BRANCH  33  34
ATOM     34  O   UNL     1      30.148  -3.426 -23.988  0.00  0.00    -0.444 OA
ATOM     35  C   UNL     1      30.579  -2.510 -25.001  0.00  0.00    +0.256 C 
ENDBRANCH  33  34
ENDBRANCH  31  33
ENDBRANCH  26  31
ENDBRANCH  23  27
ENDBRANCH  22  23
ENDBRANCH   1  22
TORSDOF 11
ENDMDL
MODEL 3
REMARK VINA RESULT:     -11.5      1.734     11.970
REMARK  Name = 132881
REMARK  11 active torsions:
REMARK  status: ('A' for Active; 'I' for Inactive)
REMARK    1  A    between atoms: C_1  and  O_22
REMARK    2  A    between atoms: C_4  and  C_7
REMARK    3  A    between atoms: C_10  and  C_15
REMARK    4  A    between atoms: N_14  and  C_15
REMARK    5  A    between atoms: N_14  and  C_19
REMARK    6  A    between atoms: C_19  and  O_20
REMARK    7  A    between atoms: O_22  and  C_23
REMARK    8  A    between atoms: C_23  and  C_27
REMARK    9  A    between atoms: C_26  and  C_31
REMARK   10  A    between atoms: C_31  and  C_33
REMARK   11  A    between atoms: C_33  and  O_34
REMARK                            x       y       z     vdW  Elec       q    Type
REMARK                         _______ _______ _______ _____ _____    ______ ____
ROOT
ATOM      1  C   UNL     1      34.930 -18.894 -21.850  0.00  0.00    +0.139 C 
ATOM      2  C   UNL     1      33.757 -19.480 -21.375  0.00  0.00    +0.037 C 
ATOM      3  C   UNL     1      36.129 -19.078 -21.162  0.00  0.00    +0.037 C 
ATOM      4  C   UNL     1      34.983 -20.436 -19.526  0.00  0.00    +0.000 C 
ATOM      5  C   UNL     1      33.783 -20.251 -20.213  0.00  0.00    +0.003 C 
ATOM      6  C   UNL     1      36.156 -19.849 -20.001  0.00  0.00    +0.003 C 
ENDROOT
BRANCH   4   7
ATOM      7  C   UNL     1      35.009 -21.236 -18.322  0.00  0.00    +0.000 C 
ATOM      8  C   UNL     1      33.881 -21.965 -17.942  0.00  0.00    +0.000 C 
ATOM      9  C   UNL     1      36.163 -21.281 -17.540  0.00  0.00    +0.000 C 
ATOM     10  C   UNL     1      35.064 -22.783 -16.000  0.00  0.00    +0.031 C 
ATOM     11  C   UNL     1      33.908 -22.738 -16.781  0.00  0.00    +0.003 C 
ATOM     12  C   UNL     1      36.190 -22.054 -16.380  0.00  0.00    +0.003 C 
BRANCH  10  14
ATOM     13  N   UNL     1      35.229 -22.951 -13.550  0.00  0.00    -0.385 N 
ATOM     14  C   UNL     1      35.092 -23.589 -14.790  0.00  0.00    +0.129 C 
ATOM     15  H   UNL     1      35.249 -23.483 -12.723  0.00  0.00    +0.157 HD
ATOM     16  H   UNL     1      35.304 -21.970 -13.507  0.00  0.00    +0.157 HD
BRANCH  14  17
ATOM     17  N   UNL     1      35.000 -24.905 -14.919  0.00  0.00    -0.126 NA
BRANCH  17  19
ATOM     18  O   UNL     1      36.330 -26.663 -15.653  0.00  0.00    -0.224 OA
ATOM     19  C   UNL     1      36.113 -25.710 -14.913  0.00  0.00    +0.427 C 
BRANCH  19  20
ATOM     20  O   UNL     1      36.985 -25.260 -13.959  0.00  0.00    -0.429 OA
ATOM     21  C   UNL     1      38.353 -25.146 -14.369  0.00  0.00    +0.257 C 
ENDBRANCH  19  20
ENDBRANCH  17  19
ENDBRANCH  14  17
ENDBRANCH  10  14
ENDBRANCH   4   7
BRANCH   1  22
ATOM     22  O   UNL     1      34.903 -18.133 -22.993  0.00  0.00    -0.474 OA
BRANCH  22  23
ATOM     23  C   UNL     1      33.924 -17.112 -23.062  0.00  0.00    +0.225 C 
BRANCH  23  27
ATOM     24  O   UNL     1      32.655 -13.808 -25.659  0.00  0.00    -0.275 OA
ATOM     25  N   UNL     1      34.148 -15.382 -24.780  0.00  0.00    -0.302 N 
ATOM     26  C   UNL     1      32.973 -14.059 -23.249  0.00  0.00    +0.089 C 
ATOM     27  C   UNL     1      34.602 -15.814 -23.481  0.00  0.00    +0.116 C 
ATOM     28  C   UNL     1      34.231 -14.635 -22.588  0.00  0.00    +0.033 C 
ATOM     29  C   UNL     1      33.212 -14.352 -24.718  0.00  0.00    +0.223 C 
ATOM     30  H   UNL     1      34.467 -15.774 -25.625  0.00  0.00    +0.149 HD
BRANCH  26  31
ATOM     31  C   UNL     1      32.772 -12.582 -22.967  0.00  0.00    +0.119 C 
BRANCH  31  33
ATOM     32  O   UNL     1      31.827 -13.038 -20.775  0.00  0.00    -0.250 OA
ATOM     33  C   UNL     1      31.865 -12.345 -21.782  0.00  0.00    +0.318 C 
BRANCH  33  34
ATOM     34  O   UNL     1      31.103 -11.237 -22.022  0.00  0.00    -0.444 OA
ATOM     35  C   UNL     1      30.783 -10.448 -20.871  0.00  0.00    +0.256 C 
ENDBRANCH  33  34
ENDBRANCH  31  33
ENDBRANCH  26  31
ENDBRANCH  23  27
ENDBRANCH  22  23
ENDBRANCH   1  22
TORSDOF 11
ENDMDL
MODEL 4
REMARK VINA RESULT:     -11.5      1.827     12.030
REMARK  Name = 132881
REMARK  11 active torsions:
REMARK  status: ('A' for Active; 'I' for Inactive)
REMARK    1  A    between atoms: C_1  and  O_22
REMARK    2  A    between atoms: C_4  and  C_7
REMARK    3  A    between atoms: C_10  and  C_15
REMARK    4  A    between atoms: N_14  and  C_15
REMARK    5  A    between atoms: N_14  and  C_19
REMARK    6  A    between atoms: C_19  and  O_20
REMARK    7  A    between atoms: O_22  and  C_23
REMARK    8  A    between atoms: C_23  and  C_27
REMARK    9  A    between atoms: C_26  and  C_31
REMARK   10  A    between atoms: C_31  and  C_33
REMARK   11  A    between atoms: C_33  and  O_34
REMARK                            x       y       z     vdW  Elec       q    Type
REMARK                         _______ _______ _______ _____ _____    ______ ____
ROOT
ATOM      1  C   UNL     1      34.538 -20.081 -20.807  0.00  0.00    +0.139 C 
ATOM      2  C   UNL     1      35.806 -20.213 -20.242  0.00  0.00    +0.037 C 
ATOM      3  C   UNL     1      33.421 -20.584 -20.140  0.00  0.00    +0.037 C 
ATOM      4  C   UNL     1      34.840 -21.351 -18.341  0.00  0.00    +0.000 C 
ATOM      5  C   UNL     1      35.958 -20.848 -19.009  0.00  0.00    +0.003 C 
ATOM      6  C   UNL     1      33.572 -21.219 -18.907  0.00  0.00    +0.003 C 
ENDROOT
BRANCH   4   7
ATOM      7  C   UNL     1      34.998 -22.008 -17.063  0.00  0.00    +0.000 C 
ATOM      8  C   UNL     1      33.925 -22.693 -16.491  0.00  0.00    +0.000 C 
ATOM      9  C   UNL     1      36.225 -21.958 -16.401  0.00  0.00    +0.000 C 
ATOM     10  C   UNL     1      35.307 -23.278 -14.597  0.00  0.00    +0.031 C 
ATOM     11  C   UNL     1      34.080 -23.327 -15.258  0.00  0.00    +0.003 C 
ATOM     12  C   UNL     1      36.379 -22.592 -15.169  0.00  0.00    +0.003 C 
BRANCH  10  14
ATOM     13  N   UNL     1      34.327 -24.304 -12.587  0.00  0.00    -0.385 N 
ATOM     14  C   UNL     1      35.468 -23.939 -13.313  0.00  0.00    +0.129 C 
ATOM     15  H   UNL     1      34.420 -24.753 -11.716  0.00  0.00    +0.157 HD
ATOM     16  H   UNL     1      33.431 -24.113 -12.949  0.00  0.00    +0.157 HD
BRANCH  14  17
ATOM     17  N   UNL     1      36.701 -24.155 -12.877  0.00  0.00    -0.126 NA
BRANCH  17  19
ATOM     18  O   UNL     1      36.458 -25.883 -11.343  0.00  0.00    -0.224 OA
ATOM     19  C   UNL     1      37.054 -25.332 -12.263  0.00  0.00    +0.427 C 
BRANCH  19  20
ATOM     20  O   UNL     1      38.174 -25.834 -12.866  0.00  0.00    -0.429 OA
ATOM     21  C   UNL     1      39.019 -24.875 -13.511  0.00  0.00    +0.257 C 
ENDBRANCH  19  20
ENDBRANCH  17  19
ENDBRANCH  14  17
ENDBRANCH  10  14
ENDBRANCH   4   7
BRANCH   1  22
ATOM     22  O   UNL     1      34.390 -19.457 -22.021  0.00  0.00    -0.474 OA
BRANCH  22  23
ATOM     23  C   UNL     1      33.795 -18.171 -22.014  0.00  0.00    +0.225 C 
BRANCH  23  27
ATOM     24  O   UNL     1      33.399 -15.254 -25.270  0.00  0.00    -0.275 OA
ATOM     25  N   UNL     1      34.455 -16.923 -24.014  0.00  0.00    -0.302 N 
ATOM     26  C   UNL     1      33.611 -15.082 -22.841  0.00  0.00    +0.089 C 
ATOM     27  C   UNL     1      34.772 -17.179 -22.630  0.00  0.00    +0.116 C 
ATOM     28  C   UNL     1      34.683 -15.791 -22.005  0.00  0.00    +0.033 C 
ATOM     29  C   UNL     1      33.794 -15.712 -24.209  0.00  0.00    +0.223 C 
ATOM     30  H   UNL     1      34.682 -17.541 -24.746  0.00  0.00    +0.149 HD
BRANCH  26  31
ATOM     31  C   UNL     1      33.767 -13.574 -22.862  0.00  0.00    +0.119 C 
BRANCH  31  33
ATOM     32  O   UNL     1      32.308 -13.339 -20.932  0.00  0.00    -0.250 OA
ATOM     33  C   UNL     1      32.757 -12.883 -21.975  0.00  0.00    +0.318 C 
BRANCH  33  34
ATOM     34  O   UNL     1      32.435 -11.677 -22.527  0.00  0.00    -0.444 OA
ATOM     35  C   UNL     1      33.011 -11.412 -23.811  0.00  0.00    +0.256 C 
ENDBRANCH  33  34
ENDBRANCH  31  33
ENDBRANCH  26  31
ENDBRANCH  23  27
ENDBRANCH  22  23
ENDBRANCH   1  22
TORSDOF 11
ENDMDL
MODEL 5
REMARK VINA RESULT:     -11.5      1.087      1.551
REMARK  Name = 132881
REMARK  11 active torsions:
REMARK  status: ('A' for Active; 'I' for Inactive)
REMARK    1  A    between atoms: C_1  and  O_22
REMARK    2  A    between atoms: C_4  and  C_7
REMARK    3  A    between atoms: C_10  and  C_15
REMARK    4  A    between atoms: N_14  and  C_15
REMARK    5  A    between atoms: N_14  and  C_19
REMARK    6  A    between atoms: C_19  and  O_20
REMARK    7  A    between atoms: O_22  and  C_23
REMARK    8  A    between atoms: C_23  and  C_27
REMARK    9  A    between atoms: C_26  and  C_31
REMARK   10  A    between atoms: C_31  and  C_33
REMARK   11  A    between atoms: C_33  and  O_34
REMARK                            x       y       z     vdW  Elec       q    Type
REMARK                         _______ _______ _______ _____ _____    ______ ____
ROOT
ATOM      1  C   UNL     1      34.175 -21.954 -18.508  0.00  0.00    +0.139 C 
ATOM      2  C   UNL     1      35.389 -21.404 -18.918  0.00  0.00    +0.037 C 
ATOM      3  C   UNL     1      32.975 -21.430 -18.989  0.00  0.00    +0.037 C 
ATOM      4  C   UNL     1      34.204 -19.807 -20.290  0.00  0.00    +0.000 C 
ATOM      5  C   UNL     1      35.404 -20.331 -19.808  0.00  0.00    +0.003 C 
ATOM      6  C   UNL     1      32.989 -20.357 -19.880  0.00  0.00    +0.003 C 
ENDROOT
BRANCH   4   7
ATOM      7  C   UNL     1      34.221 -18.696 -21.214  0.00  0.00    +0.000 C 
ATOM      8  C   UNL     1      34.626 -17.432 -20.782  0.00  0.00    +0.000 C 
ATOM      9  C   UNL     1      33.832 -18.886 -22.540  0.00  0.00    +0.000 C 
ATOM     10  C   UNL     1      34.255 -16.552 -23.001  0.00  0.00    +0.031 C 
ATOM     11  C   UNL     1      34.643 -16.361 -21.675  0.00  0.00    +0.003 C 
ATOM     12  C   UNL     1      33.849 -17.815 -23.433  0.00  0.00    +0.003 C 
BRANCH  10  14
ATOM     13  N   UNL     1      34.024 -15.677 -25.290  0.00  0.00    -0.385 N 
ATOM     14  C   UNL     1      34.273 -15.436 -23.932  0.00  0.00    +0.129 C 
ATOM     15  H   UNL     1      34.031 -14.932 -25.932  0.00  0.00    +0.157 HD
ATOM     16  H   UNL     1      33.839 -16.593 -25.601  0.00  0.00    +0.157 HD
BRANCH  14  17
ATOM     17  N   UNL     1      34.541 -14.231 -23.450  0.00  0.00    -0.126 NA
BRANCH  17  19
ATOM     18  O   UNL     1      32.732 -12.947 -24.142  0.00  0.00    -0.224 OA
ATOM     19  C   UNL     1      33.561 -13.279 -23.302  0.00  0.00    +0.427 C 
BRANCH  19  20
ATOM     20  O   UNL     1      33.621 -12.768 -22.034  0.00  0.00    -0.429 OA
ATOM     21  C   UNL     1      32.510 -13.074 -21.184  0.00  0.00    +0.257 C 
ENDBRANCH  19  20
ENDBRANCH  17  19
ENDBRANCH  14  17
ENDBRANCH  10  14
ENDBRANCH   4   7
BRANCH   1  22
ATOM     22  O   UNL     1      34.161 -23.009 -17.630  0.00  0.00    -0.474 OA
BRANCH  22  23
ATOM     23  C   UNL     1      33.441 -22.832 -16.423  0.00  0.00    +0.225 C 
BRANCH  23  27
ATOM     24  O   UNL     1      33.867 -24.087 -12.238  0.00  0.00    -0.275 OA
ATOM     25  N   UNL     1      33.822 -22.569 -14.020  0.00  0.00    -0.302 N 
ATOM     26  C   UNL     1      35.162 -24.469 -14.276  0.00  0.00    +0.089 C 
ATOM     27  C   UNL     1      34.419 -22.436 -15.325  0.00  0.00    +0.116 C 
ATOM     28  C   UNL     1      35.622 -23.369 -15.238  0.00  0.00    +0.033 C 
ATOM     29  C   UNL     1      34.224 -23.721 -13.347  0.00  0.00    +0.223 C 
ATOM     30  H   UNL     1      33.193 -21.912 -13.641  0.00  0.00    +0.149 HD
BRANCH  26  31
ATOM     31  C   UNL     1      36.308 -25.139 -13.540  0.00  0.00    +0.119 C 
BRANCH  31  33
ATOM     32  O   UNL     1      38.280 -23.803 -14.025  0.00  0.00    -0.250 OA
ATOM     33  C   UNL     1      37.428 -24.174 -13.229  0.00  0.00    +0.318 C 
BRANCH  33  34
ATOM     34  O   UNL     1      37.329 -23.787 -11.923  0.00  0.00    -0.444 OA
ATOM     35  C   UNL     1      37.084 -22.393 -11.710  0.00  0.00    +0.256 C 
ENDBRANCH  33  34
ENDBRANCH  31  33
ENDBRANCH  26  31
ENDBRANCH  23  27
ENDBRANCH  22  23
ENDBRANCH   1  22
TORSDOF 11
ENDMDL
MODEL 6
REMARK VINA RESULT:     -11.3      2.352      4.104
REMARK  Name = 132881
REMARK  11 active torsions:
REMARK  status: ('A' for Active; 'I' for Inactive)
REMARK    1  A    between atoms: C_1  and  O_22
REMARK    2  A    between atoms: C_4  and  C_7
REMARK    3  A    between atoms: C_10  and  C_15
REMARK    4  A    between atoms: N_14  and  C_15
REMARK    5  A    between atoms: N_14  and  C_19
REMARK    6  A    between atoms: C_19  and  O_20
REMARK    7  A    between atoms: O_22  and  C_23
REMARK    8  A    between atoms: C_23  and  C_27
REMARK    9  A    between atoms: C_26  and  C_31
REMARK   10  A    between atoms: C_31  and  C_33
REMARK   11  A    between atoms: C_33  and  O_34
REMARK                            x       y       z     vdW  Elec       q    Type
REMARK                         _______ _______ _______ _____ _____    ______ ____
ROOT
ATOM      1  C   UNL     1      34.198 -21.997 -18.306  0.00  0.00    +0.139 C 
ATOM      2  C   UNL     1      33.007 -21.523 -18.854  0.00  0.00    +0.037 C 
ATOM      3  C   UNL     1      35.414 -21.421 -18.674  0.00  0.00    +0.037 C 
ATOM      4  C   UNL     1      34.247 -19.893 -20.138  0.00  0.00    +0.000 C 
ATOM      5  C   UNL     1      33.031 -20.471 -19.770  0.00  0.00    +0.003 C 
ATOM      6  C   UNL     1      35.438 -20.369 -19.590  0.00  0.00    +0.003 C 
ENDROOT
BRANCH   4   7
ATOM      7  C   UNL     1      34.270 -18.802 -21.086  0.00  0.00    +0.000 C 
ATOM      8  C   UNL     1      34.719 -17.541 -20.691  0.00  0.00    +0.000 C 
ATOM      9  C   UNL     1      33.844 -19.010 -22.398  0.00  0.00    +0.000 C 
ATOM     10  C   UNL     1      34.317 -16.699 -22.919  0.00  0.00    +0.031 C 
ATOM     11  C   UNL     1      34.743 -16.490 -21.607  0.00  0.00    +0.003 C 
ATOM     12  C   UNL     1      33.867 -17.959 -23.314  0.00  0.00    +0.003 C 
BRANCH  10  14
ATOM     13  N   UNL     1      34.172 -15.883 -25.237  0.00  0.00    -0.385 N 
ATOM     14  C   UNL     1      34.341 -15.603 -23.874  0.00  0.00    +0.129 C 
ATOM     15  H   UNL     1      34.185 -15.152 -25.895  0.00  0.00    +0.157 HD
ATOM     16  H   UNL     1      34.038 -16.813 -25.535  0.00  0.00    +0.157 HD
BRANCH  14  17
ATOM     17  N   UNL     1      34.538 -14.378 -23.408  0.00  0.00    -0.126 NA
BRANCH  17  19
ATOM     18  O   UNL     1      32.758 -13.134 -24.232  0.00  0.00    -0.224 OA
ATOM     19  C   UNL     1      33.517 -13.464 -23.327  0.00  0.00    +0.427 C 
BRANCH  19  20
ATOM     20  O   UNL     1      33.441 -12.989 -22.047  0.00  0.00    -0.429 OA
ATOM     21  C   UNL     1      32.190 -12.400 -21.672  0.00  0.00    +0.257 C 
ENDBRANCH  19  20
ENDBRANCH  17  19
ENDBRANCH  14  17
ENDBRANCH  10  14
ENDBRANCH   4   7
BRANCH   1  22
ATOM     22  O   UNL     1      34.174 -23.034 -17.406  0.00  0.00    -0.474 OA
BRANCH  22  23
ATOM     23  C   UNL     1      33.998 -22.696 -16.042  0.00  0.00    +0.225 C 
BRANCH  23  27
ATOM     24  O   UNL     1      31.615 -22.581 -12.356  0.00  0.00    -0.275 OA
ATOM     25  N   UNL     1      32.992 -23.553 -13.981  0.00  0.00    -0.302 N 
ATOM     26  C   UNL     1      31.085 -22.429 -14.737  0.00  0.00    +0.089 C 
ATOM     27  C   UNL     1      33.022 -23.683 -15.417  0.00  0.00    +0.116 C 
ATOM     28  C   UNL     1      31.572 -23.414 -15.806  0.00  0.00    +0.033 C 
ATOM     29  C   UNL     1      31.883 -22.849 -13.517  0.00  0.00    +0.223 C 
ATOM     30  H   UNL     1      33.685 -23.924 -13.388  0.00  0.00    +0.149 HD
BRANCH  26  31
ATOM     31  C   UNL     1      29.586 -22.487 -14.509  0.00  0.00    +0.119 C 
BRANCH  31  33
ATOM     32  O   UNL     1      28.706 -21.981 -16.718  0.00  0.00    -0.250 OA
ATOM     33  C   UNL     1      28.825 -22.764 -15.785  0.00  0.00    +0.318 C 
BRANCH  33  34
ATOM     34  O   UNL     1      28.298 -24.022 -15.722  0.00  0.00    -0.444 OA
ATOM     35  C   UNL     1      28.504 -24.717 -14.487  0.00  0.00    +0.256 C 
ENDBRANCH  33  34
ENDBRANCH  31  33
ENDBRANCH  26  31
ENDBRANCH  23  27
ENDBRANCH  22  23
ENDBRANCH   1  22
TORSDOF 11
ENDMDL
MODEL 7
REMARK VINA RESULT:     -11.1      3.881      7.315
REMARK  Name = 132881
REMARK  11 active torsions:
REMARK  status: ('A' for Active; 'I' for Inactive)
REMARK    1  A    between atoms: C_1  and  O_22
REMARK    2  A    between atoms: C_4  and  C_7
REMARK    3  A    between atoms: C_10  and  C_15
REMARK    4  A    between atoms: N_14  and  C_15
REMARK    5  A    between atoms: N_14  and  C_19
REMARK    6  A    between atoms: C_19  and  O_20
REMARK    7  A    between atoms: O_22  and  C_23
REMARK    8  A    between atoms: C_23  and  C_27
REMARK    9  A    between atoms: C_26  and  C_31
REMARK   10  A    between atoms: C_31  and  C_33
REMARK   11  A    between atoms: C_33  and  O_34
REMARK                            x       y       z     vdW  Elec       q    Type
REMARK                         _______ _______ _______ _____ _____    ______ ____
ROOT
ATOM      1  C   UNL     1      34.410 -15.609 -22.151  0.00  0.00    +0.139 C 
ATOM      2  C   UNL     1      34.046 -14.993 -20.953  0.00  0.00    +0.037 C 
ATOM      3  C   UNL     1      34.184 -14.961 -23.365  0.00  0.00    +0.037 C 
ATOM      4  C   UNL     1      33.231 -13.081 -22.185  0.00  0.00    +0.000 C 
ATOM      5  C   UNL     1      33.456 -13.730 -20.970  0.00  0.00    +0.003 C 
ATOM      6  C   UNL     1      33.595 -13.697 -23.383  0.00  0.00    +0.003 C 
ENDROOT
BRANCH   4   7
ATOM      7  C   UNL     1      32.621 -11.770 -22.201  0.00  0.00    +0.000 C 
ATOM      8  C   UNL     1      32.982 -10.842 -23.179  0.00  0.00    +0.000 C 
ATOM      9  C   UNL     1      31.669 -11.433 -21.239  0.00  0.00    +0.000 C 
ATOM     10  C   UNL     1      31.439  -9.242 -22.232  0.00  0.00    +0.031 C 
ATOM     11  C   UNL     1      32.392  -9.579 -23.195  0.00  0.00    +0.003 C 
ATOM     12  C   UNL     1      31.079 -10.170 -21.255  0.00  0.00    +0.003 C 
BRANCH  10  14
ATOM     13  N   UNL     1      30.093  -7.528 -23.376  0.00  0.00    -0.385 N 
ATOM     14  C   UNL     1      30.824  -7.926 -22.248  0.00  0.00    +0.129 C 
ATOM     15  H   UNL     1      29.670  -6.640 -23.401  0.00  0.00    +0.157 HD
ATOM     16  H   UNL     1      30.003  -8.139 -24.143  0.00  0.00    +0.157 HD
BRANCH  14  17
ATOM     17  N   UNL     1      30.996  -7.148 -21.188  0.00  0.00    -0.126 NA
BRANCH  17  19
ATOM     18  O   UNL     1      32.807  -6.593 -19.843  0.00  0.00    -0.224 OA
ATOM     19  C   UNL     1      32.207  -6.562 -20.913  0.00  0.00    +0.427 C 
BRANCH  19  20
ATOM     20  O   UNL     1      32.678  -5.954 -22.043  0.00  0.00    -0.429 OA
ATOM     21  C   UNL     1      34.010  -6.306 -22.433  0.00  0.00    +0.257 C 
ENDBRANCH  19  20
ENDBRANCH  17  19
ENDBRANCH  14  17
ENDBRANCH  10  14
ENDBRANCH   4   7
BRANCH   1  22
ATOM     22  O   UNL     1      34.989 -16.854 -22.133  0.00  0.00    -0.474 OA
BRANCH  22  23
ATOM     23  C   UNL     1      34.798 -17.635 -20.967  0.00  0.00    +0.225 C 
BRANCH  23  27
ATOM     24  O   UNL     1      36.190 -20.832 -18.301  0.00  0.00    -0.275 OA
ATOM     25  N   UNL     1      36.231 -19.465 -20.200  0.00  0.00    -0.302 N 
ATOM     26  C   UNL     1      34.202 -20.509 -19.685  0.00  0.00    +0.089 C 
ATOM     27  C   UNL     1      35.317 -19.042 -21.232  0.00  0.00    +0.116 C 
ATOM     28  C   UNL     1      34.223 -20.102 -21.163  0.00  0.00    +0.033 C 
ATOM     29  C   UNL     1      35.653 -20.333 -19.277  0.00  0.00    +0.223 C 
ATOM     30  H   UNL     1      37.170 -19.171 -20.153  0.00  0.00    +0.149 HD
BRANCH  26  31
ATOM     31  C   UNL     1      33.694 -21.921 -19.461  0.00  0.00    +0.119 C 
BRANCH  31  33
ATOM     32  O   UNL     1      31.692 -21.718 -18.098  0.00  0.00    -0.250 OA
ATOM     33  C   UNL     1      32.869 -22.037 -18.200  0.00  0.00    +0.318 C 
BRANCH  33  34
ATOM     34  O   UNL     1      33.649 -22.552 -17.205  0.00  0.00    -0.444 OA
ATOM     35  C   UNL     1      32.944 -23.026 -16.052  0.00  0.00    +0.256 C 
ENDBRANCH  33  34
ENDBRANCH  31  33
ENDBRANCH  26  31
ENDBRANCH  23  27
ENDBRANCH  22  23
ENDBRANCH   1  22
TORSDOF 11
ENDMDL
MODEL 8
REMARK VINA RESULT:     -11.1      5.210     14.730
REMARK  Name = 132881
REMARK  11 active torsions:
REMARK  status: ('A' for Active; 'I' for Inactive)
REMARK    1  A    between atoms: C_1  and  O_22
REMARK    2  A    between atoms: C_4  and  C_7
REMARK    3  A    between atoms: C_10  and  C_15
REMARK    4  A    between atoms: N_14  and  C_15
REMARK    5  A    between atoms: N_14  and  C_19
REMARK    6  A    between atoms: C_19  and  O_20
REMARK    7  A    between atoms: O_22  and  C_23
REMARK    8  A    between atoms: C_23  and  C_27
REMARK    9  A    between atoms: C_26  and  C_31
REMARK   10  A    between atoms: C_31  and  C_33
REMARK   11  A    between atoms: C_33  and  O_34
REMARK                            x       y       z     vdW  Elec       q    Type
REMARK                         _______ _______ _______ _____ _____    ______ ____
ROOT
ATOM      1  C   UNL     1      31.477 -10.545 -22.222  0.00  0.00    +0.139 C 
ATOM      2  C   UNL     1      32.362 -10.905 -23.238  0.00  0.00    +0.037 C 
ATOM      3  C   UNL     1      31.258 -11.407 -21.149  0.00  0.00    +0.037 C 
ATOM      4  C   UNL     1      32.811 -12.992 -22.105  0.00  0.00    +0.000 C 
ATOM      5  C   UNL     1      33.029 -12.129 -23.179  0.00  0.00    +0.003 C 
ATOM      6  C   UNL     1      31.925 -12.631 -21.089  0.00  0.00    +0.003 C 
ENDROOT
BRANCH   4   7
ATOM      7  C   UNL     1      33.504 -14.259 -22.045  0.00  0.00    +0.000 C 
ATOM      8  C   UNL     1      33.776 -14.850 -20.810  0.00  0.00    +0.000 C 
ATOM      9  C   UNL     1      33.900 -14.893 -23.222  0.00  0.00    +0.000 C 
ATOM     10  C   UNL     1      34.839 -16.707 -21.931  0.00  0.00    +0.031 C 
ATOM     11  C   UNL     1      34.443 -16.074 -20.753  0.00  0.00    +0.003 C 
ATOM     12  C   UNL     1      34.568 -16.116 -23.165  0.00  0.00    +0.003 C 
BRANCH  10  14
ATOM     13  N   UNL     1      36.936 -17.995 -21.877  0.00  0.00    -0.385 N 
ATOM     14  C   UNL     1      35.534 -17.982 -21.873  0.00  0.00    +0.129 C 
ATOM     15  H   UNL     1      37.421 -18.850 -21.837  0.00  0.00    +0.157 HD
ATOM     16  H   UNL     1      37.435 -17.147 -21.919  0.00  0.00    +0.157 HD
BRANCH  14  17
ATOM     17  N   UNL     1      34.803 -19.087 -21.832  0.00  0.00    -0.126 NA
BRANCH  17  19
ATOM     18  O   UNL     1      33.315 -19.998 -20.297  0.00  0.00    -0.224 OA
ATOM     19  C   UNL     1      34.447 -19.672 -20.642  0.00  0.00    +0.427 C 
BRANCH  19  20
ATOM     20  O   UNL     1      35.570 -19.880 -19.891  0.00  0.00    -0.429 OA
ATOM     21  C   UNL     1      35.585 -21.078 -19.107  0.00  0.00    +0.257 C 
ENDBRANCH  19  20
ENDBRANCH  17  19
ENDBRANCH  14  17
ENDBRANCH  10  14
ENDBRANCH   4   7
BRANCH   1  22
ATOM     22  O   UNL     1      30.819  -9.341 -22.281  0.00  0.00    -0.474 OA
BRANCH  22  23
ATOM     23  C   UNL     1      31.613  -8.185 -22.484  0.00  0.00    +0.225 C 
BRANCH  23  27
ATOM     24  O   UNL     1      32.379  -3.967 -23.430  0.00  0.00    -0.275 OA
ATOM     25  N   UNL     1      31.157  -5.783 -22.600  0.00  0.00    -0.302 N 
ATOM     26  C   UNL     1      32.008  -5.977 -24.770  0.00  0.00    +0.089 C 
ATOM     27  C   UNL     1      30.732  -7.083 -23.056  0.00  0.00    +0.116 C 
ATOM     28  C   UNL     1      30.846  -6.958 -24.572  0.00  0.00    +0.033 C 
ATOM     29  C   UNL     1      31.889  -5.079 -23.553  0.00  0.00    +0.223 C 
ATOM     30  H   UNL     1      30.950  -5.427 -21.705  0.00  0.00    +0.149 HD
BRANCH  26  31
ATOM     31  C   UNL     1      31.928  -5.211 -26.078  0.00  0.00    +0.119 C 
BRANCH  31  33
ATOM     32  O   UNL     1      32.968  -5.899 -28.164  0.00  0.00    -0.250 OA
ATOM     33  C   UNL     1      33.079  -5.537 -27.001  0.00  0.00    +0.318 C 
BRANCH  33  34
ATOM     34  O   UNL     1      34.252  -5.360 -26.325  0.00  0.00    -0.444 OA
ATOM     35  C   UNL     1      35.409  -5.152 -27.143  0.00  0.00    +0.256 C 
ENDBRANCH  33  34
ENDBRANCH  31  33
ENDBRANCH  26  31
ENDBRANCH  23  27
ENDBRANCH  22  23
ENDBRANCH   1  22
TORSDOF 11
ENDMDL
MODEL 9
REMARK VINA RESULT:     -11.1      2.162     12.214
REMARK  Name = 132881
REMARK  11 active torsions:
REMARK  status: ('A' for Active; 'I' for Inactive)
REMARK    1  A    between atoms: C_1  and  O_22
REMARK    2  A    between atoms: C_4  and  C_7
REMARK    3  A    between atoms: C_10  and  C_15
REMARK    4  A    between atoms: N_14  and  C_15
REMARK    5  A    between atoms: N_14  and  C_19
REMARK    6  A    between atoms: C_19  and  O_20
REMARK    7  A    between atoms: O_22  and  C_23
REMARK    8  A    between atoms: C_23  and  C_27
REMARK    9  A    between atoms: C_26  and  C_31
REMARK   10  A    between atoms: C_31  and  C_33
REMARK   11  A    between atoms: C_33  and  O_34
REMARK                            x       y       z     vdW  Elec       q    Type
REMARK                         _______ _______ _______ _____ _____    ______ ____
ROOT
ATOM      1  C   UNL     1      34.335 -16.641 -23.529  0.00  0.00    +0.139 C 
ATOM      2  C   UNL     1      34.753 -16.336 -22.234  0.00  0.00    +0.037 C 
ATOM      3  C   UNL     1      33.876 -17.922 -23.831  0.00  0.00    +0.037 C 
ATOM      4  C   UNL     1      34.251 -18.596 -21.542  0.00  0.00    +0.000 C 
ATOM      5  C   UNL     1      34.712 -17.314 -21.240  0.00  0.00    +0.003 C 
ATOM      6  C   UNL     1      33.834 -18.900 -22.838  0.00  0.00    +0.003 C 
ENDROOT
BRANCH   4   7
ATOM      7  C   UNL     1      34.207 -19.608 -20.510  0.00  0.00    +0.000 C 
ATOM      8  C   UNL     1      35.393 -20.099 -19.960  0.00  0.00    +0.000 C 
ATOM      9  C   UNL     1      32.979 -20.094 -20.063  0.00  0.00    +0.000 C 
ATOM     10  C   UNL     1      34.120 -21.559 -18.517  0.00  0.00    +0.031 C 
ATOM     11  C   UNL     1      35.349 -21.074 -18.964  0.00  0.00    +0.003 C 
ATOM     12  C   UNL     1      32.935 -21.069 -19.067  0.00  0.00    +0.003 C 
BRANCH  10  14
ATOM     13  N   UNL     1      32.951 -23.410 -17.391  0.00  0.00    -0.385 N 
ATOM     14  C   UNL     1      34.073 -22.576 -17.479  0.00  0.00    +0.129 C 
ATOM     15  H   UNL     1      32.905 -24.103 -16.694  0.00  0.00    +0.157 HD
ATOM     16  H   UNL     1      32.207 -23.303 -18.029  0.00  0.00    +0.157 HD
BRANCH  14  17
ATOM     17  N   UNL     1      35.101 -22.658 -16.645  0.00  0.00    -0.126 NA
BRANCH  17  19
ATOM     18  O   UNL     1      34.948 -22.399 -14.341  0.00  0.00    -0.224 OA
ATOM     19  C   UNL     1      34.947 -23.094 -15.352  0.00  0.00    +0.427 C 
BRANCH  19  20
ATOM     20  O   UNL     1      34.751 -24.448 -15.356  0.00  0.00    -0.429 OA
ATOM     21  C   UNL     1      35.791 -25.231 -14.760  0.00  0.00    +0.257 C 
ENDBRANCH  19  20
ENDBRANCH  17  19
ENDBRANCH  14  17
ENDBRANCH  10  14
ENDBRANCH   4   7
BRANCH   1  22
ATOM     22  O   UNL     1      34.378 -15.678 -24.508  0.00  0.00    -0.474 OA
BRANCH  22  23
ATOM     23  C   UNL     1      34.370 -14.327 -24.081  0.00  0.00    +0.225 C 
BRANCH  23  27
ATOM     24  O   UNL     1      31.925 -12.158 -21.152  0.00  0.00    -0.275 OA
ATOM     25  N   UNL     1      32.365 -13.766 -22.794  0.00  0.00    -0.302 N 
ATOM     26  C   UNL     1      32.975 -11.559 -23.276  0.00  0.00    +0.089 C 
ATOM     27  C   UNL     1      32.938 -13.813 -24.117  0.00  0.00    +0.116 C 
ATOM     28  C   UNL     1      32.839 -12.362 -24.575  0.00  0.00    +0.033 C 
ATOM     29  C   UNL     1      32.340 -12.483 -22.253  0.00  0.00    +0.223 C 
ATOM     30  H   UNL     1      32.026 -14.560 -22.321  0.00  0.00    +0.149 HD
BRANCH  26  31
ATOM     31  C   UNL     1      32.304 -10.200 -23.340  0.00  0.00    +0.119 C 
BRANCH  31  33
ATOM     32  O   UNL     1      34.453  -9.073 -23.487  0.00  0.00    -0.250 OA
ATOM     33  C   UNL     1      33.284  -9.070 -23.126  0.00  0.00    +0.318 C 
BRANCH  33  34
ATOM     34  O   UNL     1      32.651  -8.053 -22.469  0.00  0.00    -0.444 OA
ATOM     35  C   UNL     1      31.520  -8.438 -21.680  0.00  0.00    +0.256 C 
ENDBRANCH  33  34
ENDBRANCH  31  33
ENDBRANCH  26  31
ENDBRANCH  23  27
ENDBRANCH  22  23
ENDBRANCH   1  22
TORSDOF 11
ENDMDL
