MODEL 1
REMARK VINA RESULT:     -12.1      0.000      0.000
REMARK  Name = 44177328
REMARK  2 active torsions:
REMARK  status: ('A' for Active; 'I' for Inactive)
REMARK    1  A    between atoms: N_1  and  C_15
REMARK    2  A    between atoms: C_6  and  C_23
REMARK                            x       y       z     vdW  Elec       q    Type
REMARK                         _______ _______ _______ _____ _____    ______ ____
ROOT
ATOM      1  N   UNL     1      32.437 -22.067 -18.204  0.00  0.00    -0.286 N 
ATOM      2  N   UNL     1      33.655 -22.975 -16.389  0.00  0.00    -0.386 NA
ATOM      3  N   UNL     1      31.266 -23.229 -14.941  0.00  0.00    -0.246 NA
ATOM      4  N   UNL     1      30.073 -22.317 -16.777  0.00  0.00    -0.340 N 
ATOM      5  C   UNL     1      32.467 -22.600 -16.902  0.00  0.00    +0.214 C 
ATOM      6  C   UNL     1      33.629 -23.479 -15.139  0.00  0.00    +0.135 C 
ATOM      7  C   UNL     1      31.293 -22.725 -16.192  0.00  0.00    +0.166 C 
ATOM      8  C   UNL     1      32.455 -23.603 -14.428  0.00  0.00    +0.185 C 
ATOM      9  H   UNL     1      31.597 -22.244 -18.686  0.00  0.00    +0.155 HD
ATOM     10  H   UNL     1      29.232 -22.403 -16.274  0.00  0.00    +0.144 HD
ATOM     11  H   UNL     1      30.066 -21.945 -17.689  0.00  0.00    +0.144 HD
ENDROOT
BRANCH   1  15
ATOM     12  N   UNL     1      35.928 -19.061 -21.269  0.00  0.00    -0.312 N 
ATOM     13  C   UNL     1      33.873 -19.702 -20.682  0.00  0.00    +0.016 C 
ATOM     14  C   UNL     1      35.231 -19.887 -20.415  0.00  0.00    +0.048 C 
ATOM     15  C   UNL     1      33.378 -21.327 -18.955  0.00  0.00    +0.050 C 
ATOM     16  C   UNL     1      32.929 -20.437 -19.937  0.00  0.00    +0.016 C 
ATOM     17  C   UNL     1      35.694 -20.772 -19.436  0.00  0.00    +0.016 C 
ATOM     18  C   UNL     1      34.739 -21.492 -18.710  0.00  0.00    +0.016 C 
ATOM     19  C   UNL     1      33.779 -18.738 -21.725  0.00  0.00    +0.017 C 
ATOM     20  C   UNL     1      35.059 -18.364 -22.065  0.00  0.00    +0.062 C 
ATOM     21  H   UNL     1      36.908 -18.986 -21.303  0.00  0.00    +0.152 HD
ENDBRANCH   1  15
BRANCH   6  23
ATOM     22  N   UNL     1      37.369 -24.645 -13.529  0.00  0.00    -0.242 NA
ATOM     23  C   UNL     1      34.901 -23.876 -14.592  0.00  0.00    +0.031 C 
ATOM     24  C   UNL     1      35.403 -25.148 -14.844  0.00  0.00    +0.023 C 
ATOM     25  C   UNL     1      35.632 -22.988 -13.811  0.00  0.00    +0.023 C 
ATOM     26  C   UNL     1      36.631 -25.481 -14.295  0.00  0.00    +0.099 C 
ATOM     27  C   UNL     1      36.849 -23.417 -13.307  0.00  0.00    +0.099 C 
ENDBRANCH   6  23
TORSDOF 2
ENDMDL
MODEL 2
REMARK VINA RESULT:     -11.5      1.085      1.236
REMARK  Name = 44177328
REMARK  2 active torsions:
REMARK  status: ('A' for Active; 'I' for Inactive)
REMARK    1  A    between atoms: N_1  and  C_15
REMARK    2  A    between atoms: C_6  and  C_23
REMARK                            x       y       z     vdW  Elec       q    Type
REMARK                         _______ _______ _______ _____ _____    ______ ____
ROOT
ATOM      1  N   UNL     1      32.815 -22.672 -17.310  0.00  0.00    -0.286 N 
ATOM      2  N   UNL     1      34.145 -23.084 -15.395  0.00  0.00    -0.386 NA
ATOM      3  N   UNL     1      31.820 -23.616 -13.920  0.00  0.00    -0.246 NA
ATOM      4  N   UNL     1      30.513 -23.199 -15.856  0.00  0.00    -0.340 N 
ATOM      5  C   UNL     1      32.918 -23.019 -15.949  0.00  0.00    +0.214 C 
ATOM      6  C   UNL     1      34.189 -23.419 -14.091  0.00  0.00    +0.135 C 
ATOM      7  C   UNL     1      31.776 -23.280 -15.226  0.00  0.00    +0.166 C 
ATOM      8  C   UNL     1      33.046 -23.680 -13.367  0.00  0.00    +0.185 C 
ATOM      9  H   UNL     1      32.037 -23.072 -17.762  0.00  0.00    +0.155 HD
ATOM     10  H   UNL     1      29.694 -23.385 -15.343  0.00  0.00    +0.144 HD
ATOM     11  H   UNL     1      30.454 -22.956 -16.808  0.00  0.00    +0.144 HD
ENDROOT
BRANCH   1  15
ATOM     12  N   UNL     1      35.715 -19.436 -20.733  0.00  0.00    -0.312 N 
ATOM     13  C   UNL     1      33.798 -20.319 -20.009  0.00  0.00    +0.016 C 
ATOM     14  C   UNL     1      35.178 -20.286 -19.792  0.00  0.00    +0.048 C 
ATOM     15  C   UNL     1      33.610 -21.864 -18.153  0.00  0.00    +0.050 C 
ATOM     16  C   UNL     1      33.000 -21.124 -19.172  0.00  0.00    +0.016 C 
ATOM     17  C   UNL     1      35.800 -21.020 -18.777  0.00  0.00    +0.016 C 
ATOM     18  C   UNL     1      34.988 -21.812 -17.960  0.00  0.00    +0.016 C 
ATOM     19  C   UNL     1      33.528 -19.460 -21.111  0.00  0.00    +0.017 C 
ATOM     20  C   UNL     1      34.726 -18.932 -21.534  0.00  0.00    +0.062 C 
ATOM     21  H   UNL     1      36.672 -19.223 -20.817  0.00  0.00    +0.152 HD
ENDBRANCH   1  15
BRANCH   6  23
ATOM     22  N   UNL     1      38.047 -23.610 -12.353  0.00  0.00    -0.242 NA
ATOM     23  C   UNL     1      35.501 -23.484 -13.500  0.00  0.00    +0.031 C 
ATOM     24  C   UNL     1      36.564 -24.023 -14.217  0.00  0.00    +0.023 C 
ATOM     25  C   UNL     1      35.711 -23.007 -12.211  0.00  0.00    +0.023 C 
ATOM     26  C   UNL     1      37.806 -24.063 -13.604  0.00  0.00    +0.099 C 
ATOM     27  C   UNL     1      36.991 -23.093 -11.687  0.00  0.00    +0.099 C 
ENDBRANCH   6  23
TORSDOF 2
ENDMDL
MODEL 3
REMARK VINA RESULT:     -11.0      1.181      1.740
REMARK  Name = 44177328
REMARK  2 active torsions:
REMARK  status: ('A' for Active; 'I' for Inactive)
REMARK    1  A    between atoms: N_1  and  C_15
REMARK    2  A    between atoms: C_6  and  C_23
REMARK                            x       y       z     vdW  Elec       q    Type
REMARK                         _______ _______ _______ _____ _____    ______ ____
ROOT
ATOM      1  N   UNL     1      32.001 -22.574 -17.524  0.00  0.00    -0.286 N 
ATOM      2  N   UNL     1      33.556 -22.957 -15.781  0.00  0.00    -0.386 NA
ATOM      3  N   UNL     1      31.441 -23.652 -14.076  0.00  0.00    -0.246 NA
ATOM      4  N   UNL     1      29.906 -23.261 -15.842  0.00  0.00    -0.340 N 
ATOM      5  C   UNL     1      32.273 -22.946 -16.195  0.00  0.00    +0.214 C 
ATOM      6  C   UNL     1      33.763 -23.321 -14.501  0.00  0.00    +0.135 C 
ATOM      7  C   UNL     1      31.234 -23.288 -15.358  0.00  0.00    +0.166 C 
ATOM      8  C   UNL     1      32.723 -23.663 -13.663  0.00  0.00    +0.185 C 
ATOM      9  H   UNL     1      31.199 -23.004 -17.900  0.00  0.00    +0.155 HD
ATOM     10  H   UNL     1      29.160 -23.504 -15.249  0.00  0.00    +0.144 HD
ATOM     11  H   UNL     1      29.729 -22.999 -16.775  0.00  0.00    +0.144 HD
ENDROOT
BRANCH   1  15
ATOM     12  N   UNL     1      34.778 -19.255 -20.972  0.00  0.00    -0.312 N 
ATOM     13  C   UNL     1      34.695 -20.825 -19.388  0.00  0.00    +0.016 C 
ATOM     14  C   UNL     1      33.914 -19.994 -20.194  0.00  0.00    +0.048 C 
ATOM     15  C   UNL     1      32.653 -21.703 -18.425  0.00  0.00    +0.050 C 
ATOM     16  C   UNL     1      34.051 -21.695 -18.486  0.00  0.00    +0.016 C 
ATOM     17  C   UNL     1      32.516 -19.992 -20.145  0.00  0.00    +0.016 C 
ATOM     18  C   UNL     1      31.899 -20.863 -19.242  0.00  0.00    +0.016 C 
ATOM     19  C   UNL     1      36.056 -20.558 -19.708  0.00  0.00    +0.017 C 
ATOM     20  C   UNL     1      36.074 -19.589 -20.684  0.00  0.00    +0.062 C 
ATOM     21  H   UNL     1      34.502 -18.583 -21.636  0.00  0.00    +0.152 HD
ENDBRANCH   1  15
BRANCH   6  23
ATOM     22  N   UNL     1      37.796 -23.342 -13.205  0.00  0.00    -0.242 NA
ATOM     23  C   UNL     1      35.134 -23.328 -14.061  0.00  0.00    +0.031 C 
ATOM     24  C   UNL     1      36.164 -23.472 -14.984  0.00  0.00    +0.023 C 
ATOM     25  C   UNL     1      35.434 -23.190 -12.709  0.00  0.00    +0.023 C 
ATOM     26  C   UNL     1      37.465 -23.473 -14.510  0.00  0.00    +0.099 C 
ATOM     27  C   UNL     1      36.769 -23.204 -12.337  0.00  0.00    +0.099 C 
ENDBRANCH   6  23
TORSDOF 2
ENDMDL
MODEL 4
REMARK VINA RESULT:     -11.0      1.488      4.046
REMARK  Name = 44177328
REMARK  2 active torsions:
REMARK  status: ('A' for Active; 'I' for Inactive)
REMARK    1  A    between atoms: N_1  and  C_15
REMARK    2  A    between atoms: C_6  and  C_23
REMARK                            x       y       z     vdW  Elec       q    Type
REMARK                         _______ _______ _______ _____ _____    ______ ____
ROOT
ATOM      1  N   UNL     1      36.218 -21.522 -17.031  0.00  0.00    -0.286 N 
ATOM      2  N   UNL     1      34.383 -22.416 -15.830  0.00  0.00    -0.386 NA
ATOM      3  N   UNL     1      36.147 -24.067 -14.406  0.00  0.00    -0.246 NA
ATOM      4  N   UNL     1      37.965 -23.152 -15.624  0.00  0.00    -0.340 N 
ATOM      5  C   UNL     1      35.712 -22.399 -16.052  0.00  0.00    +0.214 C 
ATOM      6  C   UNL     1      33.951 -23.272 -14.884  0.00  0.00    +0.135 C 
ATOM      7  C   UNL     1      36.579 -23.210 -15.353  0.00  0.00    +0.166 C 
ATOM      8  C   UNL     1      34.818 -24.083 -14.185  0.00  0.00    +0.185 C 
ATOM      9  H   UNL     1      37.131 -21.207 -16.845  0.00  0.00    +0.155 HD
ATOM     10  H   UNL     1      38.589 -23.729 -15.128  0.00  0.00    +0.144 HD
ATOM     11  H   UNL     1      38.306 -22.535 -16.311  0.00  0.00    +0.144 HD
ENDROOT
BRANCH   1  15
ATOM     12  N   UNL     1      34.278 -19.359 -21.739  0.00  0.00    -0.312 N 
ATOM     13  C   UNL     1      35.832 -19.540 -20.148  0.00  0.00    +0.016 C 
ATOM     14  C   UNL     1      34.583 -20.008 -20.563  0.00  0.00    +0.048 C 
ATOM     15  C   UNL     1      35.669 -21.006 -18.226  0.00  0.00    +0.050 C 
ATOM     16  C   UNL     1      36.385 -20.050 -18.956  0.00  0.00    +0.016 C 
ATOM     17  C   UNL     1      33.858 -20.965 -19.845  0.00  0.00    +0.016 C 
ATOM     18  C   UNL     1      34.426 -21.455 -18.665  0.00  0.00    +0.016 C 
ATOM     19  C   UNL     1      36.265 -18.589 -21.114  0.00  0.00    +0.017 C 
ATOM     20  C   UNL     1      35.288 -18.499 -22.079  0.00  0.00    +0.062 C 
ATOM     21  H   UNL     1      33.453 -19.493 -22.258  0.00  0.00    +0.152 HD
ENDBRANCH   1  15
BRANCH   6  23
ATOM     22  N   UNL     1      29.771 -23.325 -14.202  0.00  0.00    -0.242 NA
ATOM     23  C   UNL     1      32.529 -23.290 -14.652  0.00  0.00    +0.031 C 
ATOM     24  C   UNL     1      32.023 -23.798 -13.461  0.00  0.00    +0.023 C 
ATOM     25  C   UNL     1      31.658 -22.798 -15.618  0.00  0.00    +0.023 C 
ATOM     26  C   UNL     1      30.649 -23.793 -13.286  0.00  0.00    +0.099 C 
ATOM     27  C   UNL     1      30.300 -22.838 -15.347  0.00  0.00    +0.099 C 
ENDBRANCH   6  23
TORSDOF 2
ENDMDL
MODEL 5
REMARK VINA RESULT:     -10.8      1.439      6.802
REMARK  Name = 44177328
REMARK  2 active torsions:
REMARK  status: ('A' for Active; 'I' for Inactive)
REMARK    1  A    between atoms: N_1  and  C_15
REMARK    2  A    between atoms: C_6  and  C_23
REMARK                            x       y       z     vdW  Elec       q    Type
REMARK                         _______ _______ _______ _____ _____    ______ ____
ROOT
ATOM      1  N   UNL     1      33.994 -24.101 -14.144  0.00  0.00    -0.286 N 
ATOM      2  N   UNL     1      33.711 -22.887 -16.156  0.00  0.00    -0.386 NA
ATOM      3  N   UNL     1      30.929 -23.058 -15.844  0.00  0.00    -0.246 NA
ATOM      4  N   UNL     1      31.244 -24.272 -13.830  0.00  0.00    -0.340 N 
ATOM      5  C   UNL     1      33.149 -23.516 -15.106  0.00  0.00    +0.214 C 
ATOM      6  C   UNL     1      32.859 -22.344 -17.048  0.00  0.00    +0.135 C 
ATOM      7  C   UNL     1      31.783 -23.600 -14.951  0.00  0.00    +0.166 C 
ATOM      8  C   UNL     1      31.493 -22.429 -16.894  0.00  0.00    +0.185 C 
ATOM      9  H   UNL     1      33.610 -24.118 -13.238  0.00  0.00    +0.155 HD
ATOM     10  H   UNL     1      30.269 -24.335 -13.715  0.00  0.00    +0.144 HD
ATOM     11  H   UNL     1      31.846 -24.677 -13.164  0.00  0.00    +0.144 HD
ENDROOT
BRANCH   1  15
ATOM     12  N   UNL     1      39.139 -26.125 -14.322  0.00  0.00    -0.312 N 
ATOM     13  C   UNL     1      37.648 -24.588 -13.696  0.00  0.00    +0.016 C 
ATOM     14  C   UNL     1      37.806 -25.790 -14.391  0.00  0.00    +0.048 C 
ATOM     15  C   UNL     1      35.285 -24.667 -14.225  0.00  0.00    +0.050 C 
ATOM     16  C   UNL     1      36.362 -24.017 -13.612  0.00  0.00    +0.016 C 
ATOM     17  C   UNL     1      36.738 -26.451 -15.007  0.00  0.00    +0.016 C 
ATOM     18  C   UNL     1      35.472 -25.865 -14.911  0.00  0.00    +0.016 C 
ATOM     19  C   UNL     1      38.933 -24.215 -13.209  0.00  0.00    +0.017 C 
ATOM     20  C   UNL     1      39.828 -25.180 -13.611  0.00  0.00    +0.062 C 
ATOM     21  H   UNL     1      39.539 -26.928 -14.727  0.00  0.00    +0.152 HD
ENDBRANCH   1  15
BRANCH   6  23
ATOM     22  N   UNL     1      34.635 -20.375 -20.351  0.00  0.00    -0.242 NA
ATOM     23  C   UNL     1      33.463 -21.675 -18.171  0.00  0.00    +0.031 C 
ATOM     24  C   UNL     1      34.843 -21.699 -18.339  0.00  0.00    +0.023 C 
ATOM     25  C   UNL     1      32.668 -21.002 -19.093  0.00  0.00    +0.023 C 
ATOM     26  C   UNL     1      35.375 -21.040 -19.436  0.00  0.00    +0.099 C 
ATOM     27  C   UNL     1      33.297 -20.374 -20.156  0.00  0.00    +0.099 C 
ENDBRANCH   6  23
TORSDOF 2
ENDMDL
MODEL 6
REMARK VINA RESULT:     -10.8      1.823      6.871
REMARK  Name = 44177328
REMARK  2 active torsions:
REMARK  status: ('A' for Active; 'I' for Inactive)
REMARK    1  A    between atoms: N_1  and  C_15
REMARK    2  A    between atoms: C_6  and  C_23
REMARK                            x       y       z     vdW  Elec       q    Type
REMARK                         _______ _______ _______ _____ _____    ______ ____
ROOT
ATOM      1  N   UNL     1      33.976 -23.937 -14.500  0.00  0.00    -0.286 N 
ATOM      2  N   UNL     1      34.575 -22.606 -16.364  0.00  0.00    -0.386 NA
ATOM      3  N   UNL     1      37.116 -22.215 -15.241  0.00  0.00    -0.246 NA
ATOM      4  N   UNL     1      36.487 -23.554 -13.386  0.00  0.00    -0.340 N 
ATOM      5  C   UNL     1      34.924 -23.151 -15.181  0.00  0.00    +0.214 C 
ATOM      6  C   UNL     1      35.518 -21.863 -16.975  0.00  0.00    +0.135 C 
ATOM      7  C   UNL     1      36.172 -22.959 -14.629  0.00  0.00    +0.166 C 
ATOM      8  C   UNL     1      36.766 -21.671 -16.423  0.00  0.00    +0.185 C 
ATOM      9  H   UNL     1      34.375 -24.648 -13.948  0.00  0.00    +0.155 HD
ATOM     10  H   UNL     1      37.377 -23.420 -12.987  0.00  0.00    +0.144 HD
ATOM     11  H   UNL     1      35.815 -24.102 -12.919  0.00  0.00    +0.144 HD
ENDROOT
BRANCH   1  15
ATOM     12  N   UNL     1      28.451 -23.668 -14.527  0.00  0.00    -0.312 N 
ATOM     13  C   UNL     1      30.452 -23.151 -15.367  0.00  0.00    +0.016 C 
ATOM     14  C   UNL     1      29.803 -23.856 -14.350  0.00  0.00    +0.048 C 
ATOM     15  C   UNL     1      32.565 -23.906 -14.454  0.00  0.00    +0.050 C 
ATOM     16  C   UNL     1      31.860 -23.178 -15.419  0.00  0.00    +0.016 C 
ATOM     17  C   UNL     1      30.495 -24.589 -13.380  0.00  0.00    +0.016 C 
ATOM     18  C   UNL     1      31.892 -24.600 -13.451  0.00  0.00    +0.016 C 
ATOM     19  C   UNL     1      29.442 -22.535 -16.158  0.00  0.00    +0.017 C 
ATOM     20  C   UNL     1      28.223 -22.871 -15.616  0.00  0.00    +0.062 C 
ATOM     21  H   UNL     1      27.750 -24.051 -13.952  0.00  0.00    +0.152 HD
ENDBRANCH   1  15
BRANCH   6  23
ATOM     22  N   UNL     1      34.408 -20.147 -20.685  0.00  0.00    -0.242 NA
ATOM     23  C   UNL     1      35.141 -21.279 -18.237  0.00  0.00    +0.031 C 
ATOM     24  C   UNL     1      36.091 -20.631 -19.019  0.00  0.00    +0.023 C 
ATOM     25  C   UNL     1      33.825 -21.363 -18.679  0.00  0.00    +0.023 C 
ATOM     26  C   UNL     1      35.678 -20.087 -20.223  0.00  0.00    +0.099 C 
ATOM     27  C   UNL     1      33.513 -20.785 -19.899  0.00  0.00    +0.099 C 
ENDBRANCH   6  23
TORSDOF 2
ENDMDL
MODEL 7
REMARK VINA RESULT:     -10.7      7.480     11.840
REMARK  Name = 44177328
REMARK  2 active torsions:
REMARK  status: ('A' for Active; 'I' for Inactive)
REMARK    1  A    between atoms: N_1  and  C_15
REMARK    2  A    between atoms: C_6  and  C_23
REMARK                            x       y       z     vdW  Elec       q    Type
REMARK                         _______ _______ _______ _____ _____    ______ ____
ROOT
ATOM      1  N   UNL     1      32.600 -11.452 -24.028  0.00  0.00    -0.286 N 
ATOM      2  N   UNL     1      33.401 -13.573 -23.344  0.00  0.00    -0.386 NA
ATOM      3  N   UNL     1      32.999 -14.540 -25.946  0.00  0.00    -0.246 NA
ATOM      4  N   UNL     1      32.203 -12.404 -26.602  0.00  0.00    -0.340 N 
ATOM      5  C   UNL     1      32.913 -12.791 -24.328  0.00  0.00    +0.214 C 
ATOM      6  C   UNL     1      33.684 -14.846 -23.683  0.00  0.00    +0.135 C 
ATOM      7  C   UNL     1      32.716 -13.266 -25.607  0.00  0.00    +0.166 C 
ATOM      8  C   UNL     1      33.487 -15.320 -24.962  0.00  0.00    +0.185 C 
ATOM      9  H   UNL     1      32.705 -10.841 -24.793  0.00  0.00    +0.155 HD
ATOM     10  H   UNL     1      32.060 -12.738 -27.517  0.00  0.00    +0.144 HD
ATOM     11  H   UNL     1      31.988 -11.469 -26.380  0.00  0.00    +0.144 HD
ENDROOT
BRANCH   1  15
ATOM     12  N   UNL     1      30.963  -8.733 -19.497  0.00  0.00    -0.312 N 
ATOM     13  C   UNL     1      31.829  -8.794 -21.553  0.00  0.00    +0.016 C 
ATOM     14  C   UNL     1      31.310  -9.583 -20.524  0.00  0.00    +0.048 C 
ATOM     15  C   UNL     1      32.166 -10.815 -22.845  0.00  0.00    +0.050 C 
ATOM     16  C   UNL     1      32.265  -9.423 -22.736  0.00  0.00    +0.016 C 
ATOM     17  C   UNL     1      31.203 -10.974 -20.620  0.00  0.00    +0.016 C 
ATOM     18  C   UNL     1      31.643 -11.577 -21.803  0.00  0.00    +0.016 C 
ATOM     19  C   UNL     1      31.782  -7.443 -21.107  0.00  0.00    +0.017 C 
ATOM     20  C   UNL     1      31.246  -7.438 -19.841  0.00  0.00    +0.062 C 
ATOM     21  H   UNL     1      30.571  -9.016 -18.640  0.00  0.00    +0.152 HD
ENDBRANCH   1  15
BRANCH   6  23
ATOM     22  N   UNL     1      35.207 -17.297 -20.582  0.00  0.00    -0.242 NA
ATOM     23  C   UNL     1      34.201 -15.679 -22.628  0.00  0.00    +0.031 C 
ATOM     24  C   UNL     1      34.004 -15.325 -21.298  0.00  0.00    +0.023 C 
ATOM     25  C   UNL     1      34.900 -16.841 -22.937  0.00  0.00    +0.023 C 
ATOM     26  C   UNL     1      34.522 -16.160 -20.322  0.00  0.00    +0.099 C 
ATOM     27  C   UNL     1      35.378 -17.609 -21.887  0.00  0.00    +0.099 C 
ENDBRANCH   6  23
TORSDOF 2
ENDMDL
MODEL 8
REMARK VINA RESULT:     -10.5      2.345      5.251
REMARK  Name = 44177328
REMARK  2 active torsions:
REMARK  status: ('A' for Active; 'I' for Inactive)
REMARK    1  A    between atoms: N_1  and  C_15
REMARK    2  A    between atoms: C_6  and  C_23
REMARK                            x       y       z     vdW  Elec       q    Type
REMARK                         _______ _______ _______ _____ _____    ______ ____
ROOT
ATOM      1  N   UNL     1      34.192 -22.685 -14.506  0.00  0.00    -0.286 N 
ATOM      2  N   UNL     1      31.865 -23.021 -14.783  0.00  0.00    -0.386 NA
ATOM      3  N   UNL     1      31.881 -24.777 -12.596  0.00  0.00    -0.246 NA
ATOM      4  N   UNL     1      34.212 -24.419 -12.343  0.00  0.00    -0.340 N 
ATOM      5  C   UNL     1      32.993 -23.300 -14.100  0.00  0.00    +0.214 C 
ATOM      6  C   UNL     1      30.745 -23.635 -14.353  0.00  0.00    +0.135 C 
ATOM      7  C   UNL     1      33.002 -24.162 -13.025  0.00  0.00    +0.166 C 
ATOM      8  C   UNL     1      30.754 -24.498 -13.279  0.00  0.00    +0.185 C 
ATOM      9  H   UNL     1      34.829 -22.535 -13.771  0.00  0.00    +0.155 HD
ATOM     10  H   UNL     1      34.224 -25.035 -11.575  0.00  0.00    +0.144 HD
ATOM     11  H   UNL     1      35.045 -23.983 -12.637  0.00  0.00    +0.144 HD
ENDROOT
BRANCH   1  15
ATOM     12  N   UNL     1      35.789 -20.982 -19.522  0.00  0.00    -0.312 N 
ATOM     13  C   UNL     1      34.254 -21.761 -18.103  0.00  0.00    +0.016 C 
ATOM     14  C   UNL     1      35.589 -21.367 -18.215  0.00  0.00    +0.048 C 
ATOM     15  C   UNL     1      34.660 -22.241 -15.763  0.00  0.00    +0.050 C 
ATOM     16  C   UNL     1      33.781 -22.206 -16.852  0.00  0.00    +0.016 C 
ATOM     17  C   UNL     1      36.478 -21.395 -17.135  0.00  0.00    +0.016 C 
ATOM     18  C   UNL     1      35.986 -21.841 -15.904  0.00  0.00    +0.016 C 
ATOM     19  C   UNL     1      33.661 -21.600 -19.387  0.00  0.00    +0.017 C 
ATOM     20  C   UNL     1      34.630 -21.120 -20.238  0.00  0.00    +0.062 C 
ATOM     21  H   UNL     1      36.643 -20.657 -19.888  0.00  0.00    +0.152 HD
ENDBRANCH   1  15
BRANCH   6  23
ATOM     22  N   UNL     1      27.207 -22.763 -16.512  0.00  0.00    -0.242 NA
ATOM     23  C   UNL     1      29.542 -23.338 -15.087  0.00  0.00    +0.031 C 
ATOM     24  C   UNL     1      28.953 -22.083 -14.985  0.00  0.00    +0.023 C 
ATOM     25  C   UNL     1      28.965 -24.306 -15.903  0.00  0.00    +0.023 C 
ATOM     26  C   UNL     1      27.797 -21.848 -15.711  0.00  0.00    +0.099 C 
ATOM     27  C   UNL     1      27.808 -23.972 -16.588  0.00  0.00    +0.099 C 
ENDBRANCH   6  23
TORSDOF 2
ENDMDL
MODEL 9
REMARK VINA RESULT:     -10.3     10.753     14.188
REMARK  Name = 44177328
REMARK  2 active torsions:
REMARK  status: ('A' for Active; 'I' for Inactive)
REMARK    1  A    between atoms: N_1  and  C_15
REMARK    2  A    between atoms: C_6  and  C_23
REMARK                            x       y       z     vdW  Elec       q    Type
REMARK                         _______ _______ _______ _____ _____    ______ ____
ROOT
ATOM      1  N   UNL     1      31.132  -8.946 -21.667  0.00  0.00    -0.286 N 
ATOM      2  N   UNL     1      31.865 -11.000 -22.588  0.00  0.00    -0.386 NA
ATOM      3  N   UNL     1      31.944 -12.103 -20.011  0.00  0.00    -0.246 NA
ATOM      4  N   UNL     1      31.207 -10.032 -19.117  0.00  0.00    -0.340 N 
ATOM      5  C   UNL     1      31.531 -10.285 -21.495  0.00  0.00    +0.214 C 
ATOM      6  C   UNL     1      32.239 -12.276 -22.370  0.00  0.00    +0.135 C 
ATOM      7  C   UNL     1      31.569 -10.826 -20.229  0.00  0.00    +0.166 C 
ATOM      8  C   UNL     1      32.278 -12.817 -21.103  0.00  0.00    +0.185 C 
ATOM      9  H   UNL     1      30.491  -8.634 -20.988  0.00  0.00    +0.155 HD
ATOM     10  H   UNL     1      31.233 -10.414 -18.210  0.00  0.00    +0.144 HD
ATOM     11  H   UNL     1      30.930  -9.097 -19.250  0.00  0.00    +0.144 HD
ENDROOT
BRANCH   1  15
ATOM     12  N   UNL     1      32.687  -5.071 -25.296  0.00  0.00    -0.312 N 
ATOM     13  C   UNL     1      33.052  -6.354 -23.508  0.00  0.00    +0.016 C 
ATOM     14  C   UNL     1      32.121  -6.043 -24.502  0.00  0.00    +0.048 C 
ATOM     15  C   UNL     1      31.471  -7.963 -22.623  0.00  0.00    +0.050 C 
ATOM     16  C   UNL     1      32.719  -7.334 -22.551  0.00  0.00    +0.016 C 
ATOM     17  C   UNL     1      30.871  -6.665 -24.587  0.00  0.00    +0.016 C 
ATOM     18  C   UNL     1      30.563  -7.632 -23.625  0.00  0.00    +0.016 C 
ATOM     19  C   UNL     1      34.194  -5.536 -23.734  0.00  0.00    +0.017 C 
ATOM     20  C   UNL     1      33.939  -4.757 -24.840  0.00  0.00    +0.062 C 
ATOM     21  H   UNL     1      32.253  -4.660 -26.078  0.00  0.00    +0.152 HD
ENDBRANCH   1  15
BRANCH   6  23
ATOM     22  N   UNL     1      33.297 -14.513 -25.807  0.00  0.00    -0.242 NA
ATOM     23  C   UNL     1      32.599 -13.036 -23.539  0.00  0.00    +0.031 C 
ATOM     24  C   UNL     1      32.434 -12.489 -24.806  0.00  0.00    +0.023 C 
ATOM     25  C   UNL     1      33.114 -14.321 -23.404  0.00  0.00    +0.023 C 
ATOM     26  C   UNL     1      32.795 -13.261 -25.898  0.00  0.00    +0.099 C 
ATOM     27  C   UNL     1      33.444 -15.012 -24.559  0.00  0.00    +0.099 C 
ENDBRANCH   6  23
TORSDOF 2
ENDMDL
