MODEL 1
REMARK VINA RESULT:     -15.0      0.000      0.000
REMARK  Name = 71351
REMARK  4 active torsions:
REMARK  status: ('A' for Active; 'I' for Inactive)
REMARK    1  A    between atoms: N_1  and  C_18
REMARK    2  A    between atoms: C_2  and  C_11
REMARK    3  A    between atoms: C_18  and  C_19
REMARK    4  A    between atoms: C_19  and  C_23
REMARK                            x       y       z     vdW  Elec       q    Type
REMARK                         _______ _______ _______ _____ _____    ______ ____
ROOT
ATOM      1  N   UNL     1      35.316 -19.286 -20.133  0.00  0.00    +0.387 N 
ATOM      2  C   UNL     1      34.714 -18.039 -22.719  0.00  0.00    +0.039 C 
ATOM      3  C   UNL     1      35.842 -17.535 -21.802  0.00  0.00    -0.017 C 
ATOM      4  C   UNL     1      33.646 -18.763 -21.884  0.00  0.00    -0.017 C 
ATOM      5  C   UNL     1      36.387 -18.663 -20.923  0.00  0.00    -0.077 C 
ATOM      6  C   UNL     1      34.273 -19.846 -21.002  0.00  0.00    -0.077 C 
ATOM      7  H   UNL     1      34.889 -18.561 -19.555  0.00  0.00    -0.080 HD
ENDROOT
BRANCH   2  11
ATOM      8  F   UNL     1      32.867 -11.616 -23.472  0.00  0.00    -0.204 F 
ATOM      9  O   UNL     1      33.278 -16.028 -25.342  0.00  0.00    -0.354 OA
ATOM     10  N   UNL     1      33.757 -17.228 -24.830  0.00  0.00    -0.081 NA
ATOM     11  C   UNL     1      34.134 -16.944 -23.585  0.00  0.00    +0.100 A 
ATOM     12  C   UNL     1      33.927 -15.599 -23.241  0.00  0.00    +0.054 A 
ATOM     13  C   UNL     1      33.381 -15.058 -24.393  0.00  0.00    +0.179 A 
ATOM     14  C   UNL     1      34.123 -14.772 -22.126  0.00  0.00    +0.007 C 
ATOM     15  C   UNL     1      33.004 -13.726 -24.531  0.00  0.00    +0.070 C 
ATOM     16  C   UNL     1      33.755 -13.423 -22.230  0.00  0.00    +0.030 C 
ATOM     17  C   UNL     1      33.207 -12.912 -23.412  0.00  0.00    +0.143 C 
ENDBRANCH   2  11
BRANCH   1  18
ATOM     18  C   UNL     1      35.864 -20.322 -19.256  0.00  0.00    -0.076 C 
BRANCH  18  19
ATOM     19  C   UNL     1      35.031 -21.590 -19.372  0.00  0.00    -0.007 C 
BRANCH  19  23
ATOM     20  O   UNL     1      32.330 -22.119 -19.019  0.00  0.00    -0.274 OA
ATOM     21  N   UNL     1      32.489 -22.546 -16.727  0.00  0.00    -0.211 N 
ATOM     22  N   UNL     1      34.619 -22.458 -15.681  0.00  0.00    -0.395 NA
ATOM     23  C   UNL     1      34.475 -21.989 -18.036  0.00  0.00    +0.123 C 
ATOM     24  C   UNL     1      35.174 -22.130 -16.893  0.00  0.00    +0.097 C 
ATOM     25  C   UNL     1      32.996 -22.220 -17.989  0.00  0.00    +0.241 C 
ATOM     26  C   UNL     1      33.337 -22.650 -15.618  0.00  0.00    +0.188 C 
ATOM     27  C   UNL     1      36.670 -21.963 -16.824  0.00  0.00    +0.062 C 
ATOM     28  C   UNL     1      32.704 -23.009 -14.299  0.00  0.00    +0.023 C 
ATOM     29  C   UNL     1      31.123 -22.767 -16.597  0.00  0.00    +0.074 C 
ATOM     30  C   UNL     1      31.378 -23.207 -14.252  0.00  0.00    +0.001 C 
ATOM     31  C   UNL     1      30.563 -23.085 -15.426  0.00  0.00    +0.016 C 
ATOM     32  C   UNL     1      33.587 -23.127 -13.095  0.00  0.00    +0.035 C 
ENDBRANCH  19  23
ENDBRANCH  18  19
ENDBRANCH   1  18
TORSDOF 4
ENDMDL
MODEL 2
REMARK VINA RESULT:     -14.8      1.127      2.064
REMARK  Name = 71351
REMARK  4 active torsions:
REMARK  status: ('A' for Active; 'I' for Inactive)
REMARK    1  A    between atoms: N_1  and  C_18
REMARK    2  A    between atoms: C_2  and  C_11
REMARK    3  A    between atoms: C_18  and  C_19
REMARK    4  A    between atoms: C_19  and  C_23
REMARK                            x       y       z     vdW  Elec       q    Type
REMARK                         _______ _______ _______ _____ _____    ______ ____
ROOT
ATOM      1  N   UNL     1      35.029 -19.039 -20.485  0.00  0.00    +0.387 N 
ATOM      2  C   UNL     1      34.749 -17.466 -22.946  0.00  0.00    +0.039 C 
ATOM      3  C   UNL     1      35.328 -16.875 -21.650  0.00  0.00    -0.017 C 
ATOM      4  C   UNL     1      33.826 -18.649 -22.613  0.00  0.00    -0.017 C 
ATOM      5  C   UNL     1      35.978 -17.960 -20.787  0.00  0.00    -0.077 C 
ATOM      6  C   UNL     1      34.532 -19.668 -21.716  0.00  0.00    -0.077 C 
ATOM      7  H   UNL     1      34.231 -18.629 -19.998  0.00  0.00    -0.080 HD
ENDROOT
BRANCH   2  11
ATOM      8  F   UNL     1      32.560 -11.162 -23.782  0.00  0.00    -0.204 F 
ATOM      9  O   UNL     1      33.095 -15.603 -25.550  0.00  0.00    -0.354 OA
ATOM     10  N   UNL     1      33.655 -16.764 -25.029  0.00  0.00    -0.081 NA
ATOM     11  C   UNL     1      34.076 -16.426 -23.812  0.00  0.00    +0.100 A 
ATOM     12  C   UNL     1      33.821 -15.083 -23.495  0.00  0.00    +0.054 A 
ATOM     13  C   UNL     1      33.196 -14.602 -24.633  0.00  0.00    +0.179 A 
ATOM     14  C   UNL     1      34.030 -14.215 -22.414  0.00  0.00    +0.007 C 
ATOM     15  C   UNL     1      32.748 -13.294 -24.789  0.00  0.00    +0.070 C 
ATOM     16  C   UNL     1      33.593 -12.888 -22.536  0.00  0.00    +0.030 C 
ATOM     17  C   UNL     1      32.964 -12.438 -23.703  0.00  0.00    +0.143 C 
ENDBRANCH   2  11
BRANCH   1  18
ATOM     18  C   UNL     1      35.648 -20.037 -19.613  0.00  0.00    -0.076 C 
BRANCH  18  19
ATOM     19  C   UNL     1      34.993 -21.393 -19.831  0.00  0.00    -0.007 C 
BRANCH  19  23
ATOM     20  O   UNL     1      35.710 -22.406 -17.351  0.00  0.00    -0.274 OA
ATOM     21  N   UNL     1      33.527 -22.530 -16.526  0.00  0.00    -0.211 N 
ATOM     22  N   UNL     1      31.733 -21.779 -17.890  0.00  0.00    -0.395 NA
ATOM     23  C   UNL     1      33.969 -21.668 -18.769  0.00  0.00    +0.123 C 
ATOM     24  C   UNL     1      32.640 -21.476 -18.874  0.00  0.00    +0.097 C 
ATOM     25  C   UNL     1      34.498 -22.236 -17.488  0.00  0.00    +0.241 C 
ATOM     26  C   UNL     1      32.171 -22.284 -16.776  0.00  0.00    +0.188 C 
ATOM     27  C   UNL     1      31.996 -20.875 -20.096  0.00  0.00    +0.062 C 
ATOM     28  C   UNL     1      31.195 -22.628 -15.682  0.00  0.00    +0.023 C 
ATOM     29  C   UNL     1      33.935 -23.069 -15.311  0.00  0.00    +0.074 C 
ATOM     30  C   UNL     1      31.666 -23.145 -14.537  0.00  0.00    +0.001 C 
ATOM     31  C   UNL     1      33.068 -23.373 -14.341  0.00  0.00    +0.016 C 
ATOM     32  C   UNL     1      29.739 -22.376 -15.923  0.00  0.00    +0.035 C 
ENDBRANCH  19  23
ENDBRANCH  18  19
ENDBRANCH   1  18
TORSDOF 4
ENDMDL
MODEL 3
REMARK VINA RESULT:     -14.5      3.458     10.300
REMARK  Name = 71351
REMARK  4 active torsions:
REMARK  status: ('A' for Active; 'I' for Inactive)
REMARK    1  A    between atoms: N_1  and  C_18
REMARK    2  A    between atoms: C_2  and  C_11
REMARK    3  A    between atoms: C_18  and  C_19
REMARK    4  A    between atoms: C_19  and  C_23
REMARK                            x       y       z     vdW  Elec       q    Type
REMARK                         _______ _______ _______ _____ _____    ______ ____
ROOT
ATOM      1  N   UNL     1      33.648 -20.014 -20.144  0.00  0.00    +0.387 N 
ATOM      2  C   UNL     1      33.569 -22.181 -18.168  0.00  0.00    +0.039 C 
ATOM      3  C   UNL     1      32.352 -21.288 -18.463  0.00  0.00    -0.017 C 
ATOM      4  C   UNL     1      34.864 -21.432 -18.519  0.00  0.00    -0.017 C 
ATOM      5  C   UNL     1      32.397 -20.743 -19.892  0.00  0.00    -0.077 C 
ATOM      6  C   UNL     1      34.817 -20.882 -19.947  0.00  0.00    -0.077 C 
ATOM      7  H   UNL     1      33.707 -19.250 -19.471  0.00  0.00    -0.080 HD
ENDROOT
BRANCH   2  11
ATOM      8  F   UNL     1      30.175 -23.908 -12.625  0.00  0.00    -0.204 F 
ATOM      9  O   UNL     1      34.384 -23.507 -14.918  0.00  0.00    -0.354 OA
ATOM     10  N   UNL     1      34.725 -23.063 -16.190  0.00  0.00    -0.081 NA
ATOM     11  C   UNL     1      33.570 -22.718 -16.755  0.00  0.00    +0.100 A 
ATOM     12  C   UNL     1      32.466 -22.914 -15.912  0.00  0.00    +0.054 A 
ATOM     13  C   UNL     1      33.035 -23.418 -14.756  0.00  0.00    +0.179 A 
ATOM     14  C   UNL     1      31.076 -22.736 -15.966  0.00  0.00    +0.007 C 
ATOM     15  C   UNL     1      32.317 -23.770 -13.617  0.00  0.00    +0.070 C 
ATOM     16  C   UNL     1      30.320 -23.082 -14.837  0.00  0.00    +0.030 C 
ATOM     17  C   UNL     1      30.932 -23.589 -13.685  0.00  0.00    +0.143 C 
ENDBRANCH   2  11
BRANCH   1  18
ATOM     18  C   UNL     1      33.649 -19.451 -21.494  0.00  0.00    -0.076 C 
BRANCH  18  19
ATOM     19  C   UNL     1      34.829 -18.504 -21.659  0.00  0.00    -0.007 C 
BRANCH  19  23
ATOM     20  O   UNL     1      34.643 -16.080 -20.322  0.00  0.00    -0.274 OA
ATOM     21  N   UNL     1      33.898 -14.866 -22.175  0.00  0.00    -0.211 N 
ATOM     22  N   UNL     1      33.669 -15.972 -24.264  0.00  0.00    -0.395 NA
ATOM     23  C   UNL     1      34.411 -17.247 -22.364  0.00  0.00    +0.123 C 
ATOM     24  C   UNL     1      34.085 -17.136 -23.667  0.00  0.00    +0.097 C 
ATOM     25  C   UNL     1      34.332 -16.018 -21.512  0.00  0.00    +0.241 C 
ATOM     26  C   UNL     1      33.582 -14.899 -23.539  0.00  0.00    +0.188 C 
ATOM     27  C   UNL     1      34.164 -18.291 -24.630  0.00  0.00    +0.062 C 
ATOM     28  C   UNL     1      33.126 -13.610 -24.171  0.00  0.00    +0.023 C 
ATOM     29  C   UNL     1      33.788 -13.684 -21.452  0.00  0.00    +0.074 C 
ATOM     30  C   UNL     1      33.045 -12.511 -23.408  0.00  0.00    +0.001 C 
ATOM     31  C   UNL     1      33.383 -12.542 -22.014  0.00  0.00    +0.016 C 
ATOM     32  C   UNL     1      32.781 -13.616 -25.628  0.00  0.00    +0.035 C 
ENDBRANCH  19  23
ENDBRANCH  18  19
ENDBRANCH   1  18
TORSDOF 4
ENDMDL
MODEL 4
REMARK VINA RESULT:     -14.0      3.513     10.230
REMARK  Name = 71351
REMARK  4 active torsions:
REMARK  status: ('A' for Active; 'I' for Inactive)
REMARK    1  A    between atoms: N_1  and  C_18
REMARK    2  A    between atoms: C_2  and  C_11
REMARK    3  A    between atoms: C_18  and  C_19
REMARK    4  A    between atoms: C_19  and  C_23
REMARK                            x       y       z     vdW  Elec       q    Type
REMARK                         _______ _______ _______ _____ _____    ______ ____
ROOT
ATOM      1  N   UNL     1      33.661 -19.962 -20.219  0.00  0.00    +0.387 N 
ATOM      2  C   UNL     1      33.726 -22.089 -18.199  0.00  0.00    +0.039 C 
ATOM      3  C   UNL     1      32.453 -21.283 -18.509  0.00  0.00    -0.017 C 
ATOM      4  C   UNL     1      34.969 -21.263 -18.569  0.00  0.00    -0.017 C 
ATOM      5  C   UNL     1      32.461 -20.766 -19.950  0.00  0.00    -0.077 C 
ATOM      6  C   UNL     1      34.884 -20.748 -20.008  0.00  0.00    -0.077 C 
ATOM      7  H   UNL     1      33.671 -19.182 -19.562  0.00  0.00    -0.080 HD
ENDROOT
BRANCH   2  11
ATOM      8  F   UNL     1      37.193 -23.226 -12.550  0.00  0.00    -0.204 F 
ATOM      9  O   UNL     1      33.024 -23.452 -14.938  0.00  0.00    -0.354 OA
ATOM     10  N   UNL     1      32.655 -23.082 -16.226  0.00  0.00    -0.081 NA
ATOM     11  C   UNL     1      33.765 -22.594 -16.775  0.00  0.00    +0.100 A 
ATOM     12  C   UNL     1      34.866 -22.621 -15.906  0.00  0.00    +0.054 A 
ATOM     13  C   UNL     1      34.344 -23.175 -14.750  0.00  0.00    +0.179 A 
ATOM     14  C   UNL     1      36.220 -22.258 -15.936  0.00  0.00    +0.007 C 
ATOM     15  C   UNL     1      35.076 -23.404 -13.589  0.00  0.00    +0.070 C 
ATOM     16  C   UNL     1      36.989 -22.474 -14.783  0.00  0.00    +0.030 C 
ATOM     17  C   UNL     1      36.425 -23.035 -13.632  0.00  0.00    +0.143 C 
ENDBRANCH   2  11
BRANCH   1  18
ATOM     18  C   UNL     1      33.623 -19.429 -21.581  0.00  0.00    -0.076 C 
BRANCH  18  19
ATOM     19  C   UNL     1      34.818 -18.514 -21.811  0.00  0.00    -0.007 C 
BRANCH  19  23
ATOM     20  O   UNL     1      34.687 -16.142 -20.379  0.00  0.00    -0.274 OA
ATOM     21  N   UNL     1      33.900 -14.853 -22.163  0.00  0.00    -0.211 N 
ATOM     22  N   UNL     1      33.605 -15.877 -24.285  0.00  0.00    -0.395 NA
ATOM     23  C   UNL     1      34.390 -17.229 -22.457  0.00  0.00    +0.123 C 
ATOM     24  C   UNL     1      34.029 -17.065 -23.744  0.00  0.00    +0.097 C 
ATOM     25  C   UNL     1      34.344 -16.032 -21.556  0.00  0.00    +0.241 C 
ATOM     26  C   UNL     1      33.547 -14.832 -23.517  0.00  0.00    +0.188 C 
ATOM     27  C   UNL     1      34.072 -18.184 -24.753  0.00  0.00    +0.062 C 
ATOM     28  C   UNL     1      33.082 -13.517 -24.087  0.00  0.00    +0.023 C 
ATOM     29  C   UNL     1      33.819 -13.698 -21.392  0.00  0.00    +0.074 C 
ATOM     30  C   UNL     1      33.031 -12.447 -23.281  0.00  0.00    +0.001 C 
ATOM     31  C   UNL     1      33.408 -12.533 -21.899  0.00  0.00    +0.016 C 
ATOM     32  C   UNL     1      32.697 -13.465 -25.533  0.00  0.00    +0.035 C 
ENDBRANCH  19  23
ENDBRANCH  18  19
ENDBRANCH   1  18
TORSDOF 4
ENDMDL
MODEL 5
REMARK VINA RESULT:     -14.0      1.291      2.364
REMARK  Name = 71351
REMARK  4 active torsions:
REMARK  status: ('A' for Active; 'I' for Inactive)
REMARK    1  A    between atoms: N_1  and  C_18
REMARK    2  A    between atoms: C_2  and  C_11
REMARK    3  A    between atoms: C_18  and  C_19
REMARK    4  A    between atoms: C_19  and  C_23
REMARK                            x       y       z     vdW  Elec       q    Type
REMARK                         _______ _______ _______ _____ _____    ______ ____
ROOT
ATOM      1  N   UNL     1      35.369 -19.390 -20.041  0.00  0.00    +0.387 N 
ATOM      2  C   UNL     1      34.751 -18.169 -22.636  0.00  0.00    +0.039 C 
ATOM      3  C   UNL     1      35.908 -17.681 -21.749  0.00  0.00    -0.017 C 
ATOM      4  C   UNL     1      33.680 -18.852 -21.769  0.00  0.00    -0.017 C 
ATOM      5  C   UNL     1      36.440 -18.808 -20.860  0.00  0.00    -0.077 C 
ATOM      6  C   UNL     1      34.295 -19.937 -20.881  0.00  0.00    -0.077 C 
ATOM      7  H   UNL     1      34.971 -18.645 -19.468  0.00  0.00    -0.080 HD
ENDROOT
BRANCH   2  11
ATOM      8  F   UNL     1      32.916 -11.746 -23.412  0.00  0.00    -0.204 F 
ATOM      9  O   UNL     1      33.352 -16.157 -25.278  0.00  0.00    -0.354 OA
ATOM     10  N   UNL     1      33.824 -17.358 -24.760  0.00  0.00    -0.081 NA
ATOM     11  C   UNL     1      34.183 -17.074 -23.510  0.00  0.00    +0.100 A 
ATOM     12  C   UNL     1      33.971 -15.730 -23.168  0.00  0.00    +0.054 A 
ATOM     13  C   UNL     1      33.442 -15.188 -24.327  0.00  0.00    +0.179 A 
ATOM     14  C   UNL     1      34.152 -14.903 -22.050  0.00  0.00    +0.007 C 
ATOM     15  C   UNL     1      33.067 -13.856 -24.470  0.00  0.00    +0.070 C 
ATOM     16  C   UNL     1      33.786 -13.554 -22.158  0.00  0.00    +0.030 C 
ATOM     17  C   UNL     1      33.254 -13.042 -23.347  0.00  0.00    +0.143 C 
ENDBRANCH   2  11
BRANCH   1  18
ATOM     18  C   UNL     1      35.905 -20.425 -19.157  0.00  0.00    -0.076 C 
BRANCH  18  19
ATOM     19  C   UNL     1      34.933 -21.593 -19.079  0.00  0.00    -0.007 C 
BRANCH  19  23
ATOM     20  O   UNL     1      37.001 -21.675 -17.232  0.00  0.00    -0.274 OA
ATOM     21  N   UNL     1      35.683 -22.443 -15.462  0.00  0.00    -0.211 N 
ATOM     22  N   UNL     1      33.356 -22.764 -15.810  0.00  0.00    -0.395 NA
ATOM     23  C   UNL     1      34.698 -21.999 -17.653  0.00  0.00    +0.123 C 
ATOM     24  C   UNL     1      33.519 -22.361 -17.111  0.00  0.00    +0.097 C 
ATOM     25  C   UNL     1      35.911 -22.020 -16.774  0.00  0.00    +0.241 C 
ATOM     26  C   UNL     1      34.398 -22.800 -15.036  0.00  0.00    +0.188 C 
ATOM     27  C   UNL     1      32.226 -22.342 -17.884  0.00  0.00    +0.062 C 
ATOM     28  C   UNL     1      34.245 -23.241 -13.604  0.00  0.00    +0.023 C 
ATOM     29  C   UNL     1      36.760 -22.500 -14.584  0.00  0.00    +0.074 C 
ATOM     30  C   UNL     1      35.331 -23.270 -12.818  0.00  0.00    +0.001 C 
ATOM     31  C   UNL     1      36.622 -22.891 -13.314  0.00  0.00    +0.016 C 
ATOM     32  C   UNL     1      32.881 -23.630 -13.122  0.00  0.00    +0.035 C 
ENDBRANCH  19  23
ENDBRANCH  18  19
ENDBRANCH   1  18
TORSDOF 4
ENDMDL
MODEL 6
REMARK VINA RESULT:     -13.7      2.258      3.727
REMARK  Name = 71351
REMARK  4 active torsions:
REMARK  status: ('A' for Active; 'I' for Inactive)
REMARK    1  A    between atoms: N_1  and  C_18
REMARK    2  A    between atoms: C_2  and  C_11
REMARK    3  A    between atoms: C_18  and  C_19
REMARK    4  A    between atoms: C_19  and  C_23
REMARK                            x       y       z     vdW  Elec       q    Type
REMARK                         _______ _______ _______ _____ _____    ______ ____
ROOT
ATOM      1  N   UNL     1      34.080 -17.273 -22.348  0.00  0.00    +0.387 N 
ATOM      2  C   UNL     1      34.094 -14.386 -22.870  0.00  0.00    +0.039 C 
ATOM      3  C   UNL     1      33.951 -14.968 -21.454  0.00  0.00    -0.017 C 
ATOM      4  C   UNL     1      33.605 -15.410 -23.907  0.00  0.00    -0.017 C 
ATOM      5  C   UNL     1      34.619 -16.341 -21.348  0.00  0.00    -0.077 C 
ATOM      6  C   UNL     1      34.287 -16.767 -23.711  0.00  0.00    -0.077 C 
ATOM      7  H   UNL     1      33.075 -17.355 -22.192  0.00  0.00    -0.080 HD
ENDROOT
BRANCH   2  11
ATOM      8  F   UNL     1      30.348  -9.461 -20.237  0.00  0.00    -0.204 F 
ATOM      9  O   UNL     1      32.816 -11.204 -23.978  0.00  0.00    -0.354 OA
ATOM     10  N   UNL     1      33.533 -12.380 -24.169  0.00  0.00    -0.081 NA
ATOM     11  C   UNL     1      33.422 -13.040 -23.019  0.00  0.00    +0.100 A 
ATOM     12  C   UNL     1      32.660 -12.353 -22.062  0.00  0.00    +0.054 A 
ATOM     13  C   UNL     1      32.297 -11.191 -22.720  0.00  0.00    +0.179 A 
ATOM     14  C   UNL     1      32.229 -12.552 -20.742  0.00  0.00    +0.007 C 
ATOM     15  C   UNL     1      31.521 -10.182 -22.160  0.00  0.00    +0.070 C 
ATOM     16  C   UNL     1      31.445 -11.554 -20.144  0.00  0.00    +0.030 C 
ATOM     17  C   UNL     1      31.099 -10.392 -20.842  0.00  0.00    +0.143 C 
ENDBRANCH   2  11
BRANCH   1  18
ATOM     18  C   UNL     1      34.688 -18.595 -22.195  0.00  0.00    -0.076 C 
BRANCH  18  19
ATOM     19  C   UNL     1      33.690 -19.552 -21.559  0.00  0.00    -0.007 C 
BRANCH  19  23
ATOM     20  O   UNL     1      32.180 -21.222 -19.938  0.00  0.00    -0.274 OA
ATOM     21  N   UNL     1      33.869 -21.586 -18.365  0.00  0.00    -0.211 N 
ATOM     22  N   UNL     1      35.999 -20.594 -18.707  0.00  0.00    -0.395 NA
ATOM     23  C   UNL     1      34.267 -20.184 -20.325  0.00  0.00    +0.123 C 
ATOM     24  C   UNL     1      35.523 -20.029 -19.864  0.00  0.00    +0.097 C 
ATOM     25  C   UNL     1      33.329 -21.043 -19.535  0.00  0.00    +0.241 C 
ATOM     26  C   UNL     1      35.197 -21.332 -18.002  0.00  0.00    +0.188 C 
ATOM     27  C   UNL     1      36.567 -19.222 -20.592  0.00  0.00    +0.062 C 
ATOM     28  C   UNL     1      35.695 -21.961 -16.727  0.00  0.00    +0.023 C 
ATOM     29  C   UNL     1      33.060 -22.389 -17.569  0.00  0.00    +0.074 C 
ATOM     30  C   UNL     1      34.854 -22.723 -16.013  0.00  0.00    +0.001 C 
ATOM     31  C   UNL     1      33.503 -22.946 -16.439  0.00  0.00    +0.016 C 
ATOM     32  C   UNL     1      37.112 -21.705 -16.314  0.00  0.00    +0.035 C 
ENDBRANCH  19  23
ENDBRANCH  18  19
ENDBRANCH   1  18
TORSDOF 4
ENDMDL
MODEL 7
REMARK VINA RESULT:     -13.6      3.274     10.212
REMARK  Name = 71351
REMARK  4 active torsions:
REMARK  status: ('A' for Active; 'I' for Inactive)
REMARK    1  A    between atoms: N_1  and  C_18
REMARK    2  A    between atoms: C_2  and  C_11
REMARK    3  A    between atoms: C_18  and  C_19
REMARK    4  A    between atoms: C_19  and  C_23
REMARK                            x       y       z     vdW  Elec       q    Type
REMARK                         _______ _______ _______ _____ _____    ______ ____
ROOT
ATOM      1  N   UNL     1      33.978 -19.263 -21.055  0.00  0.00    +0.387 N 
ATOM      2  C   UNL     1      34.029 -21.482 -19.138  0.00  0.00    +0.039 C 
ATOM      3  C   UNL     1      32.794 -20.588 -19.332  0.00  0.00    -0.017 C 
ATOM      4  C   UNL     1      35.298 -20.717 -19.549  0.00  0.00    -0.017 C 
ATOM      5  C   UNL     1      32.748 -20.004 -20.746  0.00  0.00    -0.077 C 
ATOM      6  C   UNL     1      35.159 -20.129 -20.956  0.00  0.00    -0.077 C 
ATOM      7  H   UNL     1      34.076 -18.516 -20.367  0.00  0.00    -0.080 HD
ENDROOT
BRANCH   2  11
ATOM      8  F   UNL     1      30.974 -23.927 -13.669  0.00  0.00    -0.204 F 
ATOM      9  O   UNL     1      35.055 -22.759 -15.928  0.00  0.00    -0.354 OA
ATOM     10  N   UNL     1      35.317 -22.223 -17.184  0.00  0.00    -0.081 NA
ATOM     11  C   UNL     1      34.121 -22.057 -17.743  0.00  0.00    +0.100 A 
ATOM     12  C   UNL     1      33.065 -22.461 -16.912  0.00  0.00    +0.054 A 
ATOM     13  C   UNL     1      33.711 -22.900 -15.770  0.00  0.00    +0.179 A 
ATOM     14  C   UNL     1      31.664 -22.515 -16.967  0.00  0.00    +0.007 C 
ATOM     15  C   UNL     1      33.062 -23.404 -14.646  0.00  0.00    +0.070 C 
ATOM     16  C   UNL     1      30.978 -23.017 -15.852  0.00  0.00    +0.030 C 
ATOM     17  C   UNL     1      31.666 -23.453 -14.715  0.00  0.00    +0.143 C 
ENDBRANCH   2  11
BRANCH   1  18
ATOM     18  C   UNL     1      33.893 -18.663 -22.387  0.00  0.00    -0.076 C 
BRANCH  18  19
ATOM     19  C   UNL     1      34.956 -17.585 -22.539  0.00  0.00    -0.007 C 
BRANCH  19  23
ATOM     20  O   UNL     1      34.246 -16.688 -25.065  0.00  0.00    -0.274 OA
ATOM     21  N   UNL     1      33.474 -14.602 -24.347  0.00  0.00    -0.211 N 
ATOM     22  N   UNL     1      33.502 -14.097 -22.027  0.00  0.00    -0.395 NA
ATOM     23  C   UNL     1      34.327 -16.239 -22.747  0.00  0.00    +0.123 C 
ATOM     24  C   UNL     1      34.043 -15.336 -21.788  0.00  0.00    +0.097 C 
ATOM     25  C   UNL     1      34.018 -15.878 -24.167  0.00  0.00    +0.241 C 
ATOM     26  C   UNL     1      33.239 -13.761 -23.253  0.00  0.00    +0.188 C 
ATOM     27  C   UNL     1      34.272 -15.600 -20.323  0.00  0.00    +0.062 C 
ATOM     28  C   UNL     1      32.647 -12.406 -23.541  0.00  0.00    +0.023 C 
ATOM     29  C   UNL     1      33.167 -14.186 -25.638  0.00  0.00    +0.074 C 
ATOM     30  C   UNL     1      32.378 -12.076 -24.813  0.00  0.00    +0.001 C 
ATOM     31  C   UNL     1      32.642 -12.985 -25.892  0.00  0.00    +0.016 C 
ATOM     32  C   UNL     1      32.387 -11.484 -22.390  0.00  0.00    +0.035 C 
ENDBRANCH  19  23
ENDBRANCH  18  19
ENDBRANCH   1  18
TORSDOF 4
ENDMDL
MODEL 8
REMARK VINA RESULT:     -13.5      1.405      2.153
REMARK  Name = 71351
REMARK  4 active torsions:
REMARK  status: ('A' for Active; 'I' for Inactive)
REMARK    1  A    between atoms: N_1  and  C_18
REMARK    2  A    between atoms: C_2  and  C_11
REMARK    3  A    between atoms: C_18  and  C_19
REMARK    4  A    between atoms: C_19  and  C_23
REMARK                            x       y       z     vdW  Elec       q    Type
REMARK                         _______ _______ _______ _____ _____    ______ ____
ROOT
ATOM      1  N   UNL     1      35.468 -20.458 -20.172  0.00  0.00    +0.387 N 
ATOM      2  C   UNL     1      34.711 -17.807 -21.175  0.00  0.00    +0.039 C 
ATOM      3  C   UNL     1      33.798 -19.036 -21.319  0.00  0.00    -0.017 C 
ATOM      4  C   UNL     1      36.177 -18.257 -21.055  0.00  0.00    -0.017 C 
ATOM      5  C   UNL     1      34.056 -20.053 -20.205  0.00  0.00    -0.077 C 
ATOM      6  C   UNL     1      36.347 -19.302 -19.950  0.00  0.00    -0.077 C 
ATOM      7  H   UNL     1      35.701 -20.860 -21.080  0.00  0.00    -0.080 HD
ENDROOT
BRANCH   2  11
ATOM      8  F   UNL     1      33.281 -11.507 -23.044  0.00  0.00    -0.204 F 
ATOM      9  O   UNL     1      34.375 -16.022 -24.287  0.00  0.00    -0.354 OA
ATOM     10  N   UNL     1      34.625 -17.170 -23.544  0.00  0.00    -0.081 NA
ATOM     11  C   UNL     1      34.501 -16.791 -22.274  0.00  0.00    +0.100 A 
ATOM     12  C   UNL     1      34.178 -15.433 -22.135  0.00  0.00    +0.054 A 
ATOM     13  C   UNL     1      34.109 -14.988 -23.444  0.00  0.00    +0.179 A 
ATOM     14  C   UNL     1      33.936 -14.526 -21.093  0.00  0.00    +0.007 C 
ATOM     15  C   UNL     1      33.812 -13.679 -23.813  0.00  0.00    +0.070 C 
ATOM     16  C   UNL     1      33.634 -13.199 -21.428  0.00  0.00    +0.030 C 
ATOM     17  C   UNL     1      33.574 -12.785 -22.763  0.00  0.00    +0.143 C 
ENDBRANCH   2  11
BRANCH   1  18
ATOM     18  C   UNL     1      35.685 -21.473 -19.140  0.00  0.00    -0.076 C 
BRANCH  18  19
ATOM     19  C   UNL     1      34.435 -21.616 -18.285  0.00  0.00    -0.007 C 
BRANCH  19  23
ATOM     20  O   UNL     1      32.741 -23.177 -16.738  0.00  0.00    -0.274 OA
ATOM     21  N   UNL     1      34.097 -23.152 -14.835  0.00  0.00    -0.211 N 
ATOM     22  N   UNL     1      36.183 -22.018 -14.919  0.00  0.00    -0.395 NA
ATOM     23  C   UNL     1      34.791 -22.009 -16.880  0.00  0.00    +0.123 C 
ATOM     24  C   UNL     1      35.915 -21.671 -16.219  0.00  0.00    +0.097 C 
ATOM     25  C   UNL     1      33.770 -22.833 -16.157  0.00  0.00    +0.241 C 
ATOM     26  C   UNL     1      35.305 -22.723 -14.271  0.00  0.00    +0.188 C 
ATOM     27  C   UNL     1      37.029 -20.879 -16.853  0.00  0.00    +0.062 C 
ATOM     28  C   UNL     1      35.575 -23.115 -12.842  0.00  0.00    +0.023 C 
ATOM     29  C   UNL     1      33.198 -23.907 -14.091  0.00  0.00    +0.074 C 
ATOM     30  C   UNL     1      34.659 -23.845 -12.190  0.00  0.00    +0.001 C 
ATOM     31  C   UNL     1      33.439 -24.254 -12.824  0.00  0.00    +0.016 C 
ATOM     32  C   UNL     1      36.859 -22.669 -12.213  0.00  0.00    +0.035 C 
ENDBRANCH  19  23
ENDBRANCH  18  19
ENDBRANCH   1  18
TORSDOF 4
ENDMDL
MODEL 9
REMARK VINA RESULT:     -13.5      3.314     10.166
REMARK  Name = 71351
REMARK  4 active torsions:
REMARK  status: ('A' for Active; 'I' for Inactive)
REMARK    1  A    between atoms: N_1  and  C_18
REMARK    2  A    between atoms: C_2  and  C_11
REMARK    3  A    between atoms: C_18  and  C_19
REMARK    4  A    between atoms: C_19  and  C_23
REMARK                            x       y       z     vdW  Elec       q    Type
REMARK                         _______ _______ _______ _____ _____    ______ ____
ROOT
ATOM      1  N   UNL     1      33.966 -19.171 -21.062  0.00  0.00    +0.387 N 
ATOM      2  C   UNL     1      33.961 -21.428 -19.188  0.00  0.00    +0.039 C 
ATOM      3  C   UNL     1      32.712 -20.571 -19.452  0.00  0.00    -0.017 C 
ATOM      4  C   UNL     1      35.228 -20.613 -19.495  0.00  0.00    -0.017 C 
ATOM      5  C   UNL     1      32.744 -19.959 -20.854  0.00  0.00    -0.077 C 
ATOM      6  C   UNL     1      35.167 -20.000 -20.896  0.00  0.00    -0.077 C 
ATOM      7  H   UNL     1      33.991 -18.436 -20.354  0.00  0.00    -0.080 HD
ENDROOT
BRANCH   2  11
ATOM      8  F   UNL     1      37.305 -22.863 -13.533  0.00  0.00    -0.204 F 
ATOM      9  O   UNL     1      33.209 -23.026 -16.047  0.00  0.00    -0.354 OA
ATOM     10  N   UNL     1      32.864 -22.579 -17.317  0.00  0.00    -0.081 NA
ATOM     11  C   UNL     1      33.975 -22.028 -17.801  0.00  0.00    +0.100 A 
ATOM     12  C   UNL     1      35.053 -22.088 -16.905  0.00  0.00    +0.054 A 
ATOM     13  C   UNL     1      34.515 -22.731 -15.804  0.00  0.00    +0.179 A 
ATOM     14  C   UNL     1      36.398 -21.690 -16.872  0.00  0.00    +0.007 C 
ATOM     15  C   UNL     1      35.222 -23.021 -14.641  0.00  0.00    +0.070 C 
ATOM     16  C   UNL     1      37.141 -21.965 -15.715  0.00  0.00    +0.030 C 
ATOM     17  C   UNL     1      36.562 -22.618 -14.622  0.00  0.00    +0.143 C 
ENDBRANCH   2  11
BRANCH   1  18
ATOM     18  C   UNL     1      33.954 -18.546 -22.386  0.00  0.00    -0.076 C 
BRANCH  18  19
ATOM     19  C   UNL     1      34.988 -17.432 -22.442  0.00  0.00    -0.007 C 
BRANCH  19  23
ATOM     20  O   UNL     1      34.307 -16.592 -24.996  0.00  0.00    -0.274 OA
ATOM     21  N   UNL     1      33.471 -14.514 -24.327  0.00  0.00    -0.211 N 
ATOM     22  N   UNL     1      33.442 -13.972 -22.016  0.00  0.00    -0.395 NA
ATOM     23  C   UNL     1      34.331 -16.104 -22.684  0.00  0.00    +0.123 C 
ATOM     24  C   UNL     1      34.007 -15.193 -21.746  0.00  0.00    +0.097 C 
ATOM     25  C   UNL     1      34.042 -15.773 -24.116  0.00  0.00    +0.241 C 
ATOM     26  C   UNL     1      33.195 -13.662 -23.252  0.00  0.00    +0.188 C 
ATOM     27  C   UNL     1      34.213 -15.429 -20.272  0.00  0.00    +0.062 C 
ATOM     28  C   UNL     1      32.577 -12.326 -23.574  0.00  0.00    +0.023 C 
ATOM     29  C   UNL     1      33.180 -14.127 -25.631  0.00  0.00    +0.074 C 
ATOM     30  C   UNL     1      32.326 -12.024 -24.856  0.00  0.00    +0.001 C 
ATOM     31  C   UNL     1      32.632 -12.942 -25.914  0.00  0.00    +0.016 C 
ATOM     32  C   UNL     1      32.272 -11.393 -22.443  0.00  0.00    +0.035 C 
ENDBRANCH  19  23
ENDBRANCH  18  19
ENDBRANCH   1  18
TORSDOF 4
ENDMDL
