MODEL 1
REMARK VINA RESULT:     -12.4      0.000      0.000
REMARK  Name = 446346
REMARK  6 active torsions:
REMARK  status: ('A' for Active; 'I' for Inactive)
REMARK    1  A    between atoms: N_1  and  C_20
REMARK    2  A    between atoms: N_2  and  S_8
REMARK    3  A    between atoms: S_8  and  C_11
REMARK    4  A    between atoms: C_12  and  C_14
REMARK    5  A    between atoms: C_20  and  C_22
REMARK    6  A    between atoms: N_21  and  C_28
REMARK                            x       y       z     vdW  Elec       q    Type
REMARK                         _______ _______ _______ _____ _____    ______ ____
ROOT
ATOM      1  N   UNL     1      34.687 -18.829 -21.123  0.00  0.00    +0.389 N 
ATOM      2  N   UNL     1      33.728 -21.178 -19.770  0.00  0.00    -0.160 NA
ATOM      3  C   UNL     1      33.410 -19.452 -21.500  0.00  0.00    -0.058 C 
ATOM      4  C   UNL     1      35.621 -19.840 -20.609  0.00  0.00    -0.058 C 
ATOM      5  C   UNL     1      32.778 -20.163 -20.306  0.00  0.00    +0.073 C 
ATOM      6  C   UNL     1      35.032 -20.559 -19.397  0.00  0.00    +0.073 C 
ATOM      7  H   UNL     1      34.507 -18.151 -20.383  0.00  0.00    -0.080 HD
ENDROOT
BRANCH   2   8
ATOM      8  S   UNL     1      33.074 -22.267 -18.622  0.00  0.00    +0.064 S 
ATOM      9  O   UNL     1      33.191 -23.609 -19.168  0.00  0.00    -0.153 OA
ATOM     10  O   UNL     1      31.774 -21.762 -18.220  0.00  0.00    -0.153 OA
BRANCH   8  11
ATOM     11  C   UNL     1      34.142 -22.145 -17.265  0.00  0.00    +0.141 C 
ATOM     12  C   UNL     1      33.926 -22.980 -16.241  0.00  0.00    +0.021 C 
BRANCH  12  14
ATOM     13 CL   UNL     1      37.201 -23.174 -11.259  0.00  0.00    -0.082 Cl
ATOM     14  C   UNL     1      34.735 -23.027 -15.010  0.00  0.00    +0.001 C 
ATOM     15  C   UNL     1      36.085 -22.718 -15.072  0.00  0.00    +0.001 C 
ATOM     16  C   UNL     1      34.131 -23.380 -13.814  0.00  0.00    +0.001 C 
ATOM     17  C   UNL     1      36.850 -22.765 -13.907  0.00  0.00    +0.011 C 
ATOM     18  C   UNL     1      34.897 -23.426 -12.649  0.00  0.00    +0.011 C 
ATOM     19  C   UNL     1      36.257 -23.118 -12.696  0.00  0.00    +0.058 C 
ENDBRANCH  12  14
ENDBRANCH   8  11
ENDBRANCH   2   8
BRANCH   1  20
ATOM     20  C   UNL     1      35.270 -18.121 -22.261  0.00  0.00    -0.077 C 
BRANCH  20  22
ATOM     21  N   UNL     1      33.484 -14.210 -21.995  0.00  0.00    -0.307 N 
ATOM     22  C   UNL     1      35.098 -16.610 -22.128  0.00  0.00    -0.017 C 
ATOM     23  C   UNL     1      34.273 -16.263 -20.884  0.00  0.00    +0.019 C 
ATOM     24  C   UNL     1      34.419 -16.026 -23.370  0.00  0.00    +0.019 C 
ATOM     25  C   UNL     1      34.060 -14.755 -20.758  0.00  0.00    +0.091 C 
ATOM     26  C   UNL     1      34.200 -14.518 -23.237  0.00  0.00    +0.091 C 
BRANCH  21  28
ATOM     27  N   UNL     1      31.294 -10.614 -21.698  0.00  0.00    -0.242 NA
ATOM     28  C   UNL     1      32.758 -13.018 -21.897  0.00  0.00    +0.051 C 
ATOM     29  C   UNL     1      32.819 -12.046 -22.909  0.00  0.00    +0.035 C 
ATOM     30  C   UNL     1      31.945 -12.754 -20.783  0.00  0.00    +0.035 C 
ATOM     31  C   UNL     1      32.082 -10.883 -22.764  0.00  0.00    +0.100 C 
ATOM     32  C   UNL     1      31.246 -11.560 -20.733  0.00  0.00    +0.100 C 
ENDBRANCH  21  28
ENDBRANCH  20  22
ENDBRANCH   1  20
TORSDOF 6
ENDMDL
MODEL 2
REMARK VINA RESULT:     -12.4      4.324     11.086
REMARK  Name = 446346
REMARK  6 active torsions:
REMARK  status: ('A' for Active; 'I' for Inactive)
REMARK    1  A    between atoms: N_1  and  C_20
REMARK    2  A    between atoms: N_2  and  S_8
REMARK    3  A    between atoms: S_8  and  C_11
REMARK    4  A    between atoms: C_12  and  C_14
REMARK    5  A    between atoms: C_20  and  C_22
REMARK    6  A    between atoms: N_21  and  C_28
REMARK                            x       y       z     vdW  Elec       q    Type
REMARK                         _______ _______ _______ _____ _____    ______ ____
ROOT
ATOM      1  N   UNL     1      33.661 -21.879 -19.105  0.00  0.00    +0.389 N 
ATOM      2  N   UNL     1      34.847 -19.512 -20.227  0.00  0.00    -0.160 NA
ATOM      3  C   UNL     1      32.832 -20.728 -19.491  0.00  0.00    -0.058 C 
ATOM      4  C   UNL     1      34.999 -21.436 -18.693  0.00  0.00    -0.058 C 
ATOM      5  C   UNL     1      33.481 -19.950 -20.634  0.00  0.00    +0.073 C 
ATOM      6  C   UNL     1      35.691 -20.672 -19.820  0.00  0.00    +0.073 C 
ATOM      7  H   UNL     1      33.759 -22.490 -19.917  0.00  0.00    -0.080 HD
ENDROOT
BRANCH   2   8
ATOM      8  S   UNL     1      35.600 -18.382 -21.269  0.00  0.00    +0.064 S 
ATOM      9  O   UNL     1      35.398 -18.836 -22.634  0.00  0.00    -0.153 OA
ATOM     10  O   UNL     1      36.946 -18.151 -20.776  0.00  0.00    -0.153 OA
BRANCH   8  11
ATOM     11  C   UNL     1      34.688 -16.927 -21.046  0.00  0.00    +0.141 C 
ATOM     12  C   UNL     1      34.653 -16.065 -22.070  0.00  0.00    +0.021 C 
BRANCH  12  14
ATOM     13 CL   UNL     1      31.698 -10.884 -22.057  0.00  0.00    -0.082 Cl
ATOM     14  C   UNL     1      33.924 -14.785 -22.066  0.00  0.00    +0.001 C 
ATOM     15  C   UNL     1      33.530 -14.231 -20.859  0.00  0.00    +0.001 C 
ATOM     16  C   UNL     1      33.645 -14.159 -23.271  0.00  0.00    +0.001 C 
ATOM     17  C   UNL     1      32.838 -13.020 -20.856  0.00  0.00    +0.011 C 
ATOM     18  C   UNL     1      32.954 -12.948 -23.268  0.00  0.00    +0.011 C 
ATOM     19  C   UNL     1      32.551 -12.378 -22.060  0.00  0.00    +0.058 C 
ENDBRANCH  12  14
ENDBRANCH   8  11
ENDBRANCH   2   8
BRANCH   1  20
ATOM     20  C   UNL     1      33.018 -22.640 -18.035  0.00  0.00    -0.077 C 
BRANCH  20  22
ATOM     21  N   UNL     1      34.882 -23.054 -14.173  0.00  0.00    -0.307 N 
ATOM     22  C   UNL     1      33.624 -22.311 -16.673  0.00  0.00    -0.017 C 
ATOM     23  C   UNL     1      35.091 -22.747 -16.610  0.00  0.00    +0.019 C 
ATOM     24  C   UNL     1      32.839 -22.992 -15.547  0.00  0.00    +0.019 C 
ATOM     25  C   UNL     1      35.701 -22.458 -15.238  0.00  0.00    +0.091 C 
ATOM     26  C   UNL     1      33.457 -22.707 -14.178  0.00  0.00    +0.091 C 
BRANCH  21  28
ATOM     27  N   UNL     1      36.794 -23.938 -10.516  0.00  0.00    -0.242 NA
ATOM     28  C   UNL     1      35.516 -23.347 -12.960  0.00  0.00    +0.051 C 
ATOM     29  C   UNL     1      36.916 -23.386 -12.866  0.00  0.00    +0.035 C 
ATOM     30  C   UNL     1      34.772 -23.612 -11.800  0.00  0.00    +0.035 C 
ATOM     31  C   UNL     1      37.495 -23.681 -11.643  0.00  0.00    +0.100 C 
ATOM     32  C   UNL     1      35.447 -23.897 -10.625  0.00  0.00    +0.100 C 
ENDBRANCH  21  28
ENDBRANCH  20  22
ENDBRANCH   1  20
TORSDOF 6
ENDMDL
MODEL 3
REMARK VINA RESULT:     -11.7      3.305      5.553
REMARK  Name = 446346
REMARK  6 active torsions:
REMARK  status: ('A' for Active; 'I' for Inactive)
REMARK    1  A    between atoms: N_1  and  C_20
REMARK    2  A    between atoms: N_2  and  S_8
REMARK    3  A    between atoms: S_8  and  C_11
REMARK    4  A    between atoms: C_12  and  C_14
REMARK    5  A    between atoms: C_20  and  C_22
REMARK    6  A    between atoms: N_21  and  C_28
REMARK                            x       y       z     vdW  Elec       q    Type
REMARK                         _______ _______ _______ _____ _____    ______ ____
ROOT
ATOM      1  N   UNL     1      33.498 -14.273 -23.617  0.00  0.00    +0.389 N 
ATOM      2  N   UNL     1      34.338 -16.841 -22.633  0.00  0.00    -0.160 NA
ATOM      3  C   UNL     1      33.540 -14.554 -22.175  0.00  0.00    -0.058 C 
ATOM      4  C   UNL     1      33.218 -15.501 -24.373  0.00  0.00    -0.058 C 
ATOM      5  C   UNL     1      34.607 -15.598 -21.855  0.00  0.00    +0.073 C 
ATOM      6  C   UNL     1      34.279 -16.565 -24.096  0.00  0.00    +0.073 C 
ATOM      7  H   UNL     1      34.412 -13.921 -23.902  0.00  0.00    -0.080 HD
ENDROOT
BRANCH   2   8
ATOM      8  S   UNL     1      35.258 -18.211 -22.177  0.00  0.00    +0.064 S 
ATOM      9  O   UNL     1      36.478 -17.734 -21.548  0.00  0.00    -0.153 OA
ATOM     10  O   UNL     1      35.336 -19.096 -23.326  0.00  0.00    -0.153 OA
BRANCH   8  11
ATOM     11  C   UNL     1      34.295 -18.985 -20.965  0.00  0.00    +0.141 C 
ATOM     12  C   UNL     1      34.799 -20.088 -20.397  0.00  0.00    +0.021 C 
BRANCH  12  14
ATOM     13 CL   UNL     1      32.088 -23.262 -16.136  0.00  0.00    -0.082 Cl
ATOM     14  C   UNL     1      34.130 -20.872 -19.345  0.00  0.00    +0.001 C 
ATOM     15  C   UNL     1      32.745 -20.912 -19.305  0.00  0.00    +0.001 C 
ATOM     16  C   UNL     1      34.897 -21.555 -18.414  0.00  0.00    +0.001 C 
ATOM     17  C   UNL     1      32.111 -21.654 -18.308  0.00  0.00    +0.011 C 
ATOM     18  C   UNL     1      34.263 -22.297 -17.418  0.00  0.00    +0.011 C 
ATOM     19  C   UNL     1      32.870 -22.347 -17.365  0.00  0.00    +0.058 C 
ENDBRANCH  12  14
ENDBRANCH   8  11
ENDBRANCH   2   8
BRANCH   1  20
ATOM     20  C   UNL     1      32.499 -13.248 -23.913  0.00  0.00    -0.077 C 
BRANCH  20  22
ATOM     21  N   UNL     1      31.947  -9.363 -22.135  0.00  0.00    -0.307 N 
ATOM     22  C   UNL     1      32.672 -12.023 -23.017  0.00  0.00    -0.017 C 
ATOM     23  C   UNL     1      31.405 -11.766 -22.196  0.00  0.00    +0.019 C 
ATOM     24  C   UNL     1      33.002 -10.781 -23.849  0.00  0.00    +0.019 C 
ATOM     25  C   UNL     1      31.549 -10.520 -21.322  0.00  0.00    +0.091 C 
ATOM     26  C   UNL     1      33.138  -9.535 -22.973  0.00  0.00    +0.091 C 
BRANCH  21  28
ATOM     27  N   UNL     1      30.983  -5.528 -20.660  0.00  0.00    -0.242 NA
ATOM     28  C   UNL     1      31.627  -8.091 -21.646  0.00  0.00    +0.051 C 
ATOM     29  C   UNL     1      31.010  -7.133 -22.466  0.00  0.00    +0.035 C 
ATOM     30  C   UNL     1      31.913  -7.732 -20.319  0.00  0.00    +0.035 C 
ATOM     31  C   UNL     1      30.714  -5.889 -21.935  0.00  0.00    +0.100 C 
ATOM     32  C   UNL     1      31.577  -6.462 -19.883  0.00  0.00    +0.100 C 
ENDBRANCH  21  28
ENDBRANCH  20  22
ENDBRANCH   1  20
TORSDOF 6
ENDMDL
MODEL 4
REMARK VINA RESULT:     -11.6      4.663      7.814
REMARK  Name = 446346
REMARK  6 active torsions:
REMARK  status: ('A' for Active; 'I' for Inactive)
REMARK    1  A    between atoms: N_1  and  C_20
REMARK    2  A    between atoms: N_2  and  S_8
REMARK    3  A    between atoms: S_8  and  C_11
REMARK    4  A    between atoms: C_12  and  C_14
REMARK    5  A    between atoms: C_20  and  C_22
REMARK    6  A    between atoms: N_21  and  C_28
REMARK                            x       y       z     vdW  Elec       q    Type
REMARK                         _______ _______ _______ _____ _____    ______ ____
ROOT
ATOM      1  N   UNL     1      32.447 -12.191 -22.086  0.00  0.00    +0.389 N 
ATOM      2  N   UNL     1      33.095 -14.631 -23.461  0.00  0.00    -0.160 NA
ATOM      3  C   UNL     1      32.725 -13.427 -21.342  0.00  0.00    -0.058 C 
ATOM      4  C   UNL     1      31.860 -12.499 -23.397  0.00  0.00    -0.058 C 
ATOM      5  C   UNL     1      33.679 -14.329 -22.123  0.00  0.00    +0.073 C 
ATOM      6  C   UNL     1      32.796 -13.383 -24.218  0.00  0.00    +0.073 C 
ATOM      7  H   UNL     1      33.329 -11.701 -22.235  0.00  0.00    -0.080 HD
ENDROOT
BRANCH   2   8
ATOM      8  S   UNL     1      33.888 -15.861 -24.350  0.00  0.00    +0.064 S 
ATOM      9  O   UNL     1      34.893 -15.226 -25.184  0.00  0.00    -0.153 OA
ATOM     10  O   UNL     1      32.867 -16.697 -24.959  0.00  0.00    -0.153 OA
BRANCH   8  11
ATOM     11  C   UNL     1      34.702 -16.799 -23.144  0.00  0.00    +0.141 C 
ATOM     12  C   UNL     1      34.002 -17.776 -22.555  0.00  0.00    +0.021 C 
BRANCH  12  14
ATOM     13 CL   UNL     1      36.137 -21.434 -18.354  0.00  0.00    -0.082 Cl
ATOM     14  C   UNL     1      34.529 -18.678 -21.517  0.00  0.00    +0.001 C 
ATOM     15  C   UNL     1      35.861 -18.583 -21.146  0.00  0.00    +0.001 C 
ATOM     16  C   UNL     1      33.683 -19.608 -20.931  0.00  0.00    +0.001 C 
ATOM     17  C   UNL     1      36.360 -19.439 -20.165  0.00  0.00    +0.011 C 
ATOM     18  C   UNL     1      34.183 -20.463 -19.949  0.00  0.00    +0.011 C 
ATOM     19  C   UNL     1      35.522 -20.378 -19.566  0.00  0.00    +0.058 C 
ENDBRANCH  12  14
ENDBRANCH   8  11
ENDBRANCH   2   8
BRANCH   1  20
ATOM     20  C   UNL     1      31.562 -11.317 -21.318  0.00  0.00    -0.077 C 
BRANCH  20  22
ATOM     21  N   UNL     1      31.119  -7.125 -22.207  0.00  0.00    -0.307 N 
ATOM     22  C   UNL     1      31.879  -9.843 -21.563  0.00  0.00    -0.017 C 
ATOM     23  C   UNL     1      31.146  -8.953 -20.555  0.00  0.00    +0.019 C 
ATOM     24  C   UNL     1      31.490  -9.431 -22.986  0.00  0.00    +0.019 C 
ATOM     25  C   UNL     1      31.423  -7.473 -20.812  0.00  0.00    +0.091 C 
ATOM     26  C   UNL     1      31.761  -7.947 -23.237  0.00  0.00    +0.091 C 
BRANCH  21  28
ATOM     27  N   UNL     1      30.190  -3.094 -23.046  0.00  0.00    -0.242 NA
ATOM     28  C   UNL     1      30.811  -5.788 -22.485  0.00  0.00    +0.051 C 
ATOM     29  C   UNL     1      30.389  -4.915 -21.469  0.00  0.00    +0.035 C 
ATOM     30  C   UNL     1      30.914  -5.277 -23.788  0.00  0.00    +0.035 C 
ATOM     31  C   UNL     1      30.096  -3.602 -21.796  0.00  0.00    +0.100 C 
ATOM     32  C   UNL     1      30.597  -3.948 -24.012  0.00  0.00    +0.100 C 
ENDBRANCH  21  28
ENDBRANCH  20  22
ENDBRANCH   1  20
TORSDOF 6
ENDMDL
MODEL 5
REMARK VINA RESULT:     -11.0      6.504     12.714
REMARK  Name = 446346
REMARK  6 active torsions:
REMARK  status: ('A' for Active; 'I' for Inactive)
REMARK    1  A    between atoms: N_1  and  C_20
REMARK    2  A    between atoms: N_2  and  S_8
REMARK    3  A    between atoms: S_8  and  C_11
REMARK    4  A    between atoms: C_12  and  C_14
REMARK    5  A    between atoms: C_20  and  C_22
REMARK    6  A    between atoms: N_21  and  C_28
REMARK                            x       y       z     vdW  Elec       q    Type
REMARK                         _______ _______ _______ _____ _____    ______ ____
ROOT
ATOM      1  N   UNL     1      33.656 -13.819 -23.241  0.00  0.00    +0.389 N 
ATOM      2  N   UNL     1      31.910 -11.779 -22.213  0.00  0.00    -0.160 NA
ATOM      3  C   UNL     1      33.343 -12.621 -24.033  0.00  0.00    -0.058 C 
ATOM      4  C   UNL     1      32.534 -14.160 -22.356  0.00  0.00    -0.058 C 
ATOM      5  C   UNL     1      33.038 -11.432 -23.124  0.00  0.00    +0.073 C 
ATOM      6  C   UNL     1      32.213 -13.001 -21.414  0.00  0.00    +0.073 C 
ATOM      7  H   UNL     1      34.472 -13.617 -22.663  0.00  0.00    -0.080 HD
ENDROOT
BRANCH   2   8
ATOM      8  S   UNL     1      31.244 -10.470 -21.333  0.00  0.00    +0.064 S 
ATOM      9  O   UNL     1      31.653 -10.615 -19.946  0.00  0.00    -0.153 OA
ATOM     10  O   UNL     1      29.833 -10.384 -21.665  0.00  0.00    -0.153 OA
BRANCH   8  11
ATOM     11  C   UNL     1      32.036  -9.075 -21.984  0.00  0.00    +0.141 C 
ATOM     12  C   UNL     1      31.315  -8.283 -22.788  0.00  0.00    +0.021 C 
BRANCH  12  14
ATOM     13 CL   UNL     1      33.339  -3.298 -25.364  0.00  0.00    -0.082 Cl
ATOM     14  C   UNL     1      31.815  -7.052 -23.424  0.00  0.00    +0.001 C 
ATOM     15  C   UNL     1      33.004  -6.494 -22.982  0.00  0.00    +0.001 C 
ATOM     16  C   UNL     1      31.087  -6.475 -24.453  0.00  0.00    +0.001 C 
ATOM     17  C   UNL     1      33.477  -5.328 -23.584  0.00  0.00    +0.011 C 
ATOM     18  C   UNL     1      31.561  -5.309 -25.055  0.00  0.00    +0.011 C 
ATOM     19  C   UNL     1      32.756  -4.736 -24.621  0.00  0.00    +0.058 C 
ENDBRANCH  12  14
ENDBRANCH   8  11
ENDBRANCH   2   8
BRANCH   1  20
ATOM     20  C   UNL     1      33.982 -14.944 -24.116  0.00  0.00    -0.077 C 
BRANCH  20  22
ATOM     21  N   UNL     1      34.360 -18.339 -21.492  0.00  0.00    -0.307 N 
ATOM     22  C   UNL     1      34.571 -16.112 -23.330  0.00  0.00    -0.017 C 
ATOM     23  C   UNL     1      33.909 -17.432 -23.738  0.00  0.00    +0.019 C 
ATOM     24  C   UNL     1      34.400 -15.899 -21.823  0.00  0.00    +0.019 C 
ATOM     25  C   UNL     1      34.463 -18.607 -22.933  0.00  0.00    +0.091 C 
ATOM     26  C   UNL     1      34.947 -17.080 -21.021  0.00  0.00    +0.091 C 
BRANCH  21  28
ATOM     27  N   UNL     1      34.231 -21.668 -18.900  0.00  0.00    -0.242 NA
ATOM     28  C   UNL     1      34.317 -19.443 -20.632  0.00  0.00    +0.051 C 
ATOM     29  C   UNL     1      35.496 -20.015 -20.128  0.00  0.00    +0.035 C 
ATOM     30  C   UNL     1      33.094 -20.013 -20.246  0.00  0.00    +0.035 C 
ATOM     31  C   UNL     1      35.400 -21.106 -19.282  0.00  0.00    +0.100 C 
ATOM     32  C   UNL     1      33.105 -21.105 -19.394  0.00  0.00    +0.100 C 
ENDBRANCH  21  28
ENDBRANCH  20  22
ENDBRANCH   1  20
TORSDOF 6
ENDMDL
MODEL 6
REMARK VINA RESULT:     -10.8      3.983      6.794
REMARK  Name = 446346
REMARK  6 active torsions:
REMARK  status: ('A' for Active; 'I' for Inactive)
REMARK    1  A    between atoms: N_1  and  C_20
REMARK    2  A    between atoms: N_2  and  S_8
REMARK    3  A    between atoms: S_8  and  C_11
REMARK    4  A    between atoms: C_12  and  C_14
REMARK    5  A    between atoms: C_20  and  C_22
REMARK    6  A    between atoms: N_21  and  C_28
REMARK                            x       y       z     vdW  Elec       q    Type
REMARK                         _______ _______ _______ _____ _____    ______ ____
ROOT
ATOM      1  N   UNL     1      32.581 -12.883 -21.610  0.00  0.00    +0.389 N 
ATOM      2  N   UNL     1      33.634 -15.484 -22.235  0.00  0.00    -0.160 NA
ATOM      3  C   UNL     1      32.650 -13.937 -20.587  0.00  0.00    -0.058 C 
ATOM      4  C   UNL     1      32.402 -13.470 -22.944  0.00  0.00    -0.058 C 
ATOM      5  C   UNL     1      33.802 -14.898 -20.874  0.00  0.00    +0.073 C 
ATOM      6  C   UNL     1      33.549 -14.423 -23.278  0.00  0.00    +0.073 C 
ATOM      7  H   UNL     1      33.461 -12.368 -21.600  0.00  0.00    -0.080 HD
ENDROOT
BRANCH   2   8
ATOM      8  S   UNL     1      34.667 -16.799 -22.604  0.00  0.00    +0.064 S 
ATOM      9  O   UNL     1      36.023 -16.285 -22.694  0.00  0.00    -0.153 OA
ATOM     10  O   UNL     1      34.090 -17.516 -23.727  0.00  0.00    -0.153 OA
BRANCH   8  11
ATOM     11  C   UNL     1      34.570 -17.818 -21.208  0.00  0.00    +0.141 C 
ATOM     12  C   UNL     1      34.021 -19.028 -21.372  0.00  0.00    +0.021 C 
BRANCH  12  14
ATOM     13 CL   UNL     1      33.383 -23.088 -17.048  0.00  0.00    -0.082 Cl
ATOM     14  C   UNL     1      33.863 -20.032 -20.305  0.00  0.00    +0.001 C 
ATOM     15  C   UNL     1      32.592 -20.353 -19.858  0.00  0.00    +0.001 C 
ATOM     16  C   UNL     1      34.990 -20.634 -19.767  0.00  0.00    +0.001 C 
ATOM     17  C   UNL     1      32.443 -21.302 -18.846  0.00  0.00    +0.011 C 
ATOM     18  C   UNL     1      34.840 -21.583 -18.756  0.00  0.00    +0.011 C 
ATOM     19  C   UNL     1      33.567 -21.917 -18.296  0.00  0.00    +0.058 C 
ENDBRANCH  12  14
ENDBRANCH   8  11
ENDBRANCH   2   8
BRANCH   1  20
ATOM     20  C   UNL     1      31.499 -11.946 -21.310  0.00  0.00    -0.077 C 
BRANCH  20  22
ATOM     21  N   UNL     1      31.475  -7.726 -22.171  0.00  0.00    -0.307 N 
ATOM     22  C   UNL     1      31.949 -10.498 -21.483  0.00  0.00    -0.017 C 
ATOM     23  C   UNL     1      31.150  -9.566 -20.565  0.00  0.00    +0.019 C 
ATOM     24  C   UNL     1      31.785 -10.045 -22.937  0.00  0.00    +0.019 C 
ATOM     25  C   UNL     1      31.563  -8.107 -20.755  0.00  0.00    +0.091 C 
ATOM     26  C   UNL     1      32.192  -8.582 -23.121  0.00  0.00    +0.091 C 
BRANCH  21  28
ATOM     27  N   UNL     1      30.954  -3.631 -23.052  0.00  0.00    -0.242 NA
ATOM     28  C   UNL     1      31.302  -6.367 -22.463  0.00  0.00    +0.051 C 
ATOM     29  C   UNL     1      30.640  -5.956 -23.631  0.00  0.00    +0.035 C 
ATOM     30  C   UNL     1      31.786  -5.373 -21.599  0.00  0.00    +0.035 C 
ATOM     31  C   UNL     1      30.495  -4.601 -23.874  0.00  0.00    +0.100 C 
ATOM     32  C   UNL     1      31.590  -4.044 -21.933  0.00  0.00    +0.100 C 
ENDBRANCH  21  28
ENDBRANCH  20  22
ENDBRANCH   1  20
TORSDOF 6
ENDMDL
MODEL 7
REMARK VINA RESULT:     -10.8      1.409      2.061
REMARK  Name = 446346
REMARK  6 active torsions:
REMARK  status: ('A' for Active; 'I' for Inactive)
REMARK    1  A    between atoms: N_1  and  C_20
REMARK    2  A    between atoms: N_2  and  S_8
REMARK    3  A    between atoms: S_8  and  C_11
REMARK    4  A    between atoms: C_12  and  C_14
REMARK    5  A    between atoms: C_20  and  C_22
REMARK    6  A    between atoms: N_21  and  C_28
REMARK                            x       y       z     vdW  Elec       q    Type
REMARK                         _______ _______ _______ _____ _____    ______ ____
ROOT
ATOM      1  N   UNL     1      34.858 -19.404 -20.144  0.00  0.00    +0.389 N 
ATOM      2  N   UNL     1      33.691 -21.803 -19.071  0.00  0.00    -0.160 NA
ATOM      3  C   UNL     1      33.495 -19.813 -20.513  0.00  0.00    -0.058 C 
ATOM      4  C   UNL     1      35.687 -20.580 -19.846  0.00  0.00    -0.058 C 
ATOM      5  C   UNL     1      32.845 -20.617 -19.389  0.00  0.00    +0.073 C 
ATOM      6  C   UNL     1      35.080 -21.400 -18.709  0.00  0.00    +0.073 C 
ATOM      7  H   UNL     1      34.804 -18.827 -19.304  0.00  0.00    -0.080 HD
ENDROOT
BRANCH   2   8
ATOM      8  S   UNL     1      32.970 -22.969 -18.044  0.00  0.00    +0.064 S 
ATOM      9  O   UNL     1      33.073 -24.260 -18.701  0.00  0.00    -0.153 OA
ATOM     10  O   UNL     1      31.669 -22.464 -17.643  0.00  0.00    -0.153 OA
BRANCH   8  11
ATOM     11  C   UNL     1      33.992 -22.993 -16.647  0.00  0.00    +0.141 C 
ATOM     12  C   UNL     1      33.398 -23.164 -15.460  0.00  0.00    +0.021 C 
BRANCH  12  14
ATOM     13 CL   UNL     1      36.257 -23.388 -10.229  0.00  0.00    -0.082 Cl
ATOM     14  C   UNL     1      34.104 -23.220 -14.168  0.00  0.00    +0.001 C 
ATOM     15  C   UNL     1      33.480 -23.804 -13.077  0.00  0.00    +0.001 C 
ATOM     16  C   UNL     1      35.380 -22.687 -14.067  0.00  0.00    +0.001 C 
ATOM     17  C   UNL     1      34.148 -23.855 -11.854  0.00  0.00    +0.011 C 
ATOM     18  C   UNL     1      36.048 -22.739 -12.844  0.00  0.00    +0.011 C 
ATOM     19  C   UNL     1      35.432 -23.324 -11.737  0.00  0.00    +0.058 C 
ENDBRANCH  12  14
ENDBRANCH   8  11
ENDBRANCH   2   8
BRANCH   1  20
ATOM     20  C   UNL     1      35.462 -18.606 -21.209  0.00  0.00    -0.077 C 
BRANCH  20  22
ATOM     21  N   UNL     1      33.868 -15.025 -22.997  0.00  0.00    -0.307 N 
ATOM     22  C   UNL     1      34.486 -17.564 -21.750  0.00  0.00    -0.017 C 
ATOM     23  C   UNL     1      34.716 -17.326 -23.245  0.00  0.00    +0.019 C 
ATOM     24  C   UNL     1      34.627 -16.239 -20.994  0.00  0.00    +0.019 C 
ATOM     25  C   UNL     1      33.771 -16.257 -23.793  0.00  0.00    +0.091 C 
ATOM     26  C   UNL     1      33.686 -15.170 -21.549  0.00  0.00    +0.091 C 
BRANCH  21  28
ATOM     27  N   UNL     1      32.780 -11.406 -24.877  0.00  0.00    -0.242 NA
ATOM     28  C   UNL     1      33.507 -13.825 -23.621  0.00  0.00    +0.051 C 
ATOM     29  C   UNL     1      33.046 -13.808 -24.947  0.00  0.00    +0.035 C 
ATOM     30  C   UNL     1      33.594 -12.600 -22.940  0.00  0.00    +0.035 C 
ATOM     31  C   UNL     1      32.702 -12.594 -25.518  0.00  0.00    +0.100 C 
ATOM     32  C   UNL     1      33.225 -11.441 -23.601  0.00  0.00    +0.100 C 
ENDBRANCH  21  28
ENDBRANCH  20  22
ENDBRANCH   1  20
TORSDOF 6
ENDMDL
MODEL 8
REMARK VINA RESULT:     -10.7      8.529     14.832
REMARK  Name = 446346
REMARK  6 active torsions:
REMARK  status: ('A' for Active; 'I' for Inactive)
REMARK    1  A    between atoms: N_1  and  C_20
REMARK    2  A    between atoms: N_2  and  S_8
REMARK    3  A    between atoms: S_8  and  C_11
REMARK    4  A    between atoms: C_12  and  C_14
REMARK    5  A    between atoms: C_20  and  C_22
REMARK    6  A    between atoms: N_21  and  C_28
REMARK                            x       y       z     vdW  Elec       q    Type
REMARK                         _______ _______ _______ _____ _____    ______ ____
ROOT
ATOM      1  N   UNL     1      31.626  -9.972 -21.510  0.00  0.00    +0.389 N 
ATOM      2  N   UNL     1      31.128  -7.142 -21.397  0.00  0.00    -0.160 NA
ATOM      3  C   UNL     1      31.236  -9.224 -22.714  0.00  0.00    -0.058 C 
ATOM      4  C   UNL     1      31.050  -9.353 -20.309  0.00  0.00    -0.058 C 
ATOM      5  C   UNL     1      31.696  -7.770 -22.624  0.00  0.00    +0.073 C 
ATOM      6  C   UNL     1      31.507  -7.902 -20.172  0.00  0.00    +0.073 C 
ATOM      7  H   UNL     1      32.643  -9.944 -21.431  0.00  0.00    -0.080 HD
ENDROOT
BRANCH   2   8
ATOM      8  S   UNL     1      31.298  -5.442 -21.292  0.00  0.00    +0.064 S 
ATOM      9  O   UNL     1      31.819  -5.130 -19.972  0.00  0.00    -0.153 OA
ATOM     10  O   UNL     1      30.053  -4.842 -21.738  0.00  0.00    -0.153 OA
BRANCH   8  11
ATOM     11  C   UNL     1      32.523  -5.066 -22.456  0.00  0.00    +0.141 C 
ATOM     12  C   UNL     1      32.150  -4.355 -23.528  0.00  0.00    +0.021 C 
BRANCH  12  14
ATOM     13 CL   UNL     1      35.804  -2.658 -27.927  0.00  0.00    -0.082 Cl
ATOM     14  C   UNL     1      33.052  -3.935 -24.614  0.00  0.00    +0.001 C 
ATOM     15  C   UNL     1      32.761  -2.788 -25.334  0.00  0.00    +0.001 C 
ATOM     16  C   UNL     1      34.177  -4.696 -24.895  0.00  0.00    +0.001 C 
ATOM     17  C   UNL     1      33.615  -2.392 -26.364  0.00  0.00    +0.011 C 
ATOM     18  C   UNL     1      35.031  -4.299 -25.923  0.00  0.00    +0.011 C 
ATOM     19  C   UNL     1      34.750  -3.147 -26.658  0.00  0.00    +0.058 C 
ENDBRANCH  12  14
ENDBRANCH   8  11
ENDBRANCH   2   8
BRANCH   1  20
ATOM     20  C   UNL     1      31.213 -11.370 -21.618  0.00  0.00    -0.077 C 
BRANCH  20  22
ATOM     21  N   UNL     1      33.631 -14.923 -21.922  0.00  0.00    -0.307 N 
ATOM     22  C   UNL     1      32.417 -12.309 -21.644  0.00  0.00    -0.017 C 
ATOM     23  C   UNL     1      32.540 -12.998 -23.007  0.00  0.00    +0.019 C 
ATOM     24  C   UNL     1      32.308 -13.369 -20.544  0.00  0.00    +0.019 C 
ATOM     25  C   UNL     1      33.719 -13.970 -23.037  0.00  0.00    +0.091 C 
ATOM     26  C   UNL     1      33.485 -14.344 -20.582  0.00  0.00    +0.091 C 
BRANCH  21  28
ATOM     27  N   UNL     1      35.586 -18.635 -22.380  0.00  0.00    -0.242 NA
ATOM     28  C   UNL     1      34.279 -16.154 -22.074  0.00  0.00    +0.051 C 
ATOM     29  C   UNL     1      34.893 -16.789 -20.982  0.00  0.00    +0.035 C 
ATOM     30  C   UNL     1      34.336 -16.794 -23.322  0.00  0.00    +0.035 C 
ATOM     31  C   UNL     1      35.522 -18.006 -21.185  0.00  0.00    +0.100 C 
ATOM     32  C   UNL     1      34.990 -18.011 -23.420  0.00  0.00    +0.100 C 
ENDBRANCH  21  28
ENDBRANCH  20  22
ENDBRANCH   1  20
TORSDOF 6
ENDMDL
MODEL 9
REMARK VINA RESULT:     -10.3      3.530      4.663
REMARK  Name = 446346
REMARK  6 active torsions:
REMARK  status: ('A' for Active; 'I' for Inactive)
REMARK    1  A    between atoms: N_1  and  C_20
REMARK    2  A    between atoms: N_2  and  S_8
REMARK    3  A    between atoms: S_8  and  C_11
REMARK    4  A    between atoms: C_12  and  C_14
REMARK    5  A    between atoms: C_20  and  C_22
REMARK    6  A    between atoms: N_21  and  C_28
REMARK                            x       y       z     vdW  Elec       q    Type
REMARK                         _______ _______ _______ _____ _____    ______ ____
ROOT
ATOM      1  N   UNL     1      35.280 -20.514 -19.168  0.00  0.00    +0.389 N 
ATOM      2  N   UNL     1      35.173 -22.353 -16.959  0.00  0.00    -0.160 NA
ATOM      3  C   UNL     1      34.335 -21.639 -19.165  0.00  0.00    -0.058 C 
ATOM      4  C   UNL     1      36.491 -20.856 -18.410  0.00  0.00    -0.058 C 
ATOM      5  C   UNL     1      33.946 -22.020 -17.738  0.00  0.00    +0.073 C 
ATOM      6  C   UNL     1      36.145 -21.222 -16.967  0.00  0.00    +0.073 C 
ATOM      7  H   UNL     1      34.832 -19.717 -18.716  0.00  0.00    -0.080 HD
ENDROOT
BRANCH   2   8
ATOM      8  S   UNL     1      34.903 -23.082 -15.434  0.00  0.00    +0.064 S 
ATOM      9  O   UNL     1      35.818 -22.473 -14.484  0.00  0.00    -0.153 OA
ATOM     10  O   UNL     1      34.912 -24.522 -15.623  0.00  0.00    -0.153 OA
BRANCH   8  11
ATOM     11  C   UNL     1      33.293 -22.604 -15.014  0.00  0.00    +0.141 C 
ATOM     12  C   UNL     1      32.298 -23.076 -15.776  0.00  0.00    +0.021 C 
BRANCH  12  14
ATOM     13 CL   UNL     1      26.514 -21.895 -14.923  0.00  0.00    -0.082 Cl
ATOM     14  C   UNL     1      30.869 -22.785 -15.565  0.00  0.00    +0.001 C 
ATOM     15  C   UNL     1      30.051 -22.573 -16.663  0.00  0.00    +0.001 C 
ATOM     16  C   UNL     1      30.371 -22.728 -14.273  0.00  0.00    +0.001 C 
ATOM     17  C   UNL     1      28.698 -22.296 -16.463  0.00  0.00    +0.011 C 
ATOM     18  C   UNL     1      29.018 -22.451 -14.074  0.00  0.00    +0.011 C 
ATOM     19  C   UNL     1      28.182 -22.236 -15.169  0.00  0.00    +0.058 C 
ENDBRANCH  12  14
ENDBRANCH   8  11
ENDBRANCH   2   8
BRANCH   1  20
ATOM     20  C   UNL     1      35.621 -20.132 -20.537  0.00  0.00    -0.077 C 
BRANCH  20  22
ATOM     21  N   UNL     1      34.222 -16.621 -22.605  0.00  0.00    -0.307 N 
ATOM     22  C   UNL     1      34.720 -19.010 -21.046  0.00  0.00    -0.017 C 
ATOM     23  C   UNL     1      34.602 -19.056 -22.573  0.00  0.00    +0.019 C 
ATOM     24  C   UNL     1      35.256 -17.641 -20.616  0.00  0.00    +0.019 C 
ATOM     25  C   UNL     1      33.733 -17.915 -23.101  0.00  0.00    +0.091 C 
ATOM     26  C   UNL     1      34.388 -16.502 -21.152  0.00  0.00    +0.091 C 
BRANCH  21  28
ATOM     27  N   UNL     1      33.288 -13.190 -24.878  0.00  0.00    -0.242 NA
ATOM     28  C   UNL     1      33.912 -15.483 -23.358  0.00  0.00    +0.051 C 
ATOM     29  C   UNL     1      33.562 -15.586 -24.714  0.00  0.00    +0.035 C 
ATOM     30  C   UNL     1      33.942 -14.203 -22.783  0.00  0.00    +0.035 C 
ATOM     31  C   UNL     1      33.264 -14.430 -25.416  0.00  0.00    +0.100 C 
ATOM     32  C   UNL     1      33.627 -13.109 -23.572  0.00  0.00    +0.100 C 
ENDBRANCH  21  28
ENDBRANCH  20  22
ENDBRANCH   1  20
TORSDOF 6
ENDMDL
