MODEL 1
REMARK VINA RESULT:     -12.9      0.000      0.000
REMARK  Name = 10224714
REMARK  8 active torsions:
REMARK  status: ('A' for Active; 'I' for Inactive)
REMARK    1  A    between atoms: N_1  and  C_12
REMARK    2  A    between atoms: N_2  and  CA_30
REMARK    3  A    between atoms: N_15  and  C_17
REMARK    4  A    between atoms: C_17  and  C_18
REMARK    5  A    between atoms: C_21  and  C_25
REMARK    6  A    between atoms: CA_30  and  C_31
REMARK    7  A    between atoms: CA_30  and  C_33
REMARK    8  A    between atoms: C_33  and  O_34
REMARK                            x       y       z     vdW  Elec       q    Type
REMARK                         _______ _______ _______ _____ _____    ______ ____
ROOT
ATOM      1  N   UNL     1      31.405 -23.541 -14.965  0.00  0.00    -0.262 N 
ATOM      2  N   UNL     1      36.143 -23.730 -14.681  0.00  0.00    -0.258 N 
ATOM      3  N   UNL     1      33.803 -23.737 -14.636  0.00  0.00    -0.311 NA
ATOM      4  N   UNL     1      31.372 -22.497 -16.935  0.00  0.00    -0.240 NA
ATOM      5  N   UNL     1      35.036 -22.758 -16.502  0.00  0.00    -0.311 NA
ATOM      6  C   UNL     1      32.712 -23.363 -15.320  0.00  0.00    +0.220 C 
ATOM      7  C   UNL     1      32.669 -22.714 -16.544  0.00  0.00    +0.167 C 
ATOM      8  C   UNL     1      33.890 -22.410 -17.137  0.00  0.00    +0.215 C 
ATOM      9  C   UNL     1      34.951 -23.397 -15.295  0.00  0.00    +0.202 C 
ATOM     10  C   UNL     1      30.639 -23.004 -15.966  0.00  0.00    +0.222 C 
ATOM     11  H   UNL     1      36.983 -23.497 -15.138  0.00  0.00    +0.160 HD
ATOM     12  N   UNL     1      33.943 -21.752 -18.378  0.00  0.00    -0.302 N 
ATOM     13  H   UNL     1      33.095 -21.511 -18.818  0.00  0.00    +0.150 HD
ENDROOT
BRANCH   1  14
ATOM     14  C   UNL     1      30.914 -24.173 -13.765  0.00  0.00    +0.077 C 
ATOM     15  C   UNL     1      30.606 -23.155 -12.665  0.00  0.00    +0.022 C 
ATOM     16  C   UNL     1      29.713 -25.080 -14.045  0.00  0.00    +0.022 C 
ENDBRANCH   1  14
BRANCH  12  17
ATOM     17  C   UNL     1      35.172 -21.415 -19.033  0.00  0.00    +0.116 C 
BRANCH  17  18
ATOM     18  C   UNL     1      34.963 -20.275 -19.991  0.00  0.00    -0.003 C 
ATOM     19  C   UNL     1      33.716 -20.088 -20.574  0.00  0.00    -0.003 C 
ATOM     20  C   UNL     1      36.020 -19.423 -20.282  0.00  0.00    -0.003 C 
ATOM     21  C   UNL     1      34.578 -18.170 -21.762  0.00  0.00    +0.018 C 
ATOM     22  C   UNL     1      33.523 -19.032 -21.463  0.00  0.00    +0.001 C 
ATOM     23  C   UNL     1      35.826 -18.365 -21.172  0.00  0.00    +0.001 C 
BRANCH  21  25
ATOM     24  N   UNL     1      33.975 -17.438 -23.921  0.00  0.00    -0.244 NA
ATOM     25  C   UNL     1      34.377 -17.073 -22.684  0.00  0.00    +0.081 C 
ATOM     26  C   UNL     1      34.592 -15.764 -22.288  0.00  0.00    +0.019 C 
ATOM     27  C   UNL     1      34.379 -14.760 -23.225  0.00  0.00    +0.003 C 
ATOM     28  C   UNL     1      33.779 -16.434 -24.805  0.00  0.00    +0.099 C 
ATOM     29  C   UNL     1      33.965 -15.093 -24.510  0.00  0.00    +0.021 C 
ENDBRANCH  21  25
ENDBRANCH  17  18
ENDBRANCH  12  17
BRANCH   2  30
ATOM     30  CA  UNL     1      36.223 -24.406 -13.400  0.00  0.00    +0.109 C 
BRANCH  30  31
ATOM     31  C   UNL     1      37.234 -23.691 -12.496  0.00  0.00    +0.023 C 
ATOM     32  C   UNL     1      36.583 -22.656 -11.587  0.00  0.00    +0.002 C 
ENDBRANCH  30  31
BRANCH  30  33
ATOM     33  C   UNL     1      36.635 -25.859 -13.636  0.00  0.00    +0.157 C 
BRANCH  33  34
ATOM     34  O   UNL     1      35.706 -26.475 -14.523  0.00  0.00    -0.380 OA
ATOM     35  H   UNL     1      34.804 -26.223 -14.272  0.00  0.00    +0.211 HD
ENDBRANCH  33  34
ENDBRANCH  30  33
ENDBRANCH   2  30
TORSDOF 8
ENDMDL
