MODEL 1
REMARK VINA RESULT:     -10.9      0.000      0.000
REMARK  Name = 5288878
REMARK  9 active torsions:
REMARK  status: ('A' for Active; 'I' for Inactive)
REMARK    1  A    between atoms: C_2  and  C_7
REMARK    2  A    between atoms: C_3  and  C_19
REMARK    3  A    between atoms: C_10  and  C_14
REMARK    4  A    between atoms: C_14  and  O_15
REMARK    5  A    between atoms: N_18  and  CA_21
REMARK    6  A    between atoms: CA_21  and  C_23
REMARK    7  A    between atoms: CA_21  and  CB_24
REMARK    8  A    between atoms: CB_24  and  CG_26
REMARK    9  A    between atoms: CG_26  and  OD1_27
REMARK                            x       y       z     vdW  Elec       q    Type
REMARK                         _______ _______ _______ _____ _____    ______ ____
ROOT
ATOM      1  N   UNL     1      33.457 -23.424 -16.321  0.00  0.00    -0.242 NA
ATOM      2  C   UNL     1      34.644 -21.860 -17.733  0.00  0.00    +0.019 C 
ATOM      3  C   UNL     1      35.693 -22.763 -15.801  0.00  0.00    +0.072 C 
ATOM      4  C   UNL     1      35.756 -21.944 -16.901  0.00  0.00    +0.008 C 
ATOM      5  C   UNL     1      33.529 -22.613 -17.401  0.00  0.00    +0.099 C 
ATOM      6  C   UNL     1      34.556 -23.478 -15.537  0.00  0.00    +0.103 C 
ENDROOT
BRANCH   2   7
ATOM      7  C   UNL     1      34.651 -21.015 -18.903  0.00  0.00    +0.002 C 
ATOM      8  C   UNL     1      33.451 -20.684 -19.534  0.00  0.00    +0.000 C 
ATOM      9  C   UNL     1      35.858 -20.528 -19.408  0.00  0.00    +0.000 C 
ATOM     10  C   UNL     1      34.664 -19.382 -21.169  0.00  0.00    +0.075 C 
ATOM     11  C   UNL     1      33.457 -19.868 -20.667  0.00  0.00    +0.006 C 
ATOM     12  C   UNL     1      35.865 -19.712 -20.539  0.00  0.00    +0.006 C 
BRANCH  10  14
ATOM     13  O   UNL     1      33.811 -18.531 -23.236  0.00  0.00    -0.245 OA
ATOM     14  C   UNL     1      34.671 -18.532 -22.349  0.00  0.00    +0.338 C 
BRANCH  14  15
ATOM     15  O   UNL     1      35.751 -17.704 -22.387  0.00  0.00    -0.477 OA
ATOM     16  H   UNL     1      36.059 -17.299 -21.601  0.00  0.00    +0.295 HD
ENDBRANCH  14  15
ENDBRANCH  10  14
ENDBRANCH   2   7
BRANCH   3  19
ATOM     17  O   UNL     1      37.208 -21.898 -14.234  0.00  0.00    -0.270 OA
ATOM     18  N   UNL     1      37.480 -24.118 -14.844  0.00  0.00    -0.295 N 
ATOM     19  C   ACE A   0      36.864 -22.875 -14.894  0.00  0.00    +0.248 C 
ATOM     20  H   UNL     1      37.131 -24.842 -15.413  0.00  0.00    +0.150 HD
BRANCH  18  21
ATOM     21  CA  UNL     1      38.611 -24.391 -13.995  0.00  0.00    +0.148 C 
BRANCH  21  23
ATOM     22  O   UNL     1      40.111 -26.217 -14.514  0.00  0.00    -0.286 OA
ATOM     23  C   UNL     1      39.623 -25.137 -14.838  0.00  0.00    +0.227 C 
ENDBRANCH  21  23
BRANCH  21  24
ATOM     24  CB  UNL     1      38.214 -25.174 -12.751  0.00  0.00    +0.137 C 
BRANCH  24  26
ATOM     25  OD2 UNL     1      36.852 -26.957 -13.649  0.00  0.00    -0.250 OA
ATOM     26  CG  UNL     1      36.932 -25.940 -12.974  0.00  0.00    +0.316 C 
BRANCH  26  27
ATOM     27  OD1 UNL     1      35.869 -25.365 -12.358  0.00  0.00    -0.480 OA
ATOM     28  HD1 UNL     1      35.707 -24.449 -12.460  0.00  0.00    +0.295 HD
ENDBRANCH  26  27
ENDBRANCH  24  26
ENDBRANCH  21  24
ENDBRANCH  18  21
ENDBRANCH   3  19
TORSDOF 9
ENDMDL
MODEL 2
REMARK VINA RESULT:     -10.7      1.076      1.450
REMARK  Name = 5288878
REMARK  9 active torsions:
REMARK  status: ('A' for Active; 'I' for Inactive)
REMARK    1  A    between atoms: C_2  and  C_7
REMARK    2  A    between atoms: C_3  and  C_19
REMARK    3  A    between atoms: C_10  and  C_14
REMARK    4  A    between atoms: C_14  and  O_15
REMARK    5  A    between atoms: N_18  and  CA_21
REMARK    6  A    between atoms: CA_21  and  C_23
REMARK    7  A    between atoms: CA_21  and  CB_24
REMARK    8  A    between atoms: CB_24  and  CG_26
REMARK    9  A    between atoms: CG_26  and  OD1_27
REMARK                            x       y       z     vdW  Elec       q    Type
REMARK                         _______ _______ _______ _____ _____    ______ ____
ROOT
ATOM      1  N   UNL     1      33.003 -23.200 -16.513  0.00  0.00    -0.242 NA
ATOM      2  C   UNL     1      34.309 -21.739 -17.930  0.00  0.00    +0.019 C 
ATOM      3  C   UNL     1      35.282 -22.708 -15.990  0.00  0.00    +0.072 C 
ATOM      4  C   UNL     1      35.409 -21.902 -17.095  0.00  0.00    +0.008 C 
ATOM      5  C   UNL     1      33.139 -22.404 -17.597  0.00  0.00    +0.099 C 
ATOM      6  C   UNL     1      34.094 -23.333 -15.726  0.00  0.00    +0.103 C 
ENDROOT
BRANCH   2   7
ATOM      7  C   UNL     1      34.382 -20.904 -19.105  0.00  0.00    +0.002 C 
ATOM      8  C   UNL     1      33.213 -20.498 -19.750  0.00  0.00    +0.000 C 
ATOM      9  C   UNL     1      35.624 -20.501 -19.601  0.00  0.00    +0.000 C 
ATOM     10  C   UNL     1      34.524 -19.290 -21.380  0.00  0.00    +0.075 C 
ATOM     11  C   UNL     1      33.283 -19.692 -20.887  0.00  0.00    +0.006 C 
ATOM     12  C   UNL     1      35.695 -19.694 -20.737  0.00  0.00    +0.006 C 
BRANCH  10  14
ATOM     13  O   UNL     1      33.810 -18.482 -23.516  0.00  0.00    -0.245 OA
ATOM     14  C   UNL     1      34.598 -18.450 -22.565  0.00  0.00    +0.338 C 
BRANCH  14  15
ATOM     15  O   UNL     1      35.653 -17.590 -22.528  0.00  0.00    -0.477 OA
ATOM     16  H   UNL     1      36.399 -17.740 -23.075  0.00  0.00    +0.295 HD
ENDBRANCH  14  15
ENDBRANCH  10  14
ENDBRANCH   2   7
BRANCH   3  19
ATOM     17  O   UNL     1      37.173 -21.950 -14.829  0.00  0.00    -0.270 OA
ATOM     18  N   UNL     1      36.589 -24.177 -14.549  0.00  0.00    -0.295 N 
ATOM     19  C   ACE A   0      36.439 -22.902 -15.079  0.00  0.00    +0.248 C 
ATOM     20  H   UNL     1      35.949 -24.877 -14.810  0.00  0.00    +0.150 HD
BRANCH  18  21
ATOM     21  CA  UNL     1      37.647 -24.516 -13.632  0.00  0.00    +0.148 C 
BRANCH  21  23
ATOM     22  O   UNL     1      38.087 -26.789 -14.329  0.00  0.00    -0.286 OA
ATOM     23  C   UNL     1      38.455 -25.618 -14.282  0.00  0.00    +0.227 C 
ENDBRANCH  21  23
BRANCH  21  24
ATOM     24  CB  UNL     1      37.108 -24.928 -12.269  0.00  0.00    +0.137 C 
BRANCH  24  26
ATOM     25  OD2 UNL     1      36.529 -23.793 -10.216  0.00  0.00    -0.250 OA
ATOM     26  CG  UNL     1      37.027 -23.747 -11.333  0.00  0.00    +0.316 C 
BRANCH  26  27
ATOM     27  OD1 UNL     1      37.551 -22.618 -11.872  0.00  0.00    -0.480 OA
ATOM     28  HD1 UNL     1      37.468 -22.456 -12.791  0.00  0.00    +0.295 HD
ENDBRANCH  26  27
ENDBRANCH  24  26
ENDBRANCH  21  24
ENDBRANCH  18  21
ENDBRANCH   3  19
TORSDOF 9
ENDMDL
MODEL 3
REMARK VINA RESULT:     -10.6      0.927      1.966
REMARK  Name = 5288878
REMARK  9 active torsions:
REMARK  status: ('A' for Active; 'I' for Inactive)
REMARK    1  A    between atoms: C_2  and  C_7
REMARK    2  A    between atoms: C_3  and  C_19
REMARK    3  A    between atoms: C_10  and  C_14
REMARK    4  A    between atoms: C_14  and  O_15
REMARK    5  A    between atoms: N_18  and  CA_21
REMARK    6  A    between atoms: CA_21  and  C_23
REMARK    7  A    between atoms: CA_21  and  CB_24
REMARK    8  A    between atoms: CB_24  and  CG_26
REMARK    9  A    between atoms: CG_26  and  OD1_27
REMARK                            x       y       z     vdW  Elec       q    Type
REMARK                         _______ _______ _______ _____ _____    ______ ____
ROOT
ATOM      1  N   UNL     1      33.122 -23.376 -16.299  0.00  0.00    -0.242 NA
ATOM      2  C   UNL     1      34.431 -21.902 -17.700  0.00  0.00    +0.019 C 
ATOM      3  C   UNL     1      35.399 -22.885 -15.765  0.00  0.00    +0.072 C 
ATOM      4  C   UNL     1      35.529 -22.071 -16.863  0.00  0.00    +0.008 C 
ATOM      5  C   UNL     1      33.261 -22.570 -17.376  0.00  0.00    +0.099 C 
ATOM      6  C   UNL     1      34.210 -23.514 -15.509  0.00  0.00    +0.103 C 
ENDROOT
BRANCH   2   7
ATOM      7  C   UNL     1      34.507 -21.057 -18.868  0.00  0.00    +0.002 C 
ATOM      8  C   UNL     1      33.341 -20.675 -19.533  0.00  0.00    +0.000 C 
ATOM      9  C   UNL     1      35.748 -20.620 -19.336  0.00  0.00    +0.000 C 
ATOM     10  C   UNL     1      34.655 -19.424 -21.129  0.00  0.00    +0.075 C 
ATOM     11  C   UNL     1      33.415 -19.860 -20.663  0.00  0.00    +0.006 C 
ATOM     12  C   UNL     1      35.823 -19.804 -20.466  0.00  0.00    +0.006 C 
BRANCH  10  14
ATOM     13  O   UNL     1      33.868 -18.488 -23.185  0.00  0.00    -0.245 OA
ATOM     14  C   UNL     1      34.732 -18.574 -22.307  0.00  0.00    +0.338 C 
BRANCH  14  15
ATOM     15  O   UNL     1      35.886 -17.854 -22.354  0.00  0.00    -0.477 OA
ATOM     16  H   UNL     1      36.357 -17.775 -23.160  0.00  0.00    +0.295 HD
ENDBRANCH  14  15
ENDBRANCH  10  14
ENDBRANCH   2   7
BRANCH   3  19
ATOM     17  O   UNL     1      37.247 -22.122 -14.540  0.00  0.00    -0.270 OA
ATOM     18  N   UNL     1      36.747 -24.382 -14.391  0.00  0.00    -0.295 N 
ATOM     19  C   ACE A   0      36.553 -23.086 -14.852  0.00  0.00    +0.248 C 
ATOM     20  H   UNL     1      36.137 -25.090 -14.699  0.00  0.00    +0.150 HD
BRANCH  18  21
ATOM     21  CA  UNL     1      37.808 -24.732 -13.481  0.00  0.00    +0.148 C 
BRANCH  21  23
ATOM     22  O   UNL     1      37.196 -24.774 -11.142  0.00  0.00    -0.286 OA
ATOM     23  C   UNL     1      37.460 -24.114 -12.144  0.00  0.00    +0.227 C 
ENDBRANCH  21  23
BRANCH  21  24
ATOM     24  CB  UNL     1      39.167 -24.272 -13.989  0.00  0.00    +0.137 C 
BRANCH  24  26
ATOM     25  OD2 UNL     1      40.643 -26.169 -13.739  0.00  0.00    -0.250 OA
ATOM     26  CG  UNL     1      39.993 -25.438 -14.474  0.00  0.00    +0.316 C 
BRANCH  26  27
ATOM     27  OD1 UNL     1      39.954 -25.579 -15.823  0.00  0.00    -0.480 OA
ATOM     28  HD1 UNL     1      39.271 -25.170 -16.317  0.00  0.00    +0.295 HD
ENDBRANCH  26  27
ENDBRANCH  24  26
ENDBRANCH  21  24
ENDBRANCH  18  21
ENDBRANCH   3  19
TORSDOF 9
ENDMDL
MODEL 4
REMARK VINA RESULT:     -10.5      3.082      5.157
REMARK  Name = 5288878
REMARK  9 active torsions:
REMARK  status: ('A' for Active; 'I' for Inactive)
REMARK    1  A    between atoms: C_2  and  C_7
REMARK    2  A    between atoms: C_3  and  C_19
REMARK    3  A    between atoms: C_10  and  C_14
REMARK    4  A    between atoms: C_14  and  O_15
REMARK    5  A    between atoms: N_18  and  CA_21
REMARK    6  A    between atoms: CA_21  and  C_23
REMARK    7  A    between atoms: CA_21  and  CB_24
REMARK    8  A    between atoms: CB_24  and  CG_26
REMARK    9  A    between atoms: CG_26  and  OD1_27
REMARK                            x       y       z     vdW  Elec       q    Type
REMARK                         _______ _______ _______ _____ _____    ______ ____
ROOT
ATOM      1  N   UNL     1      36.554 -20.389 -18.638  0.00  0.00    -0.242 NA
ATOM      2  C   UNL     1      34.972 -19.672 -20.321  0.00  0.00    +0.019 C 
ATOM      3  C   UNL     1      34.402 -21.415 -18.807  0.00  0.00    +0.072 C 
ATOM      4  C   UNL     1      34.052 -20.610 -19.864  0.00  0.00    +0.008 C 
ATOM      5  C   UNL     1      36.198 -19.603 -19.680  0.00  0.00    +0.099 C 
ATOM      6  C   UNL     1      35.634 -21.288 -18.223  0.00  0.00    +0.103 C 
ENDROOT
BRANCH   2   7
ATOM      7  C   UNL     1      34.660 -18.800 -21.427  0.00  0.00    +0.002 C 
ATOM      8  C   UNL     1      34.964 -17.440 -21.354  0.00  0.00    +0.000 C 
ATOM      9  C   UNL     1      34.051 -19.314 -22.574  0.00  0.00    +0.000 C 
ATOM     10  C   UNL     1      34.054 -17.111 -23.568  0.00  0.00    +0.075 C 
ATOM     11  C   UNL     1      34.661 -16.596 -22.423  0.00  0.00    +0.006 C 
ATOM     12  C   UNL     1      33.749 -18.471 -23.644  0.00  0.00    +0.006 C 
BRANCH  10  14
ATOM     13  O   UNL     1      34.513 -15.414 -25.190  0.00  0.00    -0.245 OA
ATOM     14  C   UNL     1      33.739 -16.232 -24.683  0.00  0.00    +0.338 C 
BRANCH  14  15
ATOM     15  O   UNL     1      32.467 -16.402 -25.135  0.00  0.00    -0.477 OA
ATOM     16  H   UNL     1      31.742 -16.125 -24.610  0.00  0.00    +0.295 HD
ENDBRANCH  14  15
ENDBRANCH  10  14
ENDBRANCH   2   7
BRANCH   3  19
ATOM     17  O   UNL     1      33.098 -23.350 -19.027  0.00  0.00    -0.270 OA
ATOM     18  N   UNL     1      33.015 -22.252 -16.986  0.00  0.00    -0.295 N 
ATOM     19  C   ACE A   0      33.442 -22.425 -18.296  0.00  0.00    +0.248 C 
ATOM     20  H   UNL     1      33.347 -21.477 -16.479  0.00  0.00    +0.150 HD
BRANCH  18  21
ATOM     21  CA  UNL     1      32.103 -23.161 -16.340  0.00  0.00    +0.148 C 
BRANCH  21  23
ATOM     22  O   UNL     1      30.145 -21.948 -17.077  0.00  0.00    -0.286 OA
ATOM     23  C   UNL     1      30.801 -22.415 -16.149  0.00  0.00    +0.227 C 
ENDBRANCH  21  23
BRANCH  21  24
ATOM     24  CB  UNL     1      32.661 -23.687 -15.025  0.00  0.00    +0.137 C 
BRANCH  24  26
ATOM     25  OD2 UNL     1      34.984 -24.207 -15.440  0.00  0.00    -0.250 OA
ATOM     26  CG  UNL     1      34.151 -23.466 -14.935  0.00  0.00    +0.316 C 
BRANCH  26  27
ATOM     27  OD1 UNL     1      34.472 -22.364 -14.214  0.00  0.00    -0.480 OA
ATOM     28  HD1 UNL     1      34.294 -22.337 -13.295  0.00  0.00    +0.295 HD
ENDBRANCH  26  27
ENDBRANCH  24  26
ENDBRANCH  21  24
ENDBRANCH  18  21
ENDBRANCH   3  19
TORSDOF 9
ENDMDL
MODEL 5
REMARK VINA RESULT:     -10.4      3.325      5.606
REMARK  Name = 5288878
REMARK  9 active torsions:
REMARK  status: ('A' for Active; 'I' for Inactive)
REMARK    1  A    between atoms: C_2  and  C_7
REMARK    2  A    between atoms: C_3  and  C_19
REMARK    3  A    between atoms: C_10  and  C_14
REMARK    4  A    between atoms: C_14  and  O_15
REMARK    5  A    between atoms: N_18  and  CA_21
REMARK    6  A    between atoms: CA_21  and  C_23
REMARK    7  A    between atoms: CA_21  and  CB_24
REMARK    8  A    between atoms: CB_24  and  CG_26
REMARK    9  A    between atoms: CG_26  and  OD1_27
REMARK                            x       y       z     vdW  Elec       q    Type
REMARK                         _______ _______ _______ _____ _____    ______ ____
ROOT
ATOM      1  N   UNL     1      36.530 -19.948 -19.715  0.00  0.00    -0.242 NA
ATOM      2  C   UNL     1      34.816 -18.829 -21.003  0.00  0.00    +0.019 C 
ATOM      3  C   UNL     1      34.250 -20.655 -19.590  0.00  0.00    +0.072 C 
ATOM      4  C   UNL     1      33.854 -19.687 -20.481  0.00  0.00    +0.008 C 
ATOM      5  C   UNL     1      36.128 -19.000 -20.591  0.00  0.00    +0.099 C 
ATOM      6  C   UNL     1      35.567 -20.763 -19.230  0.00  0.00    +0.103 C 
ENDROOT
BRANCH   2   7
ATOM      7  C   UNL     1      34.460 -17.793 -21.943  0.00  0.00    +0.002 C 
ATOM      8  C   UNL     1      33.958 -18.132 -23.201  0.00  0.00    +0.000 C 
ATOM      9  C   UNL     1      34.616 -16.449 -21.597  0.00  0.00    +0.000 C 
ATOM     10  C   UNL     1      33.771 -15.789 -23.762  0.00  0.00    +0.075 C 
ATOM     11  C   UNL     1      33.614 -17.131 -24.110  0.00  0.00    +0.006 C 
ATOM     12  C   UNL     1      34.272 -15.448 -22.505  0.00  0.00    +0.006 C 
BRANCH  10  14
ATOM     13  O   UNL     1      33.200 -14.915 -25.915  0.00  0.00    -0.245 OA
ATOM     14  C   UNL     1      33.413 -14.745 -24.710  0.00  0.00    +0.338 C 
BRANCH  14  15
ATOM     15  O   UNL     1      33.328 -13.520 -24.126  0.00  0.00    -0.477 OA
ATOM     16  H   UNL     1      33.738 -12.779 -24.528  0.00  0.00    +0.295 HD
ENDBRANCH  14  15
ENDBRANCH  10  14
ENDBRANCH   2   7
BRANCH   3  19
ATOM     17  O   UNL     1      32.246 -21.868 -19.668  0.00  0.00    -0.270 OA
ATOM     18  N   UNL     1      33.542 -22.100 -17.759  0.00  0.00    -0.295 N 
ATOM     19  C   ACE A   0      33.247 -21.587 -19.015  0.00  0.00    +0.248 C 
ATOM     20  H   UNL     1      34.372 -21.814 -17.314  0.00  0.00    +0.150 HD
BRANCH  18  21
ATOM     21  CA  UNL     1      32.680 -23.033 -17.080  0.00  0.00    +0.148 C 
BRANCH  21  23
ATOM     22  O   UNL     1      30.756 -22.404 -15.757  0.00  0.00    -0.286 OA
ATOM     23  C   UNL     1      31.376 -22.313 -16.814  0.00  0.00    +0.227 C 
ENDBRANCH  21  23
BRANCH  21  24
ATOM     24  CB  UNL     1      33.313 -23.565 -15.801  0.00  0.00    +0.137 C 
BRANCH  24  26
ATOM     25  OD2 UNL     1      35.676 -23.080 -15.942  0.00  0.00    -0.250 OA
ATOM     26  CG  UNL     1      34.580 -22.817 -15.466  0.00  0.00    +0.316 C 
BRANCH  26  27
ATOM     27  OD1 UNL     1      34.377 -21.829 -14.559  0.00  0.00    -0.480 OA
ATOM     28  HD1 UNL     1      33.923 -22.011 -13.761  0.00  0.00    +0.295 HD
ENDBRANCH  26  27
ENDBRANCH  24  26
ENDBRANCH  21  24
ENDBRANCH  18  21
ENDBRANCH   3  19
TORSDOF 9
ENDMDL
MODEL 6
REMARK VINA RESULT:     -10.3      1.763      2.447
REMARK  Name = 5288878
REMARK  9 active torsions:
REMARK  status: ('A' for Active; 'I' for Inactive)
REMARK    1  A    between atoms: C_2  and  C_7
REMARK    2  A    between atoms: C_3  and  C_19
REMARK    3  A    between atoms: C_10  and  C_14
REMARK    4  A    between atoms: C_14  and  O_15
REMARK    5  A    between atoms: N_18  and  CA_21
REMARK    6  A    between atoms: CA_21  and  C_23
REMARK    7  A    between atoms: CA_21  and  CB_24
REMARK    8  A    between atoms: CB_24  and  CG_26
REMARK    9  A    between atoms: CG_26  and  OD1_27
REMARK                            x       y       z     vdW  Elec       q    Type
REMARK                         _______ _______ _______ _____ _____    ______ ____
ROOT
ATOM      1  N   UNL     1      30.987 -23.471 -15.819  0.00  0.00    -0.242 NA
ATOM      2  C   UNL     1      32.868 -22.406 -16.901  0.00  0.00    +0.019 C 
ATOM      3  C   UNL     1      33.146 -23.472 -14.795  0.00  0.00    +0.072 C 
ATOM      4  C   UNL     1      33.692 -22.768 -15.841  0.00  0.00    +0.008 C 
ATOM      5  C   UNL     1      31.535 -22.778 -16.842  0.00  0.00    +0.099 C 
ATOM      6  C   UNL     1      31.818 -23.805 -14.807  0.00  0.00    +0.103 C 
ENDROOT
BRANCH   2   7
ATOM      7  C   UNL     1      33.386 -21.665 -18.027  0.00  0.00    +0.002 C 
ATOM      8  C   UNL     1      32.511 -21.008 -18.894  0.00  0.00    +0.000 C 
ATOM      9  C   UNL     1      34.762 -21.606 -18.253  0.00  0.00    +0.000 C 
ATOM     10  C   UNL     1      34.386 -20.234 -20.207  0.00  0.00    +0.075 C 
ATOM     11  C   UNL     1      33.011 -20.293 -19.983  0.00  0.00    +0.006 C 
ATOM     12  C   UNL     1      35.263 -20.891 -19.342  0.00  0.00    +0.006 C 
BRANCH  10  14
ATOM     13  O   UNL     1      34.410 -19.466 -22.472  0.00  0.00    -0.245 OA
ATOM     14  C   UNL     1      34.908 -19.489 -21.342  0.00  0.00    +0.338 C 
BRANCH  14  15
ATOM     15  O   UNL     1      36.035 -18.793 -21.034  0.00  0.00    -0.477 OA
ATOM     16  H   UNL     1      36.481 -18.304 -21.698  0.00  0.00    +0.295 HD
ENDBRANCH  14  15
ENDBRANCH  10  14
ENDBRANCH   2   7
BRANCH   3  19
ATOM     17  O   UNL     1      33.556 -23.776 -12.507  0.00  0.00    -0.270 OA
ATOM     18  N   UNL     1      35.258 -24.364 -13.968  0.00  0.00    -0.295 N 
ATOM     19  C   ACE A   0      33.999 -23.874 -13.648  0.00  0.00    +0.248 C 
ATOM     20  H   UNL     1      35.524 -24.404 -14.914  0.00  0.00    +0.150 HD
BRANCH  18  21
ATOM     21  CA  UNL     1      36.191 -24.817 -12.968  0.00  0.00    +0.148 C 
BRANCH  21  23
ATOM     22  O   UNL     1      38.409 -23.879 -12.740  0.00  0.00    -0.286 OA
ATOM     23  C   UNL     1      37.194 -23.701 -12.766  0.00  0.00    +0.227 C 
ENDBRANCH  21  23
BRANCH  21  24
ATOM     24  CB  UNL     1      36.862 -26.124 -13.366  0.00  0.00    +0.137 C 
BRANCH  24  26
ATOM     25  OD2 UNL     1      36.243 -26.811 -15.600  0.00  0.00    -0.250 OA
ATOM     26  CG  UNL     1      37.024 -26.222 -14.864  0.00  0.00    +0.316 C 
BRANCH  26  27
ATOM     27  OD1 UNL     1      38.145 -25.601 -15.308  0.00  0.00    -0.480 OA
ATOM     28  HD1 UNL     1      38.127 -25.118 -16.110  0.00  0.00    +0.295 HD
ENDBRANCH  26  27
ENDBRANCH  24  26
ENDBRANCH  21  24
ENDBRANCH  18  21
ENDBRANCH   3  19
TORSDOF 9
ENDMDL
MODEL 7
REMARK VINA RESULT:     -10.0      1.926      2.869
REMARK  Name = 5288878
REMARK  9 active torsions:
REMARK  status: ('A' for Active; 'I' for Inactive)
REMARK    1  A    between atoms: C_2  and  C_7
REMARK    2  A    between atoms: C_3  and  C_19
REMARK    3  A    between atoms: C_10  and  C_14
REMARK    4  A    between atoms: C_14  and  O_15
REMARK    5  A    between atoms: N_18  and  CA_21
REMARK    6  A    between atoms: CA_21  and  C_23
REMARK    7  A    between atoms: CA_21  and  CB_24
REMARK    8  A    between atoms: CB_24  and  CG_26
REMARK    9  A    between atoms: CG_26  and  OD1_27
REMARK                            x       y       z     vdW  Elec       q    Type
REMARK                         _______ _______ _______ _____ _____    ______ ____
ROOT
ATOM      1  N   UNL     1      31.467 -23.171 -15.763  0.00  0.00    -0.242 NA
ATOM      2  C   UNL     1      33.215 -22.317 -17.200  0.00  0.00    +0.019 C 
ATOM      3  C   UNL     1      33.757 -23.720 -15.360  0.00  0.00    +0.072 C 
ATOM      4  C   UNL     1      34.172 -22.979 -16.439  0.00  0.00    +0.008 C 
ATOM      5  C   UNL     1      31.887 -22.443 -16.823  0.00  0.00    +0.099 C 
ATOM      6  C   UNL     1      32.426 -23.799 -15.048  0.00  0.00    +0.103 C 
ENDROOT
BRANCH   2   7
ATOM      7  C   UNL     1      33.592 -21.522 -18.344  0.00  0.00    +0.002 C 
ATOM      8  C   UNL     1      32.611 -20.897 -19.116  0.00  0.00    +0.000 C 
ATOM      9  C   UNL     1      34.938 -21.378 -18.684  0.00  0.00    +0.000 C 
ATOM     10  C   UNL     1      34.320 -19.987 -20.561  0.00  0.00    +0.075 C 
ATOM     11  C   UNL     1      32.975 -20.130 -20.224  0.00  0.00    +0.006 C 
ATOM     12  C   UNL     1      35.303 -20.611 -19.791  0.00  0.00    +0.006 C 
BRANCH  10  14
ATOM     13  O   UNL     1      34.059 -19.102 -22.768  0.00  0.00    -0.245 OA
ATOM     14  C   UNL     1      34.700 -19.188 -21.715  0.00  0.00    +0.338 C 
BRANCH  14  15
ATOM     15  O   UNL     1      35.867 -18.516 -21.522  0.00  0.00    -0.477 OA
ATOM     16  H   UNL     1      36.349 -18.632 -20.726  0.00  0.00    +0.295 HD
ENDBRANCH  14  15
ENDBRANCH  10  14
ENDBRANCH   2   7
BRANCH   3  19
ATOM     17  O   UNL     1      35.398 -25.360 -15.024  0.00  0.00    -0.270 OA
ATOM     18  N   UNL     1      34.903 -23.984 -13.224  0.00  0.00    -0.295 N 
ATOM     19  C   ACE A   0      34.755 -24.439 -14.527  0.00  0.00    +0.248 C 
ATOM     20  H   UNL     1      34.340 -23.238 -12.916  0.00  0.00    +0.150 HD
BRANCH  18  21
ATOM     21  CA  UNL     1      35.847 -24.563 -12.302  0.00  0.00    +0.148 C 
BRANCH  21  23
ATOM     22  O   UNL     1      36.075 -23.877  -9.994  0.00  0.00    -0.286 OA
ATOM     23  C   UNL     1      35.346 -24.253 -10.908  0.00  0.00    +0.227 C 
ENDBRANCH  21  23
BRANCH  21  24
ATOM     24  CB  UNL     1      37.259 -24.042 -12.532  0.00  0.00    +0.137 C 
BRANCH  24  26
ATOM     25  OD2 UNL     1      37.164 -22.172 -14.060  0.00  0.00    -0.250 OA
ATOM     26  CG  UNL     1      37.248 -22.581 -12.909  0.00  0.00    +0.316 C 
BRANCH  26  27
ATOM     27  OD1 UNL     1      37.363 -21.764 -11.832  0.00  0.00    -0.480 OA
ATOM     28  HD1 UNL     1      37.083 -20.872 -11.889  0.00  0.00    +0.295 HD
ENDBRANCH  26  27
ENDBRANCH  24  26
ENDBRANCH  21  24
ENDBRANCH  18  21
ENDBRANCH   3  19
TORSDOF 9
ENDMDL
MODEL 8
REMARK VINA RESULT:      -9.9      7.551     11.154
REMARK  Name = 5288878
REMARK  9 active torsions:
REMARK  status: ('A' for Active; 'I' for Inactive)
REMARK    1  A    between atoms: C_2  and  C_7
REMARK    2  A    between atoms: C_3  and  C_19
REMARK    3  A    between atoms: C_10  and  C_14
REMARK    4  A    between atoms: C_14  and  O_15
REMARK    5  A    between atoms: N_18  and  CA_21
REMARK    6  A    between atoms: CA_21  and  C_23
REMARK    7  A    between atoms: CA_21  and  CB_24
REMARK    8  A    between atoms: CB_24  and  CG_26
REMARK    9  A    between atoms: CG_26  and  OD1_27
REMARK                            x       y       z     vdW  Elec       q    Type
REMARK                         _______ _______ _______ _____ _____    ______ ____
ROOT
ATOM      1  N   UNL     1      33.056 -13.902 -24.952  0.00  0.00    -0.242 NA
ATOM      2  C   UNL     1      32.751 -12.300 -23.167  0.00  0.00    +0.019 C 
ATOM      3  C   UNL     1      33.617 -14.464 -22.699  0.00  0.00    +0.072 C 
ATOM      4  C   UNL     1      33.235 -13.224 -22.247  0.00  0.00    +0.008 C 
ATOM      5  C   UNL     1      32.681 -12.686 -24.496  0.00  0.00    +0.099 C 
ATOM      6  C   UNL     1      33.520 -14.773 -24.029  0.00  0.00    +0.103 C 
ENDROOT
BRANCH   2   7
ATOM      7  C   UNL     1      32.334 -10.982 -22.751  0.00  0.00    +0.002 C 
ATOM      8  C   UNL     1      32.882  -9.851 -23.356  0.00  0.00    +0.000 C 
ATOM      9  C   UNL     1      31.381 -10.836 -21.740  0.00  0.00    +0.000 C 
ATOM     10  C   UNL     1      31.528  -8.433 -21.944  0.00  0.00    +0.075 C 
ATOM     11  C   UNL     1      32.480  -8.577 -22.953  0.00  0.00    +0.006 C 
ATOM     12  C   UNL     1      30.978  -9.563 -21.337  0.00  0.00    +0.006 C 
BRANCH  10  14
ATOM     13  O   UNL     1      30.483  -6.298 -22.220  0.00  0.00    -0.245 OA
ATOM     14  C   UNL     1      31.108  -7.105 -21.524  0.00  0.00    +0.338 C 
BRANCH  14  15
ATOM     15  O   UNL     1      31.478  -6.823 -20.245  0.00  0.00    -0.477 OA
ATOM     16  H   UNL     1      32.170  -6.213 -20.081  0.00  0.00    +0.295 HD
ENDBRANCH  14  15
ENDBRANCH  10  14
ENDBRANCH   2   7
BRANCH   3  19
ATOM     17  O   UNL     1      34.289 -15.160 -20.563  0.00  0.00    -0.270 OA
ATOM     18  N   UNL     1      34.397 -16.732 -22.265  0.00  0.00    -0.295 N 
ATOM     19  C   ACE A   0      34.138 -15.472 -21.741  0.00  0.00    +0.248 C 
ATOM     20  H   UNL     1      34.245 -16.886 -23.225  0.00  0.00    +0.150 HD
BRANCH  18  21
ATOM     21  CA  UNL     1      34.883 -17.822 -21.458  0.00  0.00    +0.148 C 
BRANCH  21  23
ATOM     22  O   UNL     1      37.189 -18.335 -20.942  0.00  0.00    -0.286 OA
ATOM     23  C   UNL     1      36.356 -17.977 -21.770  0.00  0.00    +0.227 C 
ENDBRANCH  21  23
BRANCH  21  24
ATOM     24  CB  UNL     1      34.106 -19.107 -21.711  0.00  0.00    +0.137 C 
BRANCH  24  26
ATOM     25  OD2 UNL     1      32.738 -20.170 -20.026  0.00  0.00    -0.250 OA
ATOM     26  CG  UNL     1      33.852 -19.854 -20.425  0.00  0.00    +0.316 C 
BRANCH  26  27
ATOM     27  OD1 UNL     1      34.993 -20.123 -19.744  0.00  0.00    -0.480 OA
ATOM     28  HD1 UNL     1      35.822 -19.877 -20.103  0.00  0.00    +0.295 HD
ENDBRANCH  26  27
ENDBRANCH  24  26
ENDBRANCH  21  24
ENDBRANCH  18  21
ENDBRANCH   3  19
TORSDOF 9
ENDMDL
MODEL 9
REMARK VINA RESULT:      -9.9      2.437      9.339
REMARK  Name = 5288878
REMARK  9 active torsions:
REMARK  status: ('A' for Active; 'I' for Inactive)
REMARK    1  A    between atoms: C_2  and  C_7
REMARK    2  A    between atoms: C_3  and  C_19
REMARK    3  A    between atoms: C_10  and  C_14
REMARK    4  A    between atoms: C_14  and  O_15
REMARK    5  A    between atoms: N_18  and  CA_21
REMARK    6  A    between atoms: CA_21  and  C_23
REMARK    7  A    between atoms: CA_21  and  CB_24
REMARK    8  A    between atoms: CB_24  and  CG_26
REMARK    9  A    between atoms: CG_26  and  OD1_27
REMARK                            x       y       z     vdW  Elec       q    Type
REMARK                         _______ _______ _______ _____ _____    ______ ____
ROOT
ATOM      1  N   UNL     1      32.420 -21.041 -19.891  0.00  0.00    -0.242 NA
ATOM      2  C   UNL     1      34.438 -21.187 -18.567  0.00  0.00    +0.019 C 
ATOM      3  C   UNL     1      34.342 -19.735 -20.446  0.00  0.00    +0.072 C 
ATOM      4  C   UNL     1      35.055 -20.253 -19.392  0.00  0.00    +0.008 C 
ATOM      5  C   UNL     1      33.131 -21.545 -18.857  0.00  0.00    +0.099 C 
ATOM      6  C   UNL     1      33.053 -20.137 -20.670  0.00  0.00    +0.103 C 
ENDROOT
BRANCH   2   7
ATOM      7  C   UNL     1      35.137 -21.766 -17.444  0.00  0.00    +0.002 C 
ATOM      8  C   UNL     1      34.459 -22.595 -16.549  0.00  0.00    +0.000 C 
ATOM      9  C   UNL     1      36.494 -21.497 -17.250  0.00  0.00    +0.000 C 
ATOM     10  C   UNL     1      36.489 -22.885 -15.271  0.00  0.00    +0.075 C 
ATOM     11  C   UNL     1      35.134 -23.154 -15.463  0.00  0.00    +0.006 C 
ATOM     12  C   UNL     1      37.169 -22.056 -16.165  0.00  0.00    +0.006 C 
BRANCH  10  14
ATOM     13  O   UNL     1      37.707 -24.591 -14.118  0.00  0.00    -0.245 OA
ATOM     14  C   UNL     1      37.193 -23.467 -14.140  0.00  0.00    +0.338 C 
BRANCH  14  15
ATOM     15  O   UNL     1      37.239 -22.630 -13.068  0.00  0.00    -0.477 OA
ATOM     16  H   UNL     1      37.784 -22.837 -12.335  0.00  0.00    +0.295 HD
ENDBRANCH  14  15
ENDBRANCH  10  14
ENDBRANCH   2   7
BRANCH   3  19
ATOM     17  O   UNL     1      36.197 -18.677 -21.413  0.00  0.00    -0.270 OA
ATOM     18  N   UNL     1      34.101 -17.940 -22.078  0.00  0.00    -0.295 N 
ATOM     19  C   ACE A   0      34.973 -18.735 -21.346  0.00  0.00    +0.248 C 
ATOM     20  H   UNL     1      33.132 -18.062 -21.955  0.00  0.00    +0.150 HD
BRANCH  18  21
ATOM     21  CA  UNL     1      34.559 -16.942 -23.011  0.00  0.00    +0.148 C 
BRANCH  21  23
ATOM     22  O   UNL     1      34.402 -15.527 -21.056  0.00  0.00    -0.286 OA
ATOM     23  C   UNL     1      34.580 -15.624 -22.267  0.00  0.00    +0.227 C 
ENDBRANCH  21  23
BRANCH  21  24
ATOM     24  CB  UNL     1      33.685 -16.884 -24.256  0.00  0.00    +0.137 C 
BRANCH  24  26
ATOM     25  OD2 UNL     1      33.814 -19.287 -24.484  0.00  0.00    -0.250 OA
ATOM     26  CG  UNL     1      33.173 -18.254 -24.630  0.00  0.00    +0.316 C 
BRANCH  26  27
ATOM     27  OD1 UNL     1      31.928 -18.216 -25.166  0.00  0.00    -0.480 OA
ATOM     28  HD1 UNL     1      31.264 -17.686 -24.772  0.00  0.00    +0.295 HD
ENDBRANCH  26  27
ENDBRANCH  24  26
ENDBRANCH  21  24
ENDBRANCH  18  21
ENDBRANCH   3  19
TORSDOF 9
ENDMDL
