MODEL 1
REMARK VINA RESULT:     -11.1      0.000      0.000
REMARK  Name = 23582824
REMARK  2 active torsions:
REMARK  status: ('A' for Active; 'I' for Inactive)
REMARK    1  A    between atoms: C_3  and  C_21
REMARK    2  A    between atoms: C_6  and  C_15
REMARK                            x       y       z     vdW  Elec       q    Type
REMARK                         _______ _______ _______ _____ _____    ______ ____
ROOT
ATOM      1  N   UNL     1      31.200  -9.322 -19.316  0.00  0.00    -0.244 NA
ATOM      2  C   UNL     1      31.841  -9.584 -21.624  0.00  0.00    +0.018 C 
ATOM      3  C   UNL     1      31.861  -8.191 -21.770  0.00  0.00    +0.003 C 
ATOM      4  C   UNL     1      31.500 -10.115 -20.363  0.00  0.00    +0.081 C 
ATOM      5  C   UNL     1      32.148 -10.441 -22.694  0.00  0.00    +0.002 C 
ATOM      6  C   UNL     1      32.121 -11.823 -22.521  0.00  0.00    +0.001 C 
ATOM      7  C   UNL     1      31.480 -11.499 -20.217  0.00  0.00    +0.019 C 
ATOM      8  C   UNL     1      31.786 -12.351 -21.281  0.00  0.00    +0.002 C 
ATOM      9  C   UNL     1      31.553  -7.371 -20.694  0.00  0.00    +0.021 C 
ATOM     10  C   UNL     1      31.232  -7.982 -19.499  0.00  0.00    +0.099 C 
ENDROOT
BRANCH   6  15
ATOM     11  S   UNL     1      33.819 -14.534 -22.126  0.00  0.00    -0.025 S 
ATOM     12  O   UNL     1      33.069 -14.472 -25.875  0.00  0.00    -0.269 OA
ATOM     13  O   UNL     1      35.122 -16.806 -22.439  0.00  0.00    -0.262 OA
ATOM     14  N   UNL     1      34.164 -15.808 -24.315  0.00  0.00    -0.243 N 
ATOM     15  C   UNL     1      32.440 -12.707 -23.630  0.00  0.00    +0.011 C 
ATOM     16  C   UNL     1      33.142 -13.858 -23.558  0.00  0.00    +0.087 C 
ATOM     17  C   UNL     1      33.431 -14.713 -24.733  0.00  0.00    +0.258 C 
ATOM     18  C   UNL     1      34.485 -15.917 -22.983  0.00  0.00    +0.283 C 
ATOM     19  H   UNL     1      34.452 -16.495 -24.959  0.00  0.00    +0.159 HD
ENDBRANCH   6  15
BRANCH   3  21
ATOM     20  N   UNL     1      32.845  -6.285 -25.438  0.00  0.00    -0.242 NA
ATOM     21  C   UNL     1      32.198  -7.539 -23.025  0.00  0.00    +0.003 C 
ATOM     22  C   UNL     1      31.199  -7.230 -23.941  0.00  0.00    +0.021 C 
ATOM     23  C   UNL     1      33.520  -7.222 -23.314  0.00  0.00    +0.021 C 
ATOM     24  C   UNL     1      31.570  -6.608 -25.122  0.00  0.00    +0.099 C 
ATOM     25  C   UNL     1      33.789  -6.601 -24.524  0.00  0.00    +0.099 C 
ENDBRANCH   3  21
TORSDOF 2
ENDMDL
MODEL 2
REMARK VINA RESULT:     -10.7     13.421     16.076
REMARK  Name = 23582824
REMARK  2 active torsions:
REMARK  status: ('A' for Active; 'I' for Inactive)
REMARK    1  A    between atoms: C_3  and  C_21
REMARK    2  A    between atoms: C_6  and  C_15
REMARK                            x       y       z     vdW  Elec       q    Type
REMARK                         _______ _______ _______ _____ _____    ______ ____
ROOT
ATOM      1  N   UNL     1      36.013 -21.716 -17.233  0.00  0.00    -0.244 NA
ATOM      2  C   UNL     1      34.845 -22.891 -15.484  0.00  0.00    +0.018 C 
ATOM      3  C   UNL     1      36.033 -22.958 -14.744  0.00  0.00    +0.003 C 
ATOM      4  C   UNL     1      34.880 -22.252 -16.740  0.00  0.00    +0.081 C 
ATOM      5  C   UNL     1      33.645 -23.440 -15.001  0.00  0.00    +0.002 C 
ATOM      6  C   UNL     1      32.479 -23.359 -15.757  0.00  0.00    +0.001 C 
ATOM      7  C   UNL     1      33.700 -22.185 -17.475  0.00  0.00    +0.019 C 
ATOM      8  C   UNL     1      32.507 -22.730 -16.995  0.00  0.00    +0.002 C 
ATOM      9  C   UNL     1      37.202 -22.406 -15.249  0.00  0.00    +0.021 C 
ATOM     10  C   UNL     1      37.139 -21.801 -16.488  0.00  0.00    +0.099 C 
ENDROOT
BRANCH   6  15
ATOM     11  S   UNL     1      29.604 -22.045 -16.388  0.00  0.00    -0.025 S 
ATOM     12  O   UNL     1      28.757 -25.088 -14.234  0.00  0.00    -0.269 OA
ATOM     13  O   UNL     1      27.036 -21.461 -16.548  0.00  0.00    -0.262 OA
ATOM     14  N   UNL     1      27.674 -23.342 -15.327  0.00  0.00    -0.243 N 
ATOM     15  C   UNL     1      31.238 -23.927 -15.255  0.00  0.00    +0.011 C 
ATOM     16  C   UNL     1      29.995 -23.447 -15.468  0.00  0.00    +0.087 C 
ATOM     17  C   UNL     1      28.771 -24.080 -14.923  0.00  0.00    +0.258 C 
ATOM     18  C   UNL     1      27.878 -22.226 -16.104  0.00  0.00    +0.283 C 
ATOM     19  H   UNL     1      26.764 -23.610 -15.062  0.00  0.00    +0.159 HD
ENDBRANCH   6  15
BRANCH   3  21
ATOM     20  N   UNL     1      36.256 -24.816 -10.929  0.00  0.00    -0.242 NA
ATOM     21  C   UNL     1      36.109 -23.594 -13.439  0.00  0.00    +0.003 C 
ATOM     22  C   UNL     1      36.494 -24.925 -13.333  0.00  0.00    +0.021 C 
ATOM     23  C   UNL     1      35.798 -22.872 -12.293  0.00  0.00    +0.021 C 
ATOM     24  C   UNL     1      36.553 -25.485 -12.067  0.00  0.00    +0.099 C 
ATOM     25  C   UNL     1      35.887 -23.523 -11.073  0.00  0.00    +0.099 C 
ENDBRANCH   3  21
TORSDOF 2
ENDMDL
MODEL 3
REMARK VINA RESULT:     -10.6     12.557     15.343
REMARK  Name = 23582824
REMARK  2 active torsions:
REMARK  status: ('A' for Active; 'I' for Inactive)
REMARK    1  A    between atoms: C_3  and  C_21
REMARK    2  A    between atoms: C_6  and  C_15
REMARK                            x       y       z     vdW  Elec       q    Type
REMARK                         _______ _______ _______ _____ _____    ______ ____
ROOT
ATOM      1  N   UNL     1      34.261 -21.170 -19.287  0.00  0.00    -0.244 NA
ATOM      2  C   UNL     1      34.168 -22.020 -17.034  0.00  0.00    +0.018 C 
ATOM      3  C   UNL     1      32.790 -22.229 -17.176  0.00  0.00    +0.003 C 
ATOM      4  C   UNL     1      34.875 -21.481 -18.129  0.00  0.00    +0.081 C 
ATOM      5  C   UNL     1      34.841 -22.333 -15.841  0.00  0.00    +0.002 C 
ATOM      6  C   UNL     1      36.211 -22.116 -15.726  0.00  0.00    +0.001 C 
ATOM      7  C   UNL     1      36.244 -21.274 -17.988  0.00  0.00    +0.019 C 
ATOM      8  C   UNL     1      36.913 -21.586 -16.802  0.00  0.00    +0.002 C 
ATOM      9  C   UNL     1      32.154 -21.909 -18.368  0.00  0.00    +0.021 C 
ATOM     10  C   UNL     1      32.929 -21.387 -19.383  0.00  0.00    +0.099 C 
ENDROOT
BRANCH   6  15
ATOM     11  S   UNL     1      36.339 -25.120 -14.564  0.00  0.00    -0.025 S 
ATOM     12  O   UNL     1      38.309 -23.072 -12.005  0.00  0.00    -0.269 OA
ATOM     13  O   UNL     1      36.784 -27.297 -13.143  0.00  0.00    -0.262 OA
ATOM     14  N   UNL     1      37.653 -25.274 -12.376  0.00  0.00    -0.243 N 
ATOM     15  C   UNL     1      36.906 -22.442 -14.492  0.00  0.00    +0.011 C 
ATOM     16  C   UNL     1      37.011 -23.666 -13.932  0.00  0.00    +0.087 C 
ATOM     17  C   UNL     1      37.736 -23.925 -12.666  0.00  0.00    +0.258 C 
ATOM     18  C   UNL     1      36.962 -26.093 -13.238  0.00  0.00    +0.283 C 
ATOM     19  H   UNL     1      38.078 -25.641 -11.568  0.00  0.00    +0.159 HD
ENDBRANCH   6  15
BRANCH   3  21
ATOM     20  N   UNL     1      30.382 -23.832 -14.064  0.00  0.00    -0.242 NA
ATOM     21  C   UNL     1      31.966 -22.777 -16.111  0.00  0.00    +0.003 C 
ATOM     22  C   UNL     1      32.558 -23.443 -15.044  0.00  0.00    +0.021 C 
ATOM     23  C   UNL     1      30.584 -22.638 -16.156  0.00  0.00    +0.021 C 
ATOM     24  C   UNL     1      31.730 -23.947 -14.054  0.00  0.00    +0.099 C 
ATOM     25  C   UNL     1      29.843 -23.178 -15.117  0.00  0.00    +0.099 C 
ENDBRANCH   3  21
TORSDOF 2
ENDMDL
MODEL 4
REMARK VINA RESULT:     -10.4      1.375      2.017
REMARK  Name = 23582824
REMARK  2 active torsions:
REMARK  status: ('A' for Active; 'I' for Inactive)
REMARK    1  A    between atoms: C_3  and  C_21
REMARK    2  A    between atoms: C_6  and  C_15
REMARK                            x       y       z     vdW  Elec       q    Type
REMARK                         _______ _______ _______ _____ _____    ______ ____
ROOT
ATOM      1  N   UNL     1      31.165  -6.988 -19.901  0.00  0.00    -0.244 NA
ATOM      2  C   UNL     1      31.887  -7.866 -22.025  0.00  0.00    +0.018 C 
ATOM      3  C   UNL     1      32.092  -6.560 -22.489  0.00  0.00    +0.003 C 
ATOM      4  C   UNL     1      31.416  -8.037 -20.707  0.00  0.00    +0.081 C 
ATOM      5  C   UNL     1      32.139  -8.984 -22.838  0.00  0.00    +0.002 C 
ATOM      6  C   UNL     1      31.928 -10.272 -22.352  0.00  0.00    +0.001 C 
ATOM      7  C   UNL     1      31.213  -9.335 -20.246  0.00  0.00    +0.019 C 
ATOM      8  C   UNL     1      31.464 -10.446 -21.054  0.00  0.00    +0.002 C 
ATOM      9  C   UNL     1      31.833  -5.477 -21.661  0.00  0.00    +0.021 C 
ATOM     10  C   UNL     1      31.375  -5.743 -20.387  0.00  0.00    +0.099 C 
ENDROOT
BRANCH   6  15
ATOM     11  S   UNL     1      33.322 -12.948 -21.218  0.00  0.00    -0.025 S 
ATOM     12  O   UNL     1      32.707 -13.738 -24.909  0.00  0.00    -0.269 OA
ATOM     13  O   UNL     1      34.391 -15.338 -20.900  0.00  0.00    -0.262 OA
ATOM     14  N   UNL     1      33.605 -14.747 -23.013  0.00  0.00    -0.243 N 
ATOM     15  C   UNL     1      32.190 -11.427 -23.194  0.00  0.00    +0.011 C 
ATOM     16  C   UNL     1      32.766 -12.585 -22.807  0.00  0.00    +0.087 C 
ATOM     17  C   UNL     1      33.004 -13.724 -23.724  0.00  0.00    +0.258 C 
ATOM     18  C   UNL     1      33.869 -14.555 -21.677  0.00  0.00    +0.283 C 
ATOM     19  H   UNL     1      33.841 -15.594 -23.455  0.00  0.00    +0.159 HD
ENDBRANCH   6  15
BRANCH   3  21
ATOM     20  N   UNL     1      33.499  -5.716 -26.408  0.00  0.00    -0.242 NA
ATOM     21  C   UNL     1      32.573  -6.271 -23.830  0.00  0.00    +0.003 C 
ATOM     22  C   UNL     1      33.933  -6.334 -24.111  0.00  0.00    +0.021 C 
ATOM     23  C   UNL     1      31.676  -5.932 -24.835  0.00  0.00    +0.021 C 
ATOM     24  C   UNL     1      34.342  -6.051 -25.404  0.00  0.00    +0.099 C 
ATOM     25  C   UNL     1      32.185  -5.666 -26.097  0.00  0.00    +0.099 C 
ENDBRANCH   3  21
TORSDOF 2
ENDMDL
MODEL 5
REMARK VINA RESULT:     -10.2     12.521     15.121
REMARK  Name = 23582824
REMARK  2 active torsions:
REMARK  status: ('A' for Active; 'I' for Inactive)
REMARK    1  A    between atoms: C_3  and  C_21
REMARK    2  A    between atoms: C_6  and  C_15
REMARK                            x       y       z     vdW  Elec       q    Type
REMARK                         _______ _______ _______ _____ _____    ______ ____
ROOT
ATOM      1  N   UNL     1      30.658 -23.314 -15.109  0.00  0.00    -0.244 NA
ATOM      2  C   UNL     1      32.999 -22.820 -15.387  0.00  0.00    +0.018 C 
ATOM      3  C   UNL     1      32.751 -22.410 -16.704  0.00  0.00    +0.003 C 
ATOM      4  C   UNL     1      31.910 -23.271 -14.614  0.00  0.00    +0.081 C 
ATOM      5  C   UNL     1      34.293 -22.789 -14.839  0.00  0.00    +0.002 C 
ATOM      6  C   UNL     1      34.512 -23.202 -13.527  0.00  0.00    +0.001 C 
ATOM      7  C   UNL     1      32.157 -23.678 -13.306  0.00  0.00    +0.019 C 
ATOM      8  C   UNL     1      33.442 -23.647 -12.760  0.00  0.00    +0.002 C 
ATOM      9  C   UNL     1      31.461 -22.454 -17.216  0.00  0.00    +0.021 C 
ATOM     10  C   UNL     1      30.459 -22.910 -16.384  0.00  0.00    +0.099 C 
ENDROOT
BRANCH   6  15
ATOM     11  S   UNL     1      36.763 -25.377 -14.296  0.00  0.00    -0.025 S 
ATOM     12  O   UNL     1      38.537 -23.077 -11.809  0.00  0.00    -0.269 OA
ATOM     13  O   UNL     1      38.963 -26.815 -14.515  0.00  0.00    -0.262 OA
ATOM     14  N   UNL     1      38.980 -24.969 -13.091  0.00  0.00    -0.243 N 
ATOM     15  C   UNL     1      35.851 -23.167 -12.961  0.00  0.00    +0.011 C 
ATOM     16  C   UNL     1      36.853 -24.033 -13.225  0.00  0.00    +0.087 C 
ATOM     17  C   UNL     1      38.197 -23.937 -12.608  0.00  0.00    +0.258 C 
ATOM     18  C   UNL     1      38.428 -25.852 -13.990  0.00  0.00    +0.283 C 
ATOM     19  H   UNL     1      39.913 -25.072 -12.795  0.00  0.00    +0.159 HD
ENDBRANCH   6  15
BRANCH   3  21
ATOM     20  N   UNL     1      35.819 -21.003 -19.284  0.00  0.00    -0.242 NA
ATOM     21  C   UNL     1      33.800 -21.929 -17.586  0.00  0.00    +0.003 C 
ATOM     22  C   UNL     1      33.501 -21.573 -18.896  0.00  0.00    +0.021 C 
ATOM     23  C   UNL     1      35.107 -21.823 -17.124  0.00  0.00    +0.021 C 
ATOM     24  C   UNL     1      34.536 -21.119 -19.698  0.00  0.00    +0.099 C 
ATOM     25  C   UNL     1      36.071 -21.359 -18.004  0.00  0.00    +0.099 C 
ENDBRANCH   3  21
TORSDOF 2
ENDMDL
MODEL 6
REMARK VINA RESULT:     -10.0      7.833     12.888
REMARK  Name = 23582824
REMARK  2 active torsions:
REMARK  status: ('A' for Active; 'I' for Inactive)
REMARK    1  A    between atoms: C_3  and  C_21
REMARK    2  A    between atoms: C_6  and  C_15
REMARK                            x       y       z     vdW  Elec       q    Type
REMARK                         _______ _______ _______ _____ _____    ______ ____
ROOT
ATOM      1  N   UNL     1      31.424 -22.386 -17.310  0.00  0.00    -0.244 NA
ATOM      2  C   UNL     1      33.762 -21.893 -17.618  0.00  0.00    +0.018 C 
ATOM      3  C   UNL     1      34.062 -22.615 -16.456  0.00  0.00    +0.003 C 
ATOM      4  C   UNL     1      32.412 -21.802 -18.014  0.00  0.00    +0.081 C 
ATOM      5  C   UNL     1      34.768 -21.272 -18.378  0.00  0.00    +0.002 C 
ATOM      6  C   UNL     1      34.442 -20.560 -19.530  0.00  0.00    +0.001 C 
ATOM      7  C   UNL     1      32.114 -21.085 -19.170  0.00  0.00    +0.019 C 
ATOM      8  C   UNL     1      33.114 -20.467 -19.926  0.00  0.00    +0.002 C 
ATOM      9  C   UNL     1      33.046 -23.218 -15.727  0.00  0.00    +0.021 C 
ATOM     10  C   UNL     1      31.755 -23.074 -16.193  0.00  0.00    +0.099 C 
ENDROOT
BRANCH   6  15
ATOM     11  S   UNL     1      33.886 -17.926 -21.302  0.00  0.00    -0.025 S 
ATOM     12  O   UNL     1      37.596 -18.646 -21.886  0.00  0.00    -0.269 OA
ATOM     13  O   UNL     1      34.057 -15.831 -22.897  0.00  0.00    -0.262 OA
ATOM     14  N   UNL     1      35.974 -17.106 -22.530  0.00  0.00    -0.243 N 
ATOM     15  C   UNL     1      35.484 -19.919 -20.315  0.00  0.00    +0.011 C 
ATOM     16  C   UNL     1      35.343 -18.817 -21.083  0.00  0.00    +0.087 C 
ATOM     17  C   UNL     1      36.453 -18.216 -21.859  0.00  0.00    +0.258 C 
ATOM     18  C   UNL     1      34.649 -16.768 -22.384  0.00  0.00    +0.283 C 
ATOM     19  H   UNL     1      36.569 -16.570 -23.102  0.00  0.00    +0.159 HD
ENDBRANCH   6  15
BRANCH   3  21
ATOM     20  N   UNL     1      38.027 -23.071 -14.998  0.00  0.00    -0.242 NA
ATOM     21  C   UNL     1      35.418 -22.771 -15.957  0.00  0.00    +0.003 C 
ATOM     22  C   UNL     1      36.416 -21.894 -16.365  0.00  0.00    +0.021 C 
ATOM     23  C   UNL     1      35.722 -23.798 -15.071  0.00  0.00    +0.021 C 
ATOM     24  C   UNL     1      37.693 -22.084 -15.861  0.00  0.00    +0.099 C 
ATOM     25  C   UNL     1      37.030 -23.904 -14.624  0.00  0.00    +0.099 C 
ENDBRANCH   3  21
TORSDOF 2
ENDMDL
MODEL 7
REMARK VINA RESULT:      -9.9     10.849     14.439
REMARK  Name = 23582824
REMARK  2 active torsions:
REMARK  status: ('A' for Active; 'I' for Inactive)
REMARK    1  A    between atoms: C_3  and  C_21
REMARK    2  A    between atoms: C_6  and  C_15
REMARK                            x       y       z     vdW  Elec       q    Type
REMARK                         _______ _______ _______ _____ _____    ______ ____
ROOT
ATOM      1  N   UNL     1      36.668 -24.183 -13.159  0.00  0.00    -0.244 NA
ATOM      2  C   UNL     1      35.307 -23.043 -14.787  0.00  0.00    +0.018 C 
ATOM      3  C   UNL     1      34.155 -23.441 -14.096  0.00  0.00    +0.003 C 
ATOM      4  C   UNL     1      36.560 -23.440 -14.277  0.00  0.00    +0.081 C 
ATOM      5  C   UNL     1      35.231 -22.268 -15.957  0.00  0.00    +0.002 C 
ATOM      6  C   UNL     1      36.392 -21.885 -16.625  0.00  0.00    +0.001 C 
ATOM      7  C   UNL     1      37.704 -23.044 -14.964  0.00  0.00    +0.019 C 
ATOM      8  C   UNL     1      37.629 -22.273 -16.127  0.00  0.00    +0.002 C 
ATOM      9  C   UNL     1      34.263 -24.206 -12.943  0.00  0.00    +0.021 C 
ATOM     10  C   UNL     1      35.532 -24.547 -12.520  0.00  0.00    +0.099 C 
ENDROOT
BRANCH   6  15
ATOM     11  S   UNL     1      33.704 -21.704 -18.396  0.00  0.00    -0.025 S 
ATOM     12  O   UNL     1      36.175 -19.462 -20.265  0.00  0.00    -0.269 OA
ATOM     13  O   UNL     1      31.866 -21.167 -20.210  0.00  0.00    -0.262 OA
ATOM     14  N   UNL     1      33.971 -20.191 -20.439  0.00  0.00    -0.243 N 
ATOM     15  C   UNL     1      36.312 -21.083 -17.835  0.00  0.00    +0.011 C 
ATOM     16  C   UNL     1      35.233 -20.948 -18.635  0.00  0.00    +0.087 C 
ATOM     17  C   UNL     1      35.223 -20.111 -19.857  0.00  0.00    +0.258 C 
ATOM     18  C   UNL     1      33.015 -20.976 -19.840  0.00  0.00    +0.283 C 
ATOM     19  H   UNL     1      33.770 -19.698 -21.267  0.00  0.00    +0.159 HD
ENDBRANCH   6  15
BRANCH   3  21
ATOM     20  N   UNL     1      30.239 -22.407 -15.377  0.00  0.00    -0.242 NA
ATOM     21  C   UNL     1      32.816 -23.087 -14.534  0.00  0.00    +0.003 C 
ATOM     22  C   UNL     1      32.391 -23.417 -15.816  0.00  0.00    +0.021 C 
ATOM     23  C   UNL     1      31.954 -22.418 -13.673  0.00  0.00    +0.021 C 
ATOM     24  C   UNL     1      31.105 -23.059 -16.186  0.00  0.00    +0.099 C 
ATOM     25  C   UNL     1      30.687 -22.104 -14.138  0.00  0.00    +0.099 C 
ENDBRANCH   3  21
TORSDOF 2
ENDMDL
MODEL 8
REMARK VINA RESULT:      -9.6     12.096     14.857
REMARK  Name = 23582824
REMARK  2 active torsions:
REMARK  status: ('A' for Active; 'I' for Inactive)
REMARK    1  A    between atoms: C_3  and  C_21
REMARK    2  A    between atoms: C_6  and  C_15
REMARK                            x       y       z     vdW  Elec       q    Type
REMARK                         _______ _______ _______ _____ _____    ______ ____
ROOT
ATOM      1  N   UNL     1      36.833 -22.657 -13.793  0.00  0.00    -0.244 NA
ATOM      2  C   UNL     1      34.777 -22.899 -15.025  0.00  0.00    +0.018 C 
ATOM      3  C   UNL     1      35.363 -22.249 -16.120  0.00  0.00    +0.003 C 
ATOM      4  C   UNL     1      35.558 -23.085 -13.866  0.00  0.00    +0.081 C 
ATOM      5  C   UNL     1      33.449 -23.358 -15.067  0.00  0.00    +0.002 C 
ATOM      6  C   UNL     1      32.892 -24.002 -13.965  0.00  0.00    +0.001 C 
ATOM      7  C   UNL     1      34.976 -23.731 -12.779  0.00  0.00    +0.019 C 
ATOM      8  C   UNL     1      33.657 -24.188 -12.820  0.00  0.00    +0.002 C 
ATOM      9  C   UNL     1      36.676 -21.807 -16.048  0.00  0.00    +0.021 C 
ATOM     10  C   UNL     1      37.362 -22.034 -14.872  0.00  0.00    +0.099 C 
ENDROOT
BRANCH   6  15
ATOM     11  S   UNL     1      30.577 -22.430 -15.565  0.00  0.00    -0.025 S 
ATOM     12  O   UNL     1      28.763 -25.454 -14.086  0.00  0.00    -0.269 OA
ATOM     13  O   UNL     1      28.315 -21.625 -16.658  0.00  0.00    -0.262 OA
ATOM     14  N   UNL     1      28.305 -23.590 -15.402  0.00  0.00    -0.243 N 
ATOM     15  C   UNL     1      31.519 -24.477 -14.010  0.00  0.00    +0.011 C 
ATOM     16  C   UNL     1      30.489 -23.887 -14.653  0.00  0.00    +0.087 C 
ATOM     17  C   UNL     1      29.110 -24.430 -14.655  0.00  0.00    +0.258 C 
ATOM     18  C   UNL     1      28.868 -22.472 -15.974  0.00  0.00    +0.283 C 
ATOM     19  H   UNL     1      27.348 -23.787 -15.521  0.00  0.00    +0.159 HD
ENDBRANCH   6  15
BRANCH   3  21
ATOM     20  N   UNL     1      33.273 -21.536 -19.750  0.00  0.00    -0.242 NA
ATOM     21  C   UNL     1      34.648 -22.006 -17.362  0.00  0.00    +0.003 C 
ATOM     22  C   UNL     1      33.327 -22.415 -17.498  0.00  0.00    +0.021 C 
ATOM     23  C   UNL     1      35.283 -21.362 -18.417  0.00  0.00    +0.021 C 
ATOM     24  C   UNL     1      32.688 -22.159 -18.700  0.00  0.00    +0.099 C 
ATOM     25  C   UNL     1      34.558 -21.152 -19.580  0.00  0.00    +0.099 C 
ENDBRANCH   3  21
TORSDOF 2
ENDMDL
MODEL 9
REMARK VINA RESULT:      -9.5      9.882     13.795
REMARK  Name = 23582824
REMARK  2 active torsions:
REMARK  status: ('A' for Active; 'I' for Inactive)
REMARK    1  A    between atoms: C_3  and  C_21
REMARK    2  A    between atoms: C_6  and  C_15
REMARK                            x       y       z     vdW  Elec       q    Type
REMARK                         _______ _______ _______ _____ _____    ______ ____
ROOT
ATOM      1  N   UNL     1      33.784 -23.904 -14.301  0.00  0.00    -0.244 NA
ATOM      2  C   UNL     1      32.191 -22.979 -15.854  0.00  0.00    +0.018 C 
ATOM      3  C   UNL     1      31.144 -23.416 -15.032  0.00  0.00    +0.003 C 
ATOM      4  C   UNL     1      33.514 -23.248 -15.445  0.00  0.00    +0.081 C 
ATOM      5  C   UNL     1      31.946 -22.291 -17.055  0.00  0.00    +0.002 C 
ATOM      6  C   UNL     1      33.006 -21.868 -17.854  0.00  0.00    +0.001 C 
ATOM      7  C   UNL     1      34.554 -22.814 -16.262  0.00  0.00    +0.019 C 
ATOM      8  C   UNL     1      34.311 -22.130 -17.456  0.00  0.00    +0.002 C 
ATOM      9  C   UNL     1      31.419 -24.092 -13.852  0.00  0.00    +0.021 C 
ATOM     10  C   UNL     1      32.744 -24.309 -13.535  0.00  0.00    +0.099 C 
ENDROOT
BRANCH   6  15
ATOM     11  S   UNL     1      35.317 -20.263 -19.425  0.00  0.00    -0.025 S 
ATOM     12  O   UNL     1      32.212 -19.732 -21.592  0.00  0.00    -0.269 OA
ATOM     13  O   UNL     1      36.730 -18.817 -21.120  0.00  0.00    -0.262 OA
ATOM     14  N   UNL     1      34.465 -19.150 -21.563  0.00  0.00    -0.243 N 
ATOM     15  C   UNL     1      32.750 -21.156 -19.095  0.00  0.00    +0.011 C 
ATOM     16  C   UNL     1      33.653 -20.461 -19.819  0.00  0.00    +0.087 C 
ATOM     17  C   UNL     1      33.321 -19.757 -21.079  0.00  0.00    +0.258 C 
ATOM     18  C   UNL     1      35.633 -19.282 -20.850  0.00  0.00    +0.283 C 
ATOM     19  H   UNL     1      34.443 -18.631 -22.399  0.00  0.00    +0.159 HD
ENDBRANCH   6  15
BRANCH   3  21
ATOM     20  N   UNL     1      27.056 -22.761 -15.988  0.00  0.00    -0.242 NA
ATOM     21  C   UNL     1      29.746 -23.192 -15.359  0.00  0.00    +0.003 C 
ATOM     22  C   UNL     1      29.110 -22.028 -14.943  0.00  0.00    +0.021 C 
ATOM     23  C   UNL     1      29.039 -24.141 -16.088  0.00  0.00    +0.021 C 
ATOM     24  C   UNL     1      27.776 -21.861 -15.280  0.00  0.00    +0.099 C 
ATOM     25  C   UNL     1      27.709 -23.880 -16.375  0.00  0.00    +0.099 C 
ENDBRANCH   3  21
TORSDOF 2
ENDMDL
