MODEL 1
REMARK VINA RESULT:     -12.1      0.000      0.000
REMARK  Name = 447656
REMARK  5 active torsions:
REMARK  status: ('A' for Active; 'I' for Inactive)
REMARK    1  A    between atoms: N_5  and  C_14
REMARK    2  A    between atoms: C_6  and  O_25
REMARK    3  A    between atoms: C_17  and  C_22
REMARK    4  A    between atoms: O_25  and  C_26
REMARK    5  A    between atoms: C_26  and  C_27
REMARK                            x       y       z     vdW  Elec       q    Type
REMARK                         _______ _______ _______ _____ _____    ______ ____
ROOT
ATOM      1  N   UNL     1      33.381 -23.309 -15.683  0.00  0.00    -0.293 NA
ATOM      2  N   UNL     1      29.992 -22.334 -16.724  0.00  0.00    -0.266 NA
ATOM      3  N   UNL     1      31.682 -23.618 -13.960  0.00  0.00    -0.316 NA
ATOM      4  N   UNL     1      29.445 -22.971 -14.659  0.00  0.00    -0.296 N 
ATOM      5  N   UNL     1      33.925 -24.158 -13.569  0.00  0.00    -0.238 N 
ATOM      6  C   UNL     1      32.469 -22.836 -16.558  0.00  0.00    +0.288 C 
ATOM      7  C   UNL     1      31.157 -22.749 -16.143  0.00  0.00    +0.215 C 
ATOM      8  C   UNL     1      30.791 -23.139 -14.862  0.00  0.00    +0.196 C 
ATOM      9  C   UNL     1      32.938 -23.667 -14.454  0.00  0.00    +0.207 C 
ATOM     10  C   UNL     1      28.996 -22.486 -15.797  0.00  0.00    +0.164 C 
ATOM     11  H   UNL     1      29.888 -21.990 -17.640  0.00  0.00    +0.126 HD
ATOM     12  H   UNL     1      28.930 -23.169 -13.844  0.00  0.00    +0.150 HD
ATOM     13  H   UNL     1      33.573 -24.410 -12.684  0.00  0.00    +0.166 HD
ENDROOT
BRANCH   5  14
ATOM     14  C   UNL     1      35.310 -24.356 -13.704  0.00  0.00    +0.058 C 
ATOM     15  C   UNL     1      35.796 -25.361 -14.545  0.00  0.00    +0.015 C 
ATOM     16  C   UNL     1      36.207 -23.550 -12.999  0.00  0.00    +0.015 C 
ATOM     17  C   UNL     1      38.063 -24.751 -13.975  0.00  0.00    +0.053 C 
ATOM     18  C   UNL     1      37.170 -25.558 -14.680  0.00  0.00    +0.006 C 
ATOM     19  C   UNL     1      37.581 -23.747 -13.135  0.00  0.00    +0.006 C 
BRANCH  17  22
ATOM     20  O   UNL     1      40.271 -24.002 -14.308  0.00  0.00    -0.270 OA
ATOM     21  N   UNL     1      39.977 -26.257 -14.011  0.00  0.00    -0.325 N 
ATOM     22  C   UNL     1      39.495 -24.956 -14.116  0.00  0.00    +0.243 C 
ATOM     23  H   UNL     1      40.942 -26.434 -14.102  0.00  0.00    +0.145 HD
ATOM     24  H   UNL     1      39.354 -27.002 -13.847  0.00  0.00    +0.145 HD
ENDBRANCH  17  22
ENDBRANCH   5  14
BRANCH   6  25
ATOM     25  O   UNL     1      32.886 -22.463 -17.813  0.00  0.00    -0.453 OA
BRANCH  25  26
ATOM     26  C   UNL     1      34.253 -22.127 -17.963  0.00  0.00    +0.208 C 
BRANCH  26  27
ATOM     27  C   UNL     1      34.429 -21.395 -19.293  0.00  0.00    +0.044 C 
ATOM     28  C   UNL     1      33.199 -20.531 -19.602  0.00  0.00    +0.004 C 
ATOM     29  C   UNL     1      35.705 -20.544 -19.279  0.00  0.00    +0.004 C 
ATOM     30  C   UNL     1      33.373 -19.747 -20.901  0.00  0.00    +0.000 C 
ATOM     31  C   UNL     1      35.874 -19.761 -20.578  0.00  0.00    +0.000 C 
ATOM     32  C   UNL     1      34.647 -18.910 -20.887  0.00  0.00    +0.000 C 
ENDBRANCH  26  27
ENDBRANCH  25  26
ENDBRANCH   6  25
TORSDOF 5
ENDMDL
MODEL 2
REMARK VINA RESULT:     -12.1      2.410      6.828
REMARK  Name = 447656
REMARK  5 active torsions:
REMARK  status: ('A' for Active; 'I' for Inactive)
REMARK    1  A    between atoms: N_5  and  C_14
REMARK    2  A    between atoms: C_6  and  O_25
REMARK    3  A    between atoms: C_17  and  C_22
REMARK    4  A    between atoms: O_25  and  C_26
REMARK    5  A    between atoms: C_26  and  C_27
REMARK                            x       y       z     vdW  Elec       q    Type
REMARK                         _______ _______ _______ _____ _____    ______ ____
ROOT
ATOM      1  N   UNL     1      33.423 -22.461 -16.076  0.00  0.00    -0.293 NA
ATOM      2  N   UNL     1      32.434 -24.316 -13.059  0.00  0.00    -0.266 NA
ATOM      3  N   UNL     1      31.154 -23.353 -16.154  0.00  0.00    -0.316 NA
ATOM      4  N   UNL     1      30.510 -24.578 -14.155  0.00  0.00    -0.296 N 
ATOM      5  N   UNL     1      32.043 -22.130 -17.940  0.00  0.00    -0.238 N 
ATOM      6  C   UNL     1      33.627 -22.970 -14.843  0.00  0.00    +0.288 C 
ATOM      7  C   UNL     1      32.598 -23.675 -14.254  0.00  0.00    +0.215 C 
ATOM      8  C   UNL     1      31.390 -23.851 -14.916  0.00  0.00    +0.196 C 
ATOM      9  C   UNL     1      32.216 -22.680 -16.648  0.00  0.00    +0.207 C 
ATOM     10  C   UNL     1      31.169 -24.841 -13.046  0.00  0.00    +0.164 C 
ATOM     11  H   UNL     1      33.103 -24.388 -12.340  0.00  0.00    +0.126 HD
ATOM     12  H   UNL     1      29.591 -24.843 -14.386  0.00  0.00    +0.150 HD
ATOM     13  H   UNL     1      31.157 -22.305 -18.330  0.00  0.00    +0.166 HD
ENDROOT
BRANCH   5  14
ATOM     14  C   UNL     1      32.891 -21.382 -18.775  0.00  0.00    +0.058 C 
ATOM     15  C   UNL     1      32.357 -20.424 -19.641  0.00  0.00    +0.015 C 
ATOM     16  C   UNL     1      34.272 -21.593 -18.744  0.00  0.00    +0.015 C 
ATOM     17  C   UNL     1      34.576 -19.895 -20.436  0.00  0.00    +0.053 C 
ATOM     18  C   UNL     1      33.197 -19.681 -20.469  0.00  0.00    +0.006 C 
ATOM     19  C   UNL     1      35.113 -20.850 -19.573  0.00  0.00    +0.006 C 
BRANCH  17  22
ATOM     20  O   UNL     1      35.134 -18.848 -22.470  0.00  0.00    -0.270 OA
ATOM     21  N   UNL     1      36.657 -18.672 -20.764  0.00  0.00    -0.325 N 
ATOM     22  C   UNL     1      35.452 -19.120 -21.299  0.00  0.00    +0.243 C 
ATOM     23  H   UNL     1      37.276 -18.145 -21.320  0.00  0.00    +0.145 HD
ATOM     24  H   UNL     1      36.891 -18.883 -19.831  0.00  0.00    +0.145 HD
ENDBRANCH  17  22
ENDBRANCH   5  14
BRANCH   6  25
ATOM     25  O   UNL     1      34.842 -22.766 -14.234  0.00  0.00    -0.453 OA
BRANCH  25  26
ATOM     26  C   UNL     1      35.972 -22.647 -15.078  0.00  0.00    +0.208 C 
BRANCH  26  27
ATOM     27  C   UNL     1      36.916 -23.813 -14.792  0.00  0.00    +0.044 C 
ATOM     28  C   UNL     1      38.349 -23.468 -15.218  0.00  0.00    +0.004 C 
ATOM     29  C   UNL     1      36.866 -24.199 -13.308  0.00  0.00    +0.004 C 
ATOM     30  C   UNL     1      39.322 -24.599 -14.893  0.00  0.00    +0.000 C 
ATOM     31  C   UNL     1      37.841 -25.329 -12.986  0.00  0.00    +0.000 C 
ATOM     32  C   UNL     1      39.263 -24.986 -13.420  0.00  0.00    +0.000 C 
ENDBRANCH  26  27
ENDBRANCH  25  26
ENDBRANCH   6  25
TORSDOF 5
ENDMDL
MODEL 3
REMARK VINA RESULT:     -12.1      2.049      6.615
REMARK  Name = 447656
REMARK  5 active torsions:
REMARK  status: ('A' for Active; 'I' for Inactive)
REMARK    1  A    between atoms: N_5  and  C_14
REMARK    2  A    between atoms: C_6  and  O_25
REMARK    3  A    between atoms: C_17  and  C_22
REMARK    4  A    between atoms: O_25  and  C_26
REMARK    5  A    between atoms: C_26  and  C_27
REMARK                            x       y       z     vdW  Elec       q    Type
REMARK                         _______ _______ _______ _____ _____    ______ ____
ROOT
ATOM      1  N   UNL     1      33.455 -23.111 -15.423  0.00  0.00    -0.293 NA
ATOM      2  N   UNL     1      37.114 -23.438 -15.242  0.00  0.00    -0.266 NA
ATOM      3  N   UNL     1      34.259 -24.221 -13.404  0.00  0.00    -0.316 NA
ATOM      4  N   UNL     1      36.678 -24.432 -13.295  0.00  0.00    -0.296 N 
ATOM      5  N   UNL     1      31.974 -23.880 -13.779  0.00  0.00    -0.238 N 
ATOM      6  C   UNL     1      34.713 -22.948 -15.885  0.00  0.00    +0.288 C 
ATOM      7  C   UNL     1      35.754 -23.419 -15.112  0.00  0.00    +0.215 C 
ATOM      8  C   UNL     1      35.509 -24.042 -13.896  0.00  0.00    +0.196 C 
ATOM      9  C   UNL     1      33.307 -23.729 -14.227  0.00  0.00    +0.207 C 
ATOM     10  C   UNL     1      37.623 -24.054 -14.130  0.00  0.00    +0.164 C 
ATOM     11  H   UNL     1      37.632 -23.075 -15.997  0.00  0.00    +0.126 HD
ATOM     12  H   UNL     1      36.787 -24.892 -12.431  0.00  0.00    +0.150 HD
ATOM     13  H   UNL     1      31.898 -24.331 -12.907  0.00  0.00    +0.166 HD
ENDROOT
BRANCH   5  14
ATOM     14  C   UNL     1      30.737 -23.510 -14.335  0.00  0.00    +0.058 C 
ATOM     15  C   UNL     1      29.926 -24.471 -14.943  0.00  0.00    +0.015 C 
ATOM     16  C   UNL     1      30.313 -22.180 -14.282  0.00  0.00    +0.015 C 
ATOM     17  C   UNL     1      28.278 -22.776 -15.440  0.00  0.00    +0.053 C 
ATOM     18  C   UNL     1      28.698 -24.106 -15.495  0.00  0.00    +0.006 C 
ATOM     19  C   UNL     1      29.085 -21.814 -14.834  0.00  0.00    +0.006 C 
BRANCH  17  22
ATOM     20  O   UNL     1      26.031 -22.084 -15.296  0.00  0.00    -0.270 OA
ATOM     21  N   UNL     1      26.893 -22.367 -17.402  0.00  0.00    -0.325 N 
ATOM     22  C   UNL     1      26.998 -22.394 -16.014  0.00  0.00    +0.243 C 
ATOM     23  H   UNL     1      26.041 -22.114 -17.827  0.00  0.00    +0.145 HD
ATOM     24  H   UNL     1      27.670 -22.603 -17.960  0.00  0.00    +0.145 HD
ENDBRANCH  17  22
ENDBRANCH   5  14
BRANCH   6  25
ATOM     25  O   UNL     1      34.899 -22.325 -17.095  0.00  0.00    -0.453 OA
BRANCH  25  26
ATOM     26  C   UNL     1      33.768 -22.212 -17.940  0.00  0.00    +0.208 C 
BRANCH  26  27
ATOM     27  C   UNL     1      34.195 -21.509 -19.228  0.00  0.00    +0.044 C 
ATOM     28  C   UNL     1      33.126 -20.502 -19.675  0.00  0.00    +0.004 C 
ATOM     29  C   UNL     1      35.553 -20.820 -19.045  0.00  0.00    +0.004 C 
ATOM     30  C   UNL     1      33.554 -19.747 -20.932  0.00  0.00    +0.000 C 
ATOM     31  C   UNL     1      35.975 -20.064 -20.302  0.00  0.00    +0.000 C 
ATOM     32  C   UNL     1      34.908 -19.071 -20.749  0.00  0.00    +0.000 C 
ENDBRANCH  26  27
ENDBRANCH  25  26
ENDBRANCH   6  25
TORSDOF 5
ENDMDL
MODEL 4
REMARK VINA RESULT:     -11.9      2.103      6.635
REMARK  Name = 447656
REMARK  5 active torsions:
REMARK  status: ('A' for Active; 'I' for Inactive)
REMARK    1  A    between atoms: N_5  and  C_14
REMARK    2  A    between atoms: C_6  and  O_25
REMARK    3  A    between atoms: C_17  and  C_22
REMARK    4  A    between atoms: O_25  and  C_26
REMARK    5  A    between atoms: C_26  and  C_27
REMARK                            x       y       z     vdW  Elec       q    Type
REMARK                         _______ _______ _______ _____ _____    ______ ____
ROOT
ATOM      1  N   UNL     1      33.928 -23.560 -14.359  0.00  0.00    -0.293 NA
ATOM      2  N   UNL     1      37.451 -23.668 -13.310  0.00  0.00    -0.266 NA
ATOM      3  N   UNL     1      34.244 -23.868 -11.960  0.00  0.00    -0.316 NA
ATOM      4  N   UNL     1      36.577 -23.939 -11.277  0.00  0.00    -0.296 N 
ATOM      5  N   UNL     1      32.105 -23.763 -12.902  0.00  0.00    -0.238 N 
ATOM      6  C   UNL     1      35.260 -23.521 -14.574  0.00  0.00    +0.288 C 
ATOM      7  C   UNL     1      36.096 -23.656 -13.484  0.00  0.00    +0.215 C 
ATOM      8  C   UNL     1      35.576 -23.825 -12.208  0.00  0.00    +0.196 C 
ATOM      9  C   UNL     1      33.507 -23.728 -13.083  0.00  0.00    +0.207 C 
ATOM     10  C   UNL     1      37.690 -23.840 -11.973  0.00  0.00    +0.164 C 
ATOM     11  H   UNL     1      38.130 -23.572 -14.016  0.00  0.00    +0.126 HD
ATOM     12  H   UNL     1      36.483 -24.065 -10.305  0.00  0.00    +0.150 HD
ATOM     13  H   UNL     1      31.829 -23.886 -11.965  0.00  0.00    +0.166 HD
ENDROOT
BRANCH   5  14
ATOM     14  C   UNL     1      31.028 -23.656 -13.799  0.00  0.00    +0.058 C 
ATOM     15  C   UNL     1      30.856 -22.492 -14.554  0.00  0.00    +0.015 C 
ATOM     16  C   UNL     1      30.125 -24.712 -13.941  0.00  0.00    +0.015 C 
ATOM     17  C   UNL     1      28.888 -23.442 -15.583  0.00  0.00    +0.053 C 
ATOM     18  C   UNL     1      29.788 -22.385 -15.445  0.00  0.00    +0.006 C 
ATOM     19  C   UNL     1      29.056 -24.605 -14.832  0.00  0.00    +0.006 C 
BRANCH  17  22
ATOM     20  O   UNL     1      27.342 -24.322 -17.127  0.00  0.00    -0.270 OA
ATOM     21  N   UNL     1      27.192 -22.078 -16.678  0.00  0.00    -0.325 N 
ATOM     22  C   UNL     1      27.775 -23.331 -16.512  0.00  0.00    +0.243 C 
ATOM     23  H   UNL     1      26.436 -21.965 -17.299  0.00  0.00    +0.145 HD
ATOM     24  H   UNL     1      27.536 -21.304 -16.175  0.00  0.00    +0.145 HD
ENDBRANCH  17  22
ENDBRANCH   5  14
BRANCH   6  25
ATOM     25  O   UNL     1      35.721 -23.352 -15.857  0.00  0.00    -0.453 OA
BRANCH  25  26
ATOM     26  C   UNL     1      35.830 -22.023 -16.331  0.00  0.00    +0.208 C 
BRANCH  26  27
ATOM     27  C   UNL     1      35.264 -21.966 -17.748  0.00  0.00    +0.044 C 
ATOM     28  C   UNL     1      33.733 -21.872 -17.717  0.00  0.00    +0.004 C 
ATOM     29  C   UNL     1      35.867 -20.789 -18.526  0.00  0.00    +0.004 C 
ATOM     30  C   UNL     1      33.146 -21.761 -19.123  0.00  0.00    +0.000 C 
ATOM     31  C   UNL     1      35.276 -20.679 -19.929  0.00  0.00    +0.000 C 
ATOM     32  C   UNL     1      33.754 -20.596 -19.895  0.00  0.00    +0.000 C 
ENDBRANCH  26  27
ENDBRANCH  25  26
ENDBRANCH   6  25
TORSDOF 5
ENDMDL
MODEL 5
REMARK VINA RESULT:     -11.5      2.558      5.461
REMARK  Name = 447656
REMARK  5 active torsions:
REMARK  status: ('A' for Active; 'I' for Inactive)
REMARK    1  A    between atoms: N_5  and  C_14
REMARK    2  A    between atoms: C_6  and  O_25
REMARK    3  A    between atoms: C_17  and  C_22
REMARK    4  A    between atoms: O_25  and  C_26
REMARK    5  A    between atoms: C_26  and  C_27
REMARK                            x       y       z     vdW  Elec       q    Type
REMARK                         _______ _______ _______ _____ _____    ______ ____
ROOT
ATOM      1  N   UNL     1      34.644 -22.148 -17.328  0.00  0.00    -0.293 NA
ATOM      2  N   UNL     1      33.052 -20.690 -20.304  0.00  0.00    -0.266 NA
ATOM      3  N   UNL     1      36.072 -20.607 -18.569  0.00  0.00    -0.316 NA
ATOM      4  N   UNL     1      35.009 -19.650 -20.534  0.00  0.00    -0.296 N 
ATOM      5  N   UNL     1      36.832 -21.679 -16.632  0.00  0.00    -0.238 N 
ATOM      6  C   UNL     1      33.625 -21.970 -18.195  0.00  0.00    +0.288 C 
ATOM      7  C   UNL     1      33.820 -21.110 -19.256  0.00  0.00    +0.215 C 
ATOM      8  C   UNL     1      35.030 -20.450 -19.421  0.00  0.00    +0.196 C 
ATOM      9  C   UNL     1      35.790 -21.465 -17.564  0.00  0.00    +0.207 C 
ATOM     10  C   UNL     1      33.806 -19.817 -21.041  0.00  0.00    +0.164 C 
ATOM     11  H   UNL     1      32.125 -20.965 -20.494  0.00  0.00    +0.126 HD
ATOM     12  H   UNL     1      35.733 -19.077 -20.878  0.00  0.00    +0.150 HD
ATOM     13  H   UNL     1      37.650 -21.170 -16.829  0.00  0.00    +0.166 HD
ENDROOT
BRANCH   5  14
ATOM     14  C   UNL     1      36.926 -22.478 -15.479  0.00  0.00    +0.058 C 
ATOM     15  C   UNL     1      35.974 -22.359 -14.463  0.00  0.00    +0.015 C 
ATOM     16  C   UNL     1      37.972 -23.393 -15.343  0.00  0.00    +0.015 C 
ATOM     17  C   UNL     1      37.113 -24.064 -13.187  0.00  0.00    +0.053 C 
ATOM     18  C   UNL     1      36.067 -23.151 -13.319  0.00  0.00    +0.006 C 
ATOM     19  C   UNL     1      38.065 -24.186 -14.199  0.00  0.00    +0.006 C 
BRANCH  17  22
ATOM     20  O   UNL     1      37.321 -24.386 -10.863  0.00  0.00    -0.270 OA
ATOM     21  N   UNL     1      37.153 -26.272 -12.158  0.00  0.00    -0.325 N 
ATOM     22  C   UNL     1      37.209 -24.891 -11.995  0.00  0.00    +0.243 C 
ATOM     23  H   UNL     1      37.216 -26.863 -11.373  0.00  0.00    +0.145 HD
ATOM     24  H   UNL     1      37.052 -26.658 -13.058  0.00  0.00    +0.145 HD
ENDBRANCH  17  22
ENDBRANCH   5  14
BRANCH   6  25
ATOM     25  O   UNL     1      32.450 -22.649 -17.985  0.00  0.00    -0.453 OA
BRANCH  25  26
ATOM     26  C   UNL     1      31.629 -22.200 -16.922  0.00  0.00    +0.208 C 
BRANCH  26  27
ATOM     27  C   UNL     1      31.529 -23.315 -15.883  0.00  0.00    +0.044 C 
ATOM     28  C   UNL     1      32.318 -22.951 -14.618  0.00  0.00    +0.004 C 
ATOM     29  C   UNL     1      30.062 -23.610 -15.545  0.00  0.00    +0.004 C 
ATOM     30  C   UNL     1      32.189 -24.029 -13.543  0.00  0.00    +0.000 C 
ATOM     31  C   UNL     1      29.937 -24.686 -14.468  0.00  0.00    +0.000 C 
ATOM     32  C   UNL     1      30.730 -24.325 -13.217  0.00  0.00    +0.000 C 
ENDBRANCH  26  27
ENDBRANCH  25  26
ENDBRANCH   6  25
TORSDOF 5
ENDMDL
MODEL 6
REMARK VINA RESULT:     -11.5      7.283     10.546
REMARK  Name = 447656
REMARK  5 active torsions:
REMARK  status: ('A' for Active; 'I' for Inactive)
REMARK    1  A    between atoms: N_5  and  C_14
REMARK    2  A    between atoms: C_6  and  O_25
REMARK    3  A    between atoms: C_17  and  C_22
REMARK    4  A    between atoms: O_25  and  C_26
REMARK    5  A    between atoms: C_26  and  C_27
REMARK                            x       y       z     vdW  Elec       q    Type
REMARK                         _______ _______ _______ _____ _____    ______ ____
ROOT
ATOM      1  N   UNL     1      33.963 -15.700 -22.256  0.00  0.00    -0.293 NA
ATOM      2  N   UNL     1      32.952 -12.707 -24.139  0.00  0.00    -0.266 NA
ATOM      3  N   UNL     1      33.684 -16.075 -24.651  0.00  0.00    -0.316 NA
ATOM      4  N   UNL     1      33.015 -14.090 -25.885  0.00  0.00    -0.296 N 
ATOM      5  N   UNL     1      34.323 -17.807 -23.213  0.00  0.00    -0.238 N 
ATOM      6  C   UNL     1      33.631 -14.397 -22.378  0.00  0.00    +0.288 C 
ATOM      7  C   UNL     1      33.322 -13.922 -23.636  0.00  0.00    +0.215 C 
ATOM      8  C   UNL     1      33.354 -14.763 -24.740  0.00  0.00    +0.196 C 
ATOM      9  C   UNL     1      33.969 -16.449 -23.385  0.00  0.00    +0.207 C 
ATOM     10  C   UNL     1      32.779 -12.858 -25.489  0.00  0.00    +0.164 C 
ATOM     11  H   UNL     1      32.831 -11.876 -23.624  0.00  0.00    +0.126 HD
ATOM     12  H   UNL     1      32.960 -14.449 -26.801  0.00  0.00    +0.150 HD
ATOM     13  H   UNL     1      34.319 -18.326 -24.050  0.00  0.00    +0.166 HD
ENDROOT
BRANCH   5  14
ATOM     14  C   UNL     1      34.679 -18.561 -22.081  0.00  0.00    +0.058 C 
ATOM     15  C   UNL     1      33.742 -19.402 -21.475  0.00  0.00    +0.015 C 
ATOM     16  C   UNL     1      35.970 -18.472 -21.557  0.00  0.00    +0.015 C 
ATOM     17  C   UNL     1      35.385 -20.060 -19.831  0.00  0.00    +0.053 C 
ATOM     18  C   UNL     1      34.094 -20.151 -20.353  0.00  0.00    +0.006 C 
ATOM     19  C   UNL     1      36.323 -19.221 -20.433  0.00  0.00    +0.006 C 
BRANCH  17  22
ATOM     20  O   UNL     1      35.290 -21.979 -18.469  0.00  0.00    -0.270 OA
ATOM     21  N   UNL     1      36.661 -20.279 -17.768  0.00  0.00    -0.325 N 
ATOM     22  C   UNL     1      35.753 -20.840 -18.662  0.00  0.00    +0.243 C 
ATOM     23  H   UNL     1      36.932 -20.779 -16.964  0.00  0.00    +0.145 HD
ATOM     24  H   UNL     1      37.029 -19.382 -17.938  0.00  0.00    +0.145 HD
ENDBRANCH  17  22
ENDBRANCH   5  14
BRANCH   6  25
ATOM     25  O   UNL     1      33.614 -13.609 -21.253  0.00  0.00    -0.453 OA
BRANCH  25  26
ATOM     26  C   UNL     1      32.347 -13.312 -20.695  0.00  0.00    +0.208 C 
BRANCH  26  27
ATOM     27  C   UNL     1      32.119 -11.804 -20.787  0.00  0.00    +0.044 C 
ATOM     28  C   UNL     1      31.020 -11.483 -21.809  0.00  0.00    +0.004 C 
ATOM     29  C   UNL     1      31.771 -11.224 -19.410  0.00  0.00    +0.004 C 
ATOM     30  C   UNL     1      30.736  -9.984 -21.880  0.00  0.00    +0.000 C 
ATOM     31  C   UNL     1      31.486  -9.726 -19.486  0.00  0.00    +0.000 C 
ATOM     32  C   UNL     1      30.400  -9.410 -20.509  0.00  0.00    +0.000 C 
ENDBRANCH  26  27
ENDBRANCH  25  26
ENDBRANCH   6  25
TORSDOF 5
ENDMDL
MODEL 7
REMARK VINA RESULT:     -11.2      1.973      6.472
REMARK  Name = 447656
REMARK  5 active torsions:
REMARK  status: ('A' for Active; 'I' for Inactive)
REMARK    1  A    between atoms: N_5  and  C_14
REMARK    2  A    between atoms: C_6  and  O_25
REMARK    3  A    between atoms: C_17  and  C_22
REMARK    4  A    between atoms: O_25  and  C_26
REMARK    5  A    between atoms: C_26  and  C_27
REMARK                            x       y       z     vdW  Elec       q    Type
REMARK                         _______ _______ _______ _____ _____    ______ ____
ROOT
ATOM      1  N   UNL     1      34.877 -23.649 -14.625  0.00  0.00    -0.293 NA
ATOM      2  N   UNL     1      38.515 -24.084 -14.321  0.00  0.00    -0.266 NA
ATOM      3  N   UNL     1      35.585 -24.695 -12.538  0.00  0.00    -0.316 NA
ATOM      4  N   UNL     1      37.991 -24.978 -12.347  0.00  0.00    -0.296 N 
ATOM      5  N   UNL     1      33.324 -24.297 -12.995  0.00  0.00    -0.238 N 
ATOM      6  C   UNL     1      36.152 -23.546 -15.056  0.00  0.00    +0.288 C 
ATOM      7  C   UNL     1      37.154 -24.016 -14.233  0.00  0.00    +0.215 C 
ATOM      8  C   UNL     1      36.853 -24.577 -12.999  0.00  0.00    +0.196 C 
ATOM      9  C   UNL     1      34.674 -24.209 -13.409  0.00  0.00    +0.207 C 
ATOM     10  C   UNL     1      38.971 -24.667 -13.169  0.00  0.00    +0.164 C 
ATOM     11  H   UNL     1      39.067 -23.771 -15.074  0.00  0.00    +0.126 HD
ATOM     12  H   UNL     1      38.060 -25.403 -11.462  0.00  0.00    +0.150 HD
ATOM     13  H   UNL     1      33.208 -24.707 -12.108  0.00  0.00    +0.166 HD
ENDROOT
BRANCH   5  14
ATOM     14  C   UNL     1      32.117 -23.912 -13.603  0.00  0.00    +0.058 C 
ATOM     15  C   UNL     1      32.061 -22.754 -14.383  0.00  0.00    +0.015 C 
ATOM     16  C   UNL     1      30.967 -24.686 -13.432  0.00  0.00    +0.015 C 
ATOM     17  C   UNL     1      29.717 -23.147 -14.813  0.00  0.00    +0.053 C 
ATOM     18  C   UNL     1      30.863 -22.372 -14.987  0.00  0.00    +0.006 C 
ATOM     19  C   UNL     1      29.768 -24.305 -14.036  0.00  0.00    +0.006 C 
BRANCH  17  22
ATOM     20  O   UNL     1      27.926 -21.662 -15.178  0.00  0.00    -0.270 OA
ATOM     21  N   UNL     1      27.906 -23.621 -16.372  0.00  0.00    -0.325 N 
ATOM     22  C   UNL     1      28.469 -22.750 -15.443  0.00  0.00    +0.243 C 
ATOM     23  H   UNL     1      27.060 -23.385 -16.818  0.00  0.00    +0.145 HD
ATOM     24  H   UNL     1      28.352 -24.473 -16.581  0.00  0.00    +0.145 HD
ENDBRANCH  17  22
ENDBRANCH   5  14
BRANCH   6  25
ATOM     25  O   UNL     1      36.393 -22.983 -16.286  0.00  0.00    -0.453 OA
BRANCH  25  26
ATOM     26  C   UNL     1      35.811 -21.717 -16.538  0.00  0.00    +0.208 C 
BRANCH  26  27
ATOM     27  C   UNL     1      35.209 -21.733 -17.942  0.00  0.00    +0.044 C 
ATOM     28  C   UNL     1      33.677 -21.668 -17.875  0.00  0.00    +0.004 C 
ATOM     29  C   UNL     1      35.767 -20.579 -18.785  0.00  0.00    +0.004 C 
ATOM     30  C   UNL     1      33.052 -21.629 -19.268  0.00  0.00    +0.000 C 
ATOM     31  C   UNL     1      35.139 -20.541 -20.176  0.00  0.00    +0.000 C 
ATOM     32  C   UNL     1      33.617 -20.486 -20.105  0.00  0.00    +0.000 C 
ENDBRANCH  26  27
ENDBRANCH  25  26
ENDBRANCH   6  25
TORSDOF 5
ENDMDL
MODEL 8
REMARK VINA RESULT:     -10.9      2.184      6.695
REMARK  Name = 447656
REMARK  5 active torsions:
REMARK  status: ('A' for Active; 'I' for Inactive)
REMARK    1  A    between atoms: N_5  and  C_14
REMARK    2  A    between atoms: C_6  and  O_25
REMARK    3  A    between atoms: C_17  and  C_22
REMARK    4  A    between atoms: O_25  and  C_26
REMARK    5  A    between atoms: C_26  and  C_27
REMARK                            x       y       z     vdW  Elec       q    Type
REMARK                         _______ _______ _______ _____ _____    ______ ____
ROOT
ATOM      1  N   UNL     1      34.196 -23.372 -14.208  0.00  0.00    -0.293 NA
ATOM      2  N   UNL     1      37.712 -23.651 -13.169  0.00  0.00    -0.266 NA
ATOM      3  N   UNL     1      34.511 -23.573 -11.797  0.00  0.00    -0.316 NA
ATOM      4  N   UNL     1      36.839 -23.757 -11.122  0.00  0.00    -0.296 N 
ATOM      5  N   UNL     1      32.375 -23.380 -12.734  0.00  0.00    -0.238 N 
ATOM      6  C   UNL     1      35.526 -23.430 -14.430  0.00  0.00    +0.288 C 
ATOM      7  C   UNL     1      36.360 -23.561 -13.338  0.00  0.00    +0.215 C 
ATOM      8  C   UNL     1      35.840 -23.629 -12.053  0.00  0.00    +0.196 C 
ATOM      9  C   UNL     1      33.775 -23.445 -12.922  0.00  0.00    +0.207 C 
ATOM     10  C   UNL     1      37.950 -23.767 -11.826  0.00  0.00    +0.164 C 
ATOM     11  H   UNL     1      38.391 -23.636 -13.883  0.00  0.00    +0.126 HD
ATOM     12  H   UNL     1      36.745 -23.825 -10.144  0.00  0.00    +0.150 HD
ATOM     13  H   UNL     1      32.099 -23.435 -11.791  0.00  0.00    +0.166 HD
ENDROOT
BRANCH   5  14
ATOM     14  C   UNL     1      31.300 -23.251 -13.631  0.00  0.00    +0.058 C 
ATOM     15  C   UNL     1      31.135 -22.073 -14.364  0.00  0.00    +0.015 C 
ATOM     16  C   UNL     1      30.393 -24.301 -13.794  0.00  0.00    +0.015 C 
ATOM     17  C   UNL     1      29.165 -22.995 -15.414  0.00  0.00    +0.053 C 
ATOM     18  C   UNL     1      30.069 -21.945 -15.254  0.00  0.00    +0.006 C 
ATOM     19  C   UNL     1      29.326 -24.173 -14.684  0.00  0.00    +0.006 C 
BRANCH  17  22
ATOM     20  O   UNL     1      27.690 -21.749 -16.763  0.00  0.00    -0.270 OA
ATOM     21  N   UNL     1      27.419 -24.027 -16.764  0.00  0.00    -0.325 N 
ATOM     22  C   UNL     1      28.054 -22.862 -16.342  0.00  0.00    +0.243 C 
ATOM     23  H   UNL     1      26.662 -23.975 -17.392  0.00  0.00    +0.145 HD
ATOM     24  H   UNL     1      27.725 -24.902 -16.433  0.00  0.00    +0.145 HD
ENDBRANCH  17  22
ENDBRANCH   5  14
BRANCH   6  25
ATOM     25  O   UNL     1      35.987 -23.360 -15.722  0.00  0.00    -0.453 OA
BRANCH  25  26
ATOM     26  C   UNL     1      36.436 -22.096 -16.176  0.00  0.00    +0.208 C 
BRANCH  26  27
ATOM     27  C   UNL     1      35.384 -21.519 -17.121  0.00  0.00    +0.044 C 
ATOM     28  C   UNL     1      35.992 -21.239 -18.502  0.00  0.00    +0.004 C 
ATOM     29  C   UNL     1      34.181 -22.464 -17.236  0.00  0.00    +0.004 C 
ATOM     30  C   UNL     1      34.947 -20.710 -19.482  0.00  0.00    +0.000 C 
ATOM     31  C   UNL     1      33.140 -21.935 -18.218  0.00  0.00    +0.000 C 
ATOM     32  C   UNL     1      33.749 -21.648 -19.587  0.00  0.00    +0.000 C 
ENDBRANCH  26  27
ENDBRANCH  25  26
ENDBRANCH   6  25
TORSDOF 5
ENDMDL
MODEL 9
REMARK VINA RESULT:     -10.4      2.912      6.918
REMARK  Name = 447656
REMARK  5 active torsions:
REMARK  status: ('A' for Active; 'I' for Inactive)
REMARK    1  A    between atoms: N_5  and  C_14
REMARK    2  A    between atoms: C_6  and  O_25
REMARK    3  A    between atoms: C_17  and  C_22
REMARK    4  A    between atoms: O_25  and  C_26
REMARK    5  A    between atoms: C_26  and  C_27
REMARK                            x       y       z     vdW  Elec       q    Type
REMARK                         _______ _______ _______ _____ _____    ______ ____
ROOT
ATOM      1  N   UNL     1      33.865 -21.605 -18.030  0.00  0.00    -0.293 NA
ATOM      2  N   UNL     1      36.101 -19.978 -20.455  0.00  0.00    -0.266 NA
ATOM      3  N   UNL     1      32.704 -20.413 -19.814  0.00  0.00    -0.316 NA
ATOM      4  N   UNL     1      34.191 -19.342 -21.411  0.00  0.00    -0.296 N 
ATOM      5  N   UNL     1      31.526 -21.540 -18.135  0.00  0.00    -0.238 N 
ATOM      6  C   UNL     1      35.072 -21.268 -18.532  0.00  0.00    +0.288 C 
ATOM      7  C   UNL     1      35.106 -20.500 -19.678  0.00  0.00    +0.215 C 
ATOM      8  C   UNL     1      33.930 -20.091 -20.293  0.00  0.00    +0.196 C 
ATOM      9  C   UNL     1      32.770 -21.164 -18.693  0.00  0.00    +0.207 C 
ATOM     10  C   UNL     1      35.504 -19.293 -21.479  0.00  0.00    +0.164 C 
ATOM     11  H   UNL     1      37.069 -20.077 -20.304  0.00  0.00    +0.126 HD
ATOM     12  H   UNL     1      33.541 -18.931 -22.026  0.00  0.00    +0.150 HD
ATOM     13  H   UNL     1      30.749 -21.206 -18.638  0.00  0.00    +0.166 HD
ENDROOT
BRANCH   5  14
ATOM     14  C   UNL     1      31.183 -22.298 -17.002  0.00  0.00    +0.058 C 
ATOM     15  C   UNL     1      32.178 -22.942 -16.261  0.00  0.00    +0.015 C 
ATOM     16  C   UNL     1      29.847 -22.412 -16.612  0.00  0.00    +0.015 C 
ATOM     17  C   UNL     1      30.503 -23.806 -14.750  0.00  0.00    +0.053 C 
ATOM     18  C   UNL     1      31.838 -23.695 -15.137  0.00  0.00    +0.006 C 
ATOM     19  C   UNL     1      29.507 -23.164 -15.487  0.00  0.00    +0.006 C 
BRANCH  17  22
ATOM     20  O   UNL     1      30.856 -24.582 -12.554  0.00  0.00    -0.270 OA
ATOM     21  N   UNL     1      28.976 -25.337 -13.628  0.00  0.00    -0.325 N 
ATOM     22  C   UNL     1      30.149 -24.589 -13.578  0.00  0.00    +0.243 C 
ATOM     23  H   UNL     1      28.704 -25.880 -12.853  0.00  0.00    +0.145 HD
ATOM     24  H   UNL     1      28.418 -25.324 -14.440  0.00  0.00    +0.145 HD
ENDBRANCH  17  22
ENDBRANCH   5  14
BRANCH   6  25
ATOM     25  O   UNL     1      36.204 -21.698 -17.884  0.00  0.00    -0.453 OA
BRANCH  25  26
ATOM     26  C   UNL     1      36.722 -20.859 -16.868  0.00  0.00    +0.208 C 
BRANCH  26  27
ATOM     27  C   UNL     1      36.856 -21.678 -15.585  0.00  0.00    +0.044 C 
ATOM     28  C   UNL     1      35.478 -22.135 -15.087  0.00  0.00    +0.004 C 
ATOM     29  C   UNL     1      37.784 -22.880 -15.804  0.00  0.00    +0.004 C 
ATOM     30  C   UNL     1      35.590 -23.001 -13.834  0.00  0.00    +0.000 C 
ATOM     31  C   UNL     1      37.891 -23.744 -14.550  0.00  0.00    +0.000 C 
ATOM     32  C   UNL     1      36.520 -24.189 -14.053  0.00  0.00    +0.000 C 
ENDBRANCH  26  27
ENDBRANCH  25  26
ENDBRANCH   6  25
TORSDOF 5
ENDMDL
