MODEL 1
REMARK VINA RESULT:     -11.2      0.000      0.000
REMARK  Name = 92093
REMARK  4 active torsions:
REMARK  status: ('A' for Active; 'I' for Inactive)
REMARK    1  A    between atoms: C_1  and  N_7
REMARK    2  A    between atoms: C_6  and  N_15
REMARK    3  A    between atoms: N_7  and  C_9
REMARK    4  A    between atoms: N_15  and  C_17
REMARK                            x       y       z     vdW  Elec       q    Type
REMARK                         _______ _______ _______ _____ _____    ______ ____
ROOT
ATOM      1  C   UNL     1      34.224 -15.448 -21.635  0.00  0.00    +0.045 C 
ATOM      2  C   UNL     1      34.110 -15.176 -23.012  0.00  0.00    +0.016 C 
ATOM      3  C   UNL     1      33.686 -14.514 -20.727  0.00  0.00    +0.016 C 
ATOM      4  C   UNL     1      33.483 -14.015 -23.466  0.00  0.00    +0.016 C 
ATOM      5  C   UNL     1      33.059 -13.353 -21.181  0.00  0.00    +0.016 C 
ATOM      6  C   UNL     1      32.957 -13.104 -22.549  0.00  0.00    +0.048 C 
ENDROOT
BRANCH   1   7
ATOM      7  N   UNL     1      34.846 -16.599 -21.186  0.00  0.00    -0.334 N 
ATOM      8  H   UNL     1      35.030 -16.683 -20.223  0.00  0.00    +0.147 HD
BRANCH   7   9
ATOM      9  C   UNL     1      35.242 -17.687 -22.058  0.00  0.00    +0.069 C 
ATOM     10  C   UNL     1      36.544 -18.319 -21.554  0.00  0.00    +0.019 C 
ATOM     11  C   UNL     1      34.117 -18.722 -22.155  0.00  0.00    +0.019 C 
ATOM     12  C   UNL     1      36.353 -19.119 -20.264  0.00  0.00    +0.002 C 
ATOM     13  C   UNL     1      33.934 -19.519 -20.863  0.00  0.00    +0.002 C 
ATOM     14  C   UNL     1      35.242 -20.155 -20.403  0.00  0.00    +0.000 C 
ENDBRANCH   7   9
ENDBRANCH   1   7
BRANCH   6  15
ATOM     15  N   UNL     1      32.322 -11.930 -23.008  0.00  0.00    -0.313 N 
ATOM     16  H   UNL     1      32.099 -11.950 -23.966  0.00  0.00    +0.152 HD
BRANCH  15  17
ATOM     17  C   UNL     1      31.944 -10.737 -22.364  0.00  0.00    +0.048 C 
ATOM     18  C   UNL     1      32.293  -9.503 -22.915  0.00  0.00    +0.015 C 
ATOM     19  C   UNL     1      31.220 -10.785 -21.170  0.00  0.00    +0.015 C 
ATOM     20  C   UNL     1      31.919  -8.321 -22.276  0.00  0.00    +0.001 C 
ATOM     21  C   UNL     1      30.846  -9.603 -20.531  0.00  0.00    +0.001 C 
ATOM     22  C   UNL     1      31.196  -8.371 -21.084  0.00  0.00    +0.000 C 
ENDBRANCH  15  17
ENDBRANCH   6  15
TORSDOF 4
ENDMDL
MODEL 2
REMARK VINA RESULT:     -11.2      0.360      1.559
REMARK  Name = 92093
REMARK  4 active torsions:
REMARK  status: ('A' for Active; 'I' for Inactive)
REMARK    1  A    between atoms: C_1  and  N_7
REMARK    2  A    between atoms: C_6  and  N_15
REMARK    3  A    between atoms: N_7  and  C_9
REMARK    4  A    between atoms: N_15  and  C_17
REMARK                            x       y       z     vdW  Elec       q    Type
REMARK                         _______ _______ _______ _____ _____    ______ ____
ROOT
ATOM      1  C   UNL     1      34.298 -15.510 -21.748  0.00  0.00    +0.045 C 
ATOM      2  C   UNL     1      33.919 -14.452 -20.898  0.00  0.00    +0.016 C 
ATOM      3  C   UNL     1      34.172 -15.320 -23.139  0.00  0.00    +0.016 C 
ATOM      4  C   UNL     1      33.431 -13.253 -21.417  0.00  0.00    +0.016 C 
ATOM      5  C   UNL     1      33.685 -14.120 -23.657  0.00  0.00    +0.016 C 
ATOM      6  C   UNL     1      33.315 -13.087 -22.797  0.00  0.00    +0.048 C 
ENDROOT
BRANCH   1   7
ATOM      7  N   UNL     1      34.781 -16.699 -21.234  0.00  0.00    -0.334 N 
ATOM      8  H   UNL     1      34.848 -16.790 -20.256  0.00  0.00    +0.147 HD
BRANCH   7   9
ATOM      9  C   UNL     1      35.196 -17.818 -22.057  0.00  0.00    +0.069 C 
ATOM     10  C   UNL     1      36.510 -18.403 -21.529  0.00  0.00    +0.019 C 
ATOM     11  C   UNL     1      34.089 -18.876 -22.105  0.00  0.00    +0.019 C 
ATOM     12  C   UNL     1      36.335 -19.147 -20.204  0.00  0.00    +0.002 C 
ATOM     13  C   UNL     1      33.923 -19.618 -20.778  0.00  0.00    +0.002 C 
ATOM     14  C   UNL     1      35.244 -20.208 -20.293  0.00  0.00    +0.000 C 
ENDBRANCH   7   9
ENDBRANCH   1   7
BRANCH   6  15
ATOM     15  N   UNL     1      32.823 -11.873 -23.322  0.00  0.00    -0.313 N 
ATOM     16  H   UNL     1      32.925 -11.793 -24.297  0.00  0.00    +0.152 HD
BRANCH  15  17
ATOM     17  C   UNL     1      32.211 -10.755 -22.723  0.00  0.00    +0.048 C 
ATOM     18  C   UNL     1      31.231 -10.933 -21.745  0.00  0.00    +0.015 C 
ATOM     19  C   UNL     1      32.583  -9.464 -23.106  0.00  0.00    +0.015 C 
ATOM     20  C   UNL     1      30.624  -9.825 -21.153  0.00  0.00    +0.001 C 
ATOM     21  C   UNL     1      31.978  -8.357 -22.513  0.00  0.00    +0.001 C 
ATOM     22  C   UNL     1      30.998  -8.537 -21.538  0.00  0.00    +0.000 C 
ENDBRANCH  15  17
ENDBRANCH   6  15
TORSDOF 4
ENDMDL
MODEL 3
REMARK VINA RESULT:     -11.1      1.482      8.294
REMARK  Name = 92093
REMARK  4 active torsions:
REMARK  status: ('A' for Active; 'I' for Inactive)
REMARK    1  A    between atoms: C_1  and  N_7
REMARK    2  A    between atoms: C_6  and  N_15
REMARK    3  A    between atoms: N_7  and  C_9
REMARK    4  A    between atoms: N_15  and  C_17
REMARK                            x       y       z     vdW  Elec       q    Type
REMARK                         _______ _______ _______ _____ _____    ______ ____
ROOT
ATOM      1  C   UNL     1      34.111 -14.707 -22.462  0.00  0.00    +0.045 C 
ATOM      2  C   UNL     1      34.217 -15.177 -21.138  0.00  0.00    +0.016 C 
ATOM      3  C   UNL     1      34.319 -15.626 -23.510  0.00  0.00    +0.016 C 
ATOM      4  C   UNL     1      34.520 -16.512 -20.872  0.00  0.00    +0.016 C 
ATOM      5  C   UNL     1      34.621 -16.961 -23.243  0.00  0.00    +0.016 C 
ATOM      6  C   UNL     1      34.721 -17.405 -21.925  0.00  0.00    +0.048 C 
ENDROOT
BRANCH   1   7
ATOM      7  N   UNL     1      33.811 -13.383 -22.726  0.00  0.00    -0.334 N 
ATOM      8  H   UNL     1      34.477 -12.699 -22.487  0.00  0.00    +0.147 HD
BRANCH   7   9
ATOM      9  C   UNL     1      32.568 -12.950 -23.334  0.00  0.00    +0.069 C 
ATOM     10  C   UNL     1      31.487 -12.783 -22.260  0.00  0.00    +0.019 C 
ATOM     11  C   UNL     1      32.788 -11.650 -24.114  0.00  0.00    +0.019 C 
ATOM     12  C   UNL     1      31.733 -11.575 -21.356  0.00  0.00    +0.002 C 
ATOM     13  C   UNL     1      33.029 -10.446 -23.204  0.00  0.00    +0.002 C 
ATOM     14  C   UNL     1      31.923 -10.295 -22.164  0.00  0.00    +0.000 C 
ENDBRANCH   7   9
ENDBRANCH   1   7
BRANCH   6  15
ATOM     15  N   UNL     1      35.027 -18.755 -21.655  0.00  0.00    -0.313 N 
ATOM     16  H   UNL     1      35.717 -19.131 -22.247  0.00  0.00    +0.152 HD
BRANCH  15  17
ATOM     17  C   UNL     1      34.538 -19.671 -20.704  0.00  0.00    +0.048 C 
ATOM     18  C   UNL     1      35.428 -20.395 -19.908  0.00  0.00    +0.015 C 
ATOM     19  C   UNL     1      33.162 -19.859 -20.555  0.00  0.00    +0.015 C 
ATOM     20  C   UNL     1      34.944 -21.303 -18.966  0.00  0.00    +0.001 C 
ATOM     21  C   UNL     1      32.678 -20.766 -19.612  0.00  0.00    +0.001 C 
ATOM     22  C   UNL     1      33.569 -21.489 -18.819  0.00  0.00    +0.000 C 
ENDBRANCH  15  17
ENDBRANCH   6  15
TORSDOF 4
ENDMDL
MODEL 4
REMARK VINA RESULT:     -10.8      0.769      8.229
REMARK  Name = 92093
REMARK  4 active torsions:
REMARK  status: ('A' for Active; 'I' for Inactive)
REMARK    1  A    between atoms: C_1  and  N_7
REMARK    2  A    between atoms: C_6  and  N_15
REMARK    3  A    between atoms: N_7  and  C_9
REMARK    4  A    between atoms: N_15  and  C_17
REMARK                            x       y       z     vdW  Elec       q    Type
REMARK                         _______ _______ _______ _____ _____    ______ ____
ROOT
ATOM      1  C   UNL     1      33.488 -13.160 -21.921  0.00  0.00    +0.045 C 
ATOM      2  C   UNL     1      33.808 -13.661 -23.199  0.00  0.00    +0.016 C 
ATOM      3  C   UNL     1      33.689 -14.002 -20.810  0.00  0.00    +0.016 C 
ATOM      4  C   UNL     1      34.309 -14.953 -23.359  0.00  0.00    +0.016 C 
ATOM      5  C   UNL     1      34.191 -15.294 -20.970  0.00  0.00    +0.016 C 
ATOM      6  C   UNL     1      34.501 -15.769 -22.244  0.00  0.00    +0.048 C 
ENDROOT
BRANCH   1   7
ATOM      7  N   UNL     1      32.991 -11.879 -21.763  0.00  0.00    -0.334 N 
ATOM      8  H   UNL     1      33.508 -11.244 -21.217  0.00  0.00    +0.147 HD
BRANCH   7   9
ATOM      9  C   UNL     1      31.749 -11.423 -22.357  0.00  0.00    +0.069 C 
ATOM     10  C   UNL     1      30.723 -11.114 -21.261  0.00  0.00    +0.019 C 
ATOM     11  C   UNL     1      32.007 -10.202 -23.245  0.00  0.00    +0.019 C 
ATOM     12  C   UNL     1      31.071  -9.856 -20.464  0.00  0.00    +0.002 C 
ATOM     13  C   UNL     1      32.350  -8.948 -22.441  0.00  0.00    +0.002 C 
ATOM     14  C   UNL     1      31.297  -8.655 -21.376  0.00  0.00    +0.000 C 
ENDBRANCH   7   9
ENDBRANCH   1   7
BRANCH   6  15
ATOM     15  N   UNL     1      35.008 -17.076 -22.406  0.00  0.00    -0.313 N 
ATOM     16  H   UNL     1      35.439 -17.227 -23.278  0.00  0.00    +0.152 HD
BRANCH  15  17
ATOM     17  C   UNL     1      35.020 -18.205 -21.565  0.00  0.00    +0.048 C 
ATOM     18  C   UNL     1      36.203 -18.595 -20.934  0.00  0.00    +0.015 C 
ATOM     19  C   UNL     1      33.849 -18.938 -21.360  0.00  0.00    +0.015 C 
ATOM     20  C   UNL     1      36.215 -19.714 -20.102  0.00  0.00    +0.001 C 
ATOM     21  C   UNL     1      33.861 -20.056 -20.527  0.00  0.00    +0.001 C 
ATOM     22  C   UNL     1      35.044 -20.445 -19.899  0.00  0.00    +0.000 C 
ENDBRANCH  15  17
ENDBRANCH   6  15
TORSDOF 4
ENDMDL
MODEL 5
REMARK VINA RESULT:     -10.8      4.816      9.914
REMARK  Name = 92093
REMARK  4 active torsions:
REMARK  status: ('A' for Active; 'I' for Inactive)
REMARK    1  A    between atoms: C_1  and  N_7
REMARK    2  A    between atoms: C_6  and  N_15
REMARK    3  A    between atoms: N_7  and  C_9
REMARK    4  A    between atoms: N_15  and  C_17
REMARK                            x       y       z     vdW  Elec       q    Type
REMARK                         _______ _______ _______ _____ _____    ______ ____
ROOT
ATOM      1  C   UNL     1      33.597 -19.966 -20.373  0.00  0.00    +0.045 C 
ATOM      2  C   UNL     1      34.774 -20.558 -19.873  0.00  0.00    +0.016 C 
ATOM      3  C   UNL     1      32.366 -20.357 -19.808  0.00  0.00    +0.016 C 
ATOM      4  C   UNL     1      34.723 -21.504 -18.850  0.00  0.00    +0.016 C 
ATOM      5  C   UNL     1      32.317 -21.303 -18.784  0.00  0.00    +0.016 C 
ATOM      6  C   UNL     1      33.494 -21.876 -18.305  0.00  0.00    +0.048 C 
ENDROOT
BRANCH   1   7
ATOM      7  N   UNL     1      33.647 -19.028 -21.388  0.00  0.00    -0.334 N 
ATOM      8  H   UNL     1      32.873 -18.431 -21.509  0.00  0.00    +0.147 HD
BRANCH   7   9
ATOM      9  C   UNL     1      34.777 -18.878 -22.284  0.00  0.00    +0.069 C 
ATOM     10  C   UNL     1      34.318 -19.018 -23.740  0.00  0.00    +0.019 C 
ATOM     11  C   UNL     1      35.468 -17.533 -22.041  0.00  0.00    +0.019 C 
ATOM     12  C   UNL     1      33.489 -17.824 -24.215  0.00  0.00    +0.002 C 
ATOM     13  C   UNL     1      34.635 -16.344 -22.522  0.00  0.00    +0.002 C 
ATOM     14  C   UNL     1      34.216 -16.503 -23.980  0.00  0.00    +0.000 C 
ENDBRANCH   7   9
ENDBRANCH   1   7
BRANCH   6  15
ATOM     15  N   UNL     1      33.444 -22.832 -17.269  0.00  0.00    -0.313 N 
ATOM     16  H   UNL     1      34.054 -23.593 -17.402  0.00  0.00    +0.152 HD
BRANCH  15  17
ATOM     17  C   UNL     1      32.693 -22.912 -16.080  0.00  0.00    +0.048 C 
ATOM     18  C   UNL     1      33.335 -23.129 -14.860  0.00  0.00    +0.015 C 
ATOM     19  C   UNL     1      31.303 -22.775 -16.119  0.00  0.00    +0.015 C 
ATOM     20  C   UNL     1      32.591 -23.208 -13.682  0.00  0.00    +0.001 C 
ATOM     21  C   UNL     1      30.560 -22.853 -14.942  0.00  0.00    +0.001 C 
ATOM     22  C   UNL     1      31.203 -23.071 -13.724  0.00  0.00    +0.000 C 
ENDBRANCH  15  17
ENDBRANCH   6  15
TORSDOF 4
ENDMDL
MODEL 6
REMARK VINA RESULT:     -10.7      5.005      8.638
REMARK  Name = 92093
REMARK  4 active torsions:
REMARK  status: ('A' for Active; 'I' for Inactive)
REMARK    1  A    between atoms: C_1  and  N_7
REMARK    2  A    between atoms: C_6  and  N_15
REMARK    3  A    between atoms: N_7  and  C_9
REMARK    4  A    between atoms: N_15  and  C_17
REMARK                            x       y       z     vdW  Elec       q    Type
REMARK                         _______ _______ _______ _____ _____    ______ ____
ROOT
ATOM      1  C   UNL     1      32.818 -22.115 -17.886  0.00  0.00    +0.045 C 
ATOM      2  C   UNL     1      32.212 -21.268 -18.835  0.00  0.00    +0.016 C 
ATOM      3  C   UNL     1      34.226 -22.193 -17.872  0.00  0.00    +0.016 C 
ATOM      4  C   UNL     1      32.980 -20.529 -19.734  0.00  0.00    +0.016 C 
ATOM      5  C   UNL     1      34.994 -21.453 -18.771  0.00  0.00    +0.016 C 
ATOM      6  C   UNL     1      34.372 -20.621 -19.702  0.00  0.00    +0.048 C 
ENDROOT
BRANCH   1   7
ATOM      7  N   UNL     1      32.056 -22.848 -16.995  0.00  0.00    -0.334 N 
ATOM      8  H   UNL     1      31.995 -23.821 -17.126  0.00  0.00    +0.147 HD
BRANCH   7   9
ATOM      9  C   UNL     1      31.343 -22.258 -15.879  0.00  0.00    +0.069 C 
ATOM     10  C   UNL     1      29.888 -22.741 -15.869  0.00  0.00    +0.019 C 
ATOM     11  C   UNL     1      32.054 -22.592 -14.564  0.00  0.00    +0.019 C 
ATOM     12  C   UNL     1      29.757 -24.213 -15.473  0.00  0.00    +0.002 C 
ATOM     13  C   UNL     1      31.915 -24.063 -14.172  0.00  0.00    +0.002 C 
ATOM     14  C   UNL     1      30.455 -24.505 -14.148  0.00  0.00    +0.000 C 
ENDBRANCH   7   9
ENDBRANCH   1   7
BRANCH   6  15
ATOM     15  N   UNL     1      35.149 -19.873 -20.611  0.00  0.00    -0.313 N 
ATOM     16  H   UNL     1      36.092 -20.151 -20.648  0.00  0.00    +0.152 HD
BRANCH  15  17
ATOM     17  C   UNL     1      34.838 -18.809 -21.479  0.00  0.00    +0.048 C 
ATOM     18  C   UNL     1      34.327 -19.069 -22.751  0.00  0.00    +0.015 C 
ATOM     19  C   UNL     1      35.042 -17.489 -21.069  0.00  0.00    +0.015 C 
ATOM     20  C   UNL     1      34.020 -18.014 -23.611  0.00  0.00    +0.001 C 
ATOM     21  C   UNL     1      34.735 -16.434 -21.928  0.00  0.00    +0.001 C 
ATOM     22  C   UNL     1      34.225 -16.697 -23.199  0.00  0.00    +0.000 C 
ENDBRANCH  15  17
ENDBRANCH   6  15
TORSDOF 4
ENDMDL
MODEL 7
REMARK VINA RESULT:     -10.5      4.830     10.113
REMARK  Name = 92093
REMARK  4 active torsions:
REMARK  status: ('A' for Active; 'I' for Inactive)
REMARK    1  A    between atoms: C_1  and  N_7
REMARK    2  A    between atoms: C_6  and  N_15
REMARK    3  A    between atoms: N_7  and  C_9
REMARK    4  A    between atoms: N_15  and  C_17
REMARK                            x       y       z     vdW  Elec       q    Type
REMARK                         _______ _______ _______ _____ _____    ______ ____
ROOT
ATOM      1  C   UNL     1      33.662 -20.026 -20.288  0.00  0.00    +0.045 C 
ATOM      2  C   UNL     1      34.846 -20.627 -19.819  0.00  0.00    +0.016 C 
ATOM      3  C   UNL     1      32.443 -20.408 -19.691  0.00  0.00    +0.016 C 
ATOM      4  C   UNL     1      34.815 -21.573 -18.794  0.00  0.00    +0.016 C 
ATOM      5  C   UNL     1      32.413 -21.353 -18.666  0.00  0.00    +0.016 C 
ATOM      6  C   UNL     1      33.597 -21.935 -18.217  0.00  0.00    +0.048 C 
ENDROOT
BRANCH   1   7
ATOM      7  N   UNL     1      33.693 -19.089 -21.305  0.00  0.00    -0.334 N 
ATOM      8  H   UNL     1      32.903 -18.516 -21.434  0.00  0.00    +0.147 HD
BRANCH   7   9
ATOM      9  C   UNL     1      34.826 -18.906 -22.190  0.00  0.00    +0.069 C 
ATOM     10  C   UNL     1      34.386 -19.069 -23.650  0.00  0.00    +0.019 C 
ATOM     11  C   UNL     1      35.470 -17.538 -21.948  0.00  0.00    +0.019 C 
ATOM     12  C   UNL     1      33.523 -17.905 -24.139  0.00  0.00    +0.002 C 
ATOM     13  C   UNL     1      34.604 -16.380 -22.444  0.00  0.00    +0.002 C 
ATOM     14  C   UNL     1      34.204 -16.560 -23.905  0.00  0.00    +0.000 C 
ENDBRANCH   7   9
ENDBRANCH   1   7
BRANCH   6  15
ATOM     15  N   UNL     1      33.566 -22.891 -17.180  0.00  0.00    -0.313 N 
ATOM     16  H   UNL     1      33.016 -23.681 -17.386  0.00  0.00    +0.152 HD
BRANCH  15  17
ATOM     17  C   UNL     1      34.170 -22.938 -15.909  0.00  0.00    +0.048 C 
ATOM     18  C   UNL     1      35.474 -22.472 -15.736  0.00  0.00    +0.015 C 
ATOM     19  C   UNL     1      33.466 -23.452 -14.818  0.00  0.00    +0.015 C 
ATOM     20  C   UNL     1      36.073 -22.519 -14.477  0.00  0.00    +0.001 C 
ATOM     21  C   UNL     1      34.063 -23.499 -13.559  0.00  0.00    +0.001 C 
ATOM     22  C   UNL     1      35.367 -23.033 -13.388  0.00  0.00    +0.000 C 
ENDBRANCH  15  17
ENDBRANCH   6  15
TORSDOF 4
ENDMDL
MODEL 8
REMARK VINA RESULT:     -10.4      3.939      7.176
REMARK  Name = 92093
REMARK  4 active torsions:
REMARK  status: ('A' for Active; 'I' for Inactive)
REMARK    1  A    between atoms: C_1  and  N_7
REMARK    2  A    between atoms: C_6  and  N_15
REMARK    3  A    between atoms: N_7  and  C_9
REMARK    4  A    between atoms: N_15  and  C_17
REMARK                            x       y       z     vdW  Elec       q    Type
REMARK                         _______ _______ _______ _____ _____    ______ ____
ROOT
ATOM      1  C   UNL     1      34.756 -21.398 -18.536  0.00  0.00    +0.045 C 
ATOM      2  C   UNL     1      33.514 -21.046 -19.100  0.00  0.00    +0.016 C 
ATOM      3  C   UNL     1      35.926 -20.922 -19.162  0.00  0.00    +0.016 C 
ATOM      4  C   UNL     1      33.443 -20.252 -20.244  0.00  0.00    +0.016 C 
ATOM      5  C   UNL     1      35.854 -20.127 -20.306  0.00  0.00    +0.016 C 
ATOM      6  C   UNL     1      34.614 -19.792 -20.847  0.00  0.00    +0.048 C 
ENDROOT
BRANCH   1   7
ATOM      7  N   UNL     1      34.826 -22.186 -17.402  0.00  0.00    -0.334 N 
ATOM      8  H   UNL     1      34.685 -23.155 -17.499  0.00  0.00    +0.147 HD
BRANCH   7   9
ATOM      9  C   UNL     1      35.095 -21.660 -16.078  0.00  0.00    +0.069 C 
ATOM     10  C   UNL     1      34.719 -22.697 -15.013  0.00  0.00    +0.019 C 
ATOM     11  C   UNL     1      36.565 -21.246 -15.963  0.00  0.00    +0.019 C 
ATOM     12  C   UNL     1      35.677 -23.889 -14.985  0.00  0.00    +0.002 C 
ATOM     13  C   UNL     1      37.516 -22.443 -15.931  0.00  0.00    +0.002 C 
ATOM     14  C   UNL     1      37.129 -23.442 -14.846  0.00  0.00    +0.000 C 
ENDBRANCH   7   9
ENDBRANCH   1   7
BRANCH   6  15
ATOM     15  N   UNL     1      34.542 -18.988 -22.004  0.00  0.00    -0.313 N 
ATOM     16  H   UNL     1      34.582 -19.499 -22.844  0.00  0.00    +0.152 HD
BRANCH  15  17
ATOM     17  C   UNL     1      34.422 -17.598 -22.192  0.00  0.00    +0.048 C 
ATOM     18  C   UNL     1      34.296 -17.074 -23.481  0.00  0.00    +0.015 C 
ATOM     19  C   UNL     1      34.431 -16.738 -21.092  0.00  0.00    +0.015 C 
ATOM     20  C   UNL     1      34.179 -15.697 -23.668  0.00  0.00    +0.001 C 
ATOM     21  C   UNL     1      34.312 -15.361 -21.278  0.00  0.00    +0.001 C 
ATOM     22  C   UNL     1      34.187 -14.841 -22.566  0.00  0.00    +0.000 C 
ENDBRANCH  15  17
ENDBRANCH   6  15
TORSDOF 4
ENDMDL
MODEL 9
REMARK VINA RESULT:     -10.4      6.103      9.888
REMARK  Name = 92093
REMARK  4 active torsions:
REMARK  status: ('A' for Active; 'I' for Inactive)
REMARK    1  A    between atoms: C_1  and  N_7
REMARK    2  A    between atoms: C_6  and  N_15
REMARK    3  A    between atoms: N_7  and  C_9
REMARK    4  A    between atoms: N_15  and  C_17
REMARK                            x       y       z     vdW  Elec       q    Type
REMARK                         _______ _______ _______ _____ _____    ______ ____
ROOT
ATOM      1  C   UNL     1      35.495 -22.340 -15.651  0.00  0.00    +0.045 C 
ATOM      2  C   UNL     1      36.468 -21.727 -16.465  0.00  0.00    +0.016 C 
ATOM      3  C   UNL     1      34.217 -22.565 -16.202  0.00  0.00    +0.016 C 
ATOM      4  C   UNL     1      36.177 -21.353 -17.777  0.00  0.00    +0.016 C 
ATOM      5  C   UNL     1      33.927 -22.192 -17.514  0.00  0.00    +0.016 C 
ATOM      6  C   UNL     1      34.905 -21.587 -18.301  0.00  0.00    +0.048 C 
ENDROOT
BRANCH   1   7
ATOM      7  N   UNL     1      35.784 -22.710 -14.351  0.00  0.00    -0.334 N 
ATOM      8  H   UNL     1      36.115 -22.019 -13.733  0.00  0.00    +0.147 HD
BRANCH   7   9
ATOM      9  C   UNL     1      35.628 -24.062 -13.850  0.00  0.00    +0.069 C 
ATOM     10  C   UNL     1      36.516 -25.025 -14.645  0.00  0.00    +0.019 C 
ATOM     11  C   UNL     1      35.948 -24.109 -12.353  0.00  0.00    +0.019 C 
ATOM     12  C   UNL     1      38.004 -24.841 -14.344  0.00  0.00    +0.002 C 
ATOM     13  C   UNL     1      37.438 -23.929 -12.060  0.00  0.00    +0.002 C 
ATOM     14  C   UNL     1      38.291 -24.917 -12.848  0.00  0.00    +0.000 C 
ENDBRANCH   7   9
ENDBRANCH   1   7
BRANCH   6  15
ATOM     15  N   UNL     1      34.611 -21.209 -19.629  0.00  0.00    -0.313 N 
ATOM     16  H   UNL     1      34.092 -21.881 -20.125  0.00  0.00    +0.152 HD
BRANCH  15  17
ATOM     17  C   UNL     1      34.913 -20.058 -20.381  0.00  0.00    +0.048 C 
ATOM     18  C   UNL     1      33.942 -19.486 -21.206  0.00  0.00    +0.015 C 
ATOM     19  C   UNL     1      36.185 -19.485 -20.305  0.00  0.00    +0.015 C 
ATOM     20  C   UNL     1      34.241 -18.346 -21.952  0.00  0.00    +0.001 C 
ATOM     21  C   UNL     1      36.484 -18.345 -21.050  0.00  0.00    +0.001 C 
ATOM     22  C   UNL     1      35.513 -17.776 -21.874  0.00  0.00    +0.000 C 
ENDBRANCH  15  17
ENDBRANCH   6  15
TORSDOF 4
ENDMDL
