MODEL 1
REMARK VINA RESULT:     -12.9      0.000      0.000
REMARK  Name = 447655
REMARK  6 active torsions:
REMARK  status: ('A' for Active; 'I' for Inactive)
REMARK    1  A    between atoms: N_4  and  C_14
REMARK    2  A    between atoms: C_6  and  O_26
REMARK    3  A    between atoms: C_15  and  S_20
REMARK    4  A    between atoms: S_20  and  N_23
REMARK    5  A    between atoms: O_26  and  C_27
REMARK    6  A    between atoms: C_27  and  C_28
REMARK                            x       y       z     vdW  Elec       q    Type
REMARK                         _______ _______ _______ _____ _____    ______ ____
ROOT
ATOM      1  N   UNL     1      33.084 -22.605 -16.327  0.00  0.00    -0.293 NA
ATOM      2  N   UNL     1      29.419 -22.509 -16.621  0.00  0.00    -0.266 NA
ATOM      3  N   UNL     1      31.903 -23.413 -14.351  0.00  0.00    -0.316 NA
ATOM      4  N   UNL     1      34.240 -23.363 -14.436  0.00  0.00    -0.238 N 
ATOM      5  N   UNL     1      29.481 -23.346 -14.556  0.00  0.00    -0.296 N 
ATOM      6  C   UNL     1      31.922 -22.353 -16.970  0.00  0.00    +0.288 C 
ATOM      7  C   UNL     1      30.743 -22.627 -16.309  0.00  0.00    +0.215 C 
ATOM      8  C   UNL     1      30.756 -23.149 -15.022  0.00  0.00    +0.196 C 
ATOM      9  C   UNL     1      33.003 -23.114 -15.074  0.00  0.00    +0.207 C 
ATOM     10  C   UNL     1      28.701 -22.951 -15.540  0.00  0.00    +0.164 C 
ATOM     11  H   UNL     1      29.047 -22.169 -17.467  0.00  0.00    +0.126 HD
ATOM     12  H   UNL     1      34.151 -23.733 -13.528  0.00  0.00    +0.166 HD
ATOM     13  H   UNL     1      29.209 -23.702 -13.680  0.00  0.00    +0.150 HD
ENDROOT
BRANCH   4  14
ATOM     14  C   UNL     1      35.573 -23.188 -14.848  0.00  0.00    +0.060 C 
ATOM     15  C   UNL     1      37.889 -23.887 -14.807  0.00  0.00    +0.123 C 
ATOM     16  C   UNL     1      36.567 -24.061 -14.398  0.00  0.00    +0.035 C 
ATOM     17  C   UNL     1      35.909 -22.141 -15.711  0.00  0.00    +0.015 C 
ATOM     18  C   UNL     1      38.221 -22.840 -15.669  0.00  0.00    +0.020 C 
ATOM     19  C   UNL     1      37.230 -21.968 -16.120  0.00  0.00    +0.003 C 
BRANCH  15  20
ATOM     20  S   UNL     1      39.129 -24.979 -14.244  0.00  0.00    +0.057 S 
ATOM     21  O   UNL     1      40.099 -24.214 -13.473  0.00  0.00    -0.153 OA
ATOM     22  O   UNL     1      38.485 -26.141 -13.648  0.00  0.00    -0.153 OA
BRANCH  20  23
ATOM     23  N   UNL     1      39.847 -25.448 -15.722  0.00  0.00    -0.203 NA
ATOM     24  H   UNL     1      40.242 -24.629 -16.183  0.00  0.00    +0.144 HD
ATOM     25  H   UNL     1      39.139 -25.868 -16.324  0.00  0.00    +0.144 HD
ENDBRANCH  20  23
ENDBRANCH  15  20
ENDBRANCH   4  14
BRANCH   6  26
ATOM     26  O   UNL     1      31.968 -21.837 -18.242  0.00  0.00    -0.453 OA
BRANCH  26  27
ATOM     27  C   UNL     1      33.097 -22.167 -19.029  0.00  0.00    +0.208 C 
BRANCH  27  28
ATOM     28  C   UNL     1      33.895 -20.891 -19.290  0.00  0.00    +0.044 C 
ATOM     29  C   UNL     1      35.377 -21.216 -19.521  0.00  0.00    +0.004 C 
ATOM     30  C   UNL     1      33.313 -20.122 -20.484  0.00  0.00    +0.004 C 
ATOM     31  C   UNL     1      36.187 -19.961 -19.836  0.00  0.00    +0.000 C 
ATOM     32  C   UNL     1      34.127 -18.869 -20.797  0.00  0.00    +0.000 C 
ATOM     33  C   UNL     1      35.601 -19.194 -21.017  0.00  0.00    +0.000 C 
ENDBRANCH  27  28
ENDBRANCH  26  27
ENDBRANCH   6  26
TORSDOF 6
ENDMDL
MODEL 2
REMARK VINA RESULT:     -12.6      1.777      2.421
REMARK  Name = 447655
REMARK  6 active torsions:
REMARK  status: ('A' for Active; 'I' for Inactive)
REMARK    1  A    between atoms: N_4  and  C_14
REMARK    2  A    between atoms: C_6  and  O_26
REMARK    3  A    between atoms: C_15  and  S_20
REMARK    4  A    between atoms: S_20  and  N_23
REMARK    5  A    between atoms: O_26  and  C_27
REMARK    6  A    between atoms: C_27  and  C_28
REMARK                            x       y       z     vdW  Elec       q    Type
REMARK                         _______ _______ _______ _____ _____    ______ ____
ROOT
ATOM      1  N   UNL     1      32.925 -23.454 -14.416  0.00  0.00    -0.293 NA
ATOM      2  N   UNL     1      29.520 -23.676 -15.787  0.00  0.00    -0.266 NA
ATOM      3  N   UNL     1      31.366 -24.702 -13.016  0.00  0.00    -0.316 NA
ATOM      4  N   UNL     1      33.599 -24.405 -12.385  0.00  0.00    -0.238 N 
ATOM      5  N   UNL     1      29.118 -24.844 -13.931  0.00  0.00    -0.296 N 
ATOM      6  C   UNL     1      31.969 -23.213 -15.340  0.00  0.00    +0.288 C 
ATOM      7  C   UNL     1      30.704 -23.713 -15.109  0.00  0.00    +0.215 C 
ATOM      8  C   UNL     1      30.430 -24.443 -13.960  0.00  0.00    +0.196 C 
ATOM      9  C   UNL     1      32.569 -24.175 -13.326  0.00  0.00    +0.207 C 
ATOM     10  C   UNL     1      28.599 -24.367 -15.042  0.00  0.00    +0.164 C 
ATOM     11  H   UNL     1      29.356 -23.236 -16.652  0.00  0.00    +0.126 HD
ATOM     12  H   UNL     1      33.312 -24.932 -11.604  0.00  0.00    +0.166 HD
ATOM     13  H   UNL     1      28.664 -25.370 -13.233  0.00  0.00    +0.150 HD
ENDROOT
BRANCH   4  14
ATOM     14  C   UNL     1      34.954 -24.030 -12.348  0.00  0.00    +0.060 C 
ATOM     15  C   UNL     1      37.217 -24.257 -13.173  0.00  0.00    +0.123 C 
ATOM     16  C   UNL     1      35.873 -24.631 -13.211  0.00  0.00    +0.035 C 
ATOM     17  C   UNL     1      35.385 -23.052 -11.447  0.00  0.00    +0.015 C 
ATOM     18  C   UNL     1      37.644 -23.281 -12.273  0.00  0.00    +0.020 C 
ATOM     19  C   UNL     1      36.728 -22.679 -11.410  0.00  0.00    +0.003 C 
BRANCH  15  20
ATOM     20  S   UNL     1      38.363 -25.010 -14.253  0.00  0.00    +0.057 S 
ATOM     21  O   UNL     1      39.049 -23.963 -14.997  0.00  0.00    -0.153 OA
ATOM     22  O   UNL     1      39.136 -25.987 -13.499  0.00  0.00    -0.153 OA
BRANCH  20  23
ATOM     23  N   UNL     1      37.314 -25.843 -15.314  0.00  0.00    -0.203 NA
ATOM     24  H   UNL     1      36.596 -26.324 -14.772  0.00  0.00    +0.144 HD
ATOM     25  H   UNL     1      37.848 -26.526 -15.852  0.00  0.00    +0.144 HD
ENDBRANCH  20  23
ENDBRANCH  15  20
ENDBRANCH   4  14
BRANCH   6  26
ATOM     26  O   UNL     1      32.296 -22.485 -16.458  0.00  0.00    -0.453 OA
BRANCH  26  27
ATOM     27  C   UNL     1      33.568 -22.724 -17.031  0.00  0.00    +0.208 C 
BRANCH  27  28
ATOM     28  C   UNL     1      33.586 -22.124 -18.436  0.00  0.00    +0.044 C 
ATOM     29  C   UNL     1      32.371 -21.211 -18.652  0.00  0.00    +0.004 C 
ATOM     30  C   UNL     1      34.893 -21.359 -18.682  0.00  0.00    +0.004 C 
ATOM     31  C   UNL     1      32.394 -20.557 -20.031  0.00  0.00    +0.000 C 
ATOM     32  C   UNL     1      34.912 -20.705 -20.061  0.00  0.00    +0.000 C 
ATOM     33  C   UNL     1      33.699 -19.805 -20.275  0.00  0.00    +0.000 C 
ENDBRANCH  27  28
ENDBRANCH  26  27
ENDBRANCH   6  26
TORSDOF 6
ENDMDL
MODEL 3
REMARK VINA RESULT:     -12.3      2.046      5.126
REMARK  Name = 447655
REMARK  6 active torsions:
REMARK  status: ('A' for Active; 'I' for Inactive)
REMARK    1  A    between atoms: N_4  and  C_14
REMARK    2  A    between atoms: C_6  and  O_26
REMARK    3  A    between atoms: C_15  and  S_20
REMARK    4  A    between atoms: S_20  and  N_23
REMARK    5  A    between atoms: O_26  and  C_27
REMARK    6  A    between atoms: C_27  and  C_28
REMARK                            x       y       z     vdW  Elec       q    Type
REMARK                         _______ _______ _______ _____ _____    ______ ____
ROOT
ATOM      1  N   UNL     1      34.558 -22.074 -17.488  0.00  0.00    -0.293 NA
ATOM      2  N   UNL     1      32.885 -20.545 -20.385  0.00  0.00    -0.266 NA
ATOM      3  N   UNL     1      35.950 -20.502 -18.728  0.00  0.00    -0.316 NA
ATOM      4  N   UNL     1      36.762 -21.619 -16.841  0.00  0.00    -0.238 N 
ATOM      5  N   UNL     1      34.835 -19.496 -20.641  0.00  0.00    -0.296 N 
ATOM      6  C   UNL     1      33.515 -21.875 -18.324  0.00  0.00    +0.288 C 
ATOM      7  C   UNL     1      33.681 -20.990 -19.368  0.00  0.00    +0.215 C 
ATOM      8  C   UNL     1      34.887 -20.325 -19.549  0.00  0.00    +0.196 C 
ATOM      9  C   UNL     1      35.696 -21.383 -17.738  0.00  0.00    +0.207 C 
ATOM     10  C   UNL     1      33.620 -19.652 -21.121  0.00  0.00    +0.164 C 
ATOM     11  H   UNL     1      31.955 -20.815 -20.557  0.00  0.00    +0.126 HD
ATOM     12  H   UNL     1      37.575 -21.104 -17.046  0.00  0.00    +0.166 HD
ATOM     13  H   UNL     1      35.549 -18.915 -20.990  0.00  0.00    +0.150 HD
ENDROOT
BRANCH   4  14
ATOM     14  C   UNL     1      36.887 -22.446 -15.709  0.00  0.00    +0.060 C 
ATOM     15  C   UNL     1      38.182 -23.995 -14.377  0.00  0.00    +0.123 C 
ATOM     16  C   UNL     1      38.059 -23.176 -15.499  0.00  0.00    +0.035 C 
ATOM     17  C   UNL     1      35.839 -22.537 -14.789  0.00  0.00    +0.015 C 
ATOM     18  C   UNL     1      37.134 -24.084 -13.460  0.00  0.00    +0.020 C 
ATOM     19  C   UNL     1      35.962 -23.355 -13.667  0.00  0.00    +0.003 C 
BRANCH  15  20
ATOM     20  S   UNL     1      39.647 -24.907 -14.117  0.00  0.00    +0.057 S 
ATOM     21  O   UNL     1      40.716 -23.975 -13.788  0.00  0.00    -0.153 OA
ATOM     22  O   UNL     1      39.350 -26.013 -13.217  0.00  0.00    -0.153 OA
BRANCH  20  23
ATOM     23  N   UNL     1      39.924 -25.534 -15.683  0.00  0.00    -0.203 NA
ATOM     24  H   UNL     1      39.887 -24.775 -16.363  0.00  0.00    +0.144 HD
ATOM     25  H   UNL     1      39.206 -26.223 -15.903  0.00  0.00    +0.144 HD
ENDBRANCH  20  23
ENDBRANCH  15  20
ENDBRANCH   4  14
BRANCH   6  26
ATOM     26  O   UNL     1      32.346 -22.560 -18.098  0.00  0.00    -0.453 OA
BRANCH  26  27
ATOM     27  C   UNL     1      31.535 -22.114 -17.027  0.00  0.00    +0.208 C 
BRANCH  27  28
ATOM     28  C   UNL     1      31.426 -23.240 -16.001  0.00  0.00    +0.044 C 
ATOM     29  C   UNL     1      32.281 -22.933 -14.765  0.00  0.00    +0.004 C 
ATOM     30  C   UNL     1      29.961 -23.474 -15.608  0.00  0.00    +0.004 C 
ATOM     31  C   UNL     1      32.146 -24.020 -13.702  0.00  0.00    +0.000 C 
ATOM     32  C   UNL     1      29.831 -24.560 -14.543  0.00  0.00    +0.000 C 
ATOM     33  C   UNL     1      30.689 -24.256 -13.319  0.00  0.00    +0.000 C 
ENDBRANCH  27  28
ENDBRANCH  26  27
ENDBRANCH   6  26
TORSDOF 6
ENDMDL
MODEL 4
REMARK VINA RESULT:     -12.3      3.438      7.372
REMARK  Name = 447655
REMARK  6 active torsions:
REMARK  status: ('A' for Active; 'I' for Inactive)
REMARK    1  A    between atoms: N_4  and  C_14
REMARK    2  A    between atoms: C_6  and  O_26
REMARK    3  A    between atoms: C_15  and  S_20
REMARK    4  A    between atoms: S_20  and  N_23
REMARK    5  A    between atoms: O_26  and  C_27
REMARK    6  A    between atoms: C_27  and  C_28
REMARK                            x       y       z     vdW  Elec       q    Type
REMARK                         _______ _______ _______ _____ _____    ______ ____
ROOT
ATOM      1  N   UNL     1      34.687 -22.736 -16.193  0.00  0.00    -0.293 NA
ATOM      2  N   UNL     1      35.649 -24.605 -13.175  0.00  0.00    -0.266 NA
ATOM      3  N   UNL     1      37.079 -22.697 -15.716  0.00  0.00    -0.316 NA
ATOM      4  N   UNL     1      36.191 -21.590 -17.575  0.00  0.00    -0.238 N 
ATOM      5  N   UNL     1      37.704 -23.936 -13.720  0.00  0.00    -0.296 N 
ATOM      6  C   UNL     1      34.439 -23.500 -15.105  0.00  0.00    +0.288 C 
ATOM      7  C   UNL     1      35.508 -23.867 -14.315  0.00  0.00    +0.215 C 
ATOM      8  C   UNL     1      36.798 -23.462 -14.634  0.00  0.00    +0.196 C 
ATOM      9  C   UNL     1      35.975 -22.388 -16.428  0.00  0.00    +0.207 C 
ATOM     10  C   UNL     1      36.982 -24.619 -12.857  0.00  0.00    +0.164 C 
ATOM     11  H   UNL     1      34.927 -25.048 -12.675  0.00  0.00    +0.126 HD
ATOM     12  H   UNL     1      37.135 -21.353 -17.722  0.00  0.00    +0.166 HD
ATOM     13  H   UNL     1      38.679 -23.797 -13.711  0.00  0.00    +0.150 HD
ENDROOT
BRANCH   4  14
ATOM     14  C   UNL     1      35.319 -21.070 -18.549  0.00  0.00    +0.060 C 
ATOM     15  C   UNL     1      34.867 -19.506 -20.339  0.00  0.00    +0.123 C 
ATOM     16  C   UNL     1      35.732 -20.021 -19.372  0.00  0.00    +0.035 C 
ATOM     17  C   UNL     1      34.036 -21.605 -18.699  0.00  0.00    +0.015 C 
ATOM     18  C   UNL     1      33.587 -20.042 -20.485  0.00  0.00    +0.020 C 
ATOM     19  C   UNL     1      33.172 -21.091 -19.665  0.00  0.00    +0.003 C 
BRANCH  15  20
ATOM     20  S   UNL     1      35.385 -18.194 -21.366  0.00  0.00    +0.057 S 
ATOM     21  O   UNL     1      34.989 -18.497 -22.734  0.00  0.00    -0.153 OA
ATOM     22  O   UNL     1      34.973 -16.938 -20.755  0.00  0.00    -0.153 OA
BRANCH  20  23
ATOM     23  N   UNL     1      37.084 -18.332 -21.240  0.00  0.00    -0.203 NA
ATOM     24  H   UNL     1      37.426 -17.680 -20.534  0.00  0.00    +0.144 HD
ATOM     25  H   UNL     1      37.510 -18.113 -22.140  0.00  0.00    +0.144 HD
ENDBRANCH  20  23
ENDBRANCH  15  20
ENDBRANCH   4  14
BRANCH   6  26
ATOM     26  O   UNL     1      33.144 -23.871 -14.838  0.00  0.00    -0.453 OA
BRANCH  26  27
ATOM     27  C   UNL     1      32.466 -23.154 -13.823  0.00  0.00    +0.208 C 
BRANCH  27  28
ATOM     28  C   UNL     1      30.966 -23.218 -14.105  0.00  0.00    +0.044 C 
ATOM     29  C   UNL     1      30.654 -22.679 -15.508  0.00  0.00    +0.004 C 
ATOM     30  C   UNL     1      30.445 -24.652 -13.944  0.00  0.00    +0.004 C 
ATOM     31  C   UNL     1      29.167 -22.782 -15.833  0.00  0.00    +0.000 C 
ATOM     32  C   UNL     1      28.958 -24.752 -14.272  0.00  0.00    +0.000 C 
ATOM     33  C   UNL     1      28.650 -24.207 -15.663  0.00  0.00    +0.000 C 
ENDBRANCH  27  28
ENDBRANCH  26  27
ENDBRANCH   6  26
TORSDOF 6
ENDMDL
MODEL 5
REMARK VINA RESULT:     -12.0      2.669      5.631
REMARK  Name = 447655
REMARK  6 active torsions:
REMARK  status: ('A' for Active; 'I' for Inactive)
REMARK    1  A    between atoms: N_4  and  C_14
REMARK    2  A    between atoms: C_6  and  O_26
REMARK    3  A    between atoms: C_15  and  S_20
REMARK    4  A    between atoms: S_20  and  N_23
REMARK    5  A    between atoms: O_26  and  C_27
REMARK    6  A    between atoms: C_27  and  C_28
REMARK                            x       y       z     vdW  Elec       q    Type
REMARK                         _______ _______ _______ _____ _____    ______ ____
ROOT
ATOM      1  N   UNL     1      34.975 -22.851 -16.153  0.00  0.00    -0.293 NA
ATOM      2  N   UNL     1      33.205 -21.274 -18.965  0.00  0.00    -0.266 NA
ATOM      3  N   UNL     1      36.402 -21.499 -17.598  0.00  0.00    -0.316 NA
ATOM      4  N   UNL     1      37.267 -22.616 -15.733  0.00  0.00    -0.238 N 
ATOM      5  N   UNL     1      35.222 -20.461 -19.452  0.00  0.00    -0.296 N 
ATOM      6  C   UNL     1      33.884 -22.575 -16.901  0.00  0.00    +0.288 C 
ATOM      7  C   UNL     1      34.043 -21.760 -18.002  0.00  0.00    +0.215 C 
ATOM      8  C   UNL     1      35.290 -21.241 -18.327  0.00  0.00    +0.196 C 
ATOM      9  C   UNL     1      36.151 -22.303 -16.542  0.00  0.00    +0.207 C 
ATOM     10  C   UNL     1      33.957 -20.502 -19.812  0.00  0.00    +0.164 C 
ATOM     11  H   UNL     1      32.239 -21.446 -19.037  0.00  0.00    +0.126 HD
ATOM     12  H   UNL     1      38.107 -22.204 -16.039  0.00  0.00    +0.166 HD
ATOM     13  H   UNL     1      35.957 -19.978 -19.895  0.00  0.00    +0.150 HD
ENDROOT
BRANCH   4  14
ATOM     14  C   UNL     1      37.411 -23.402 -14.575  0.00  0.00    +0.060 C 
ATOM     15  C   UNL     1      36.708 -23.982 -12.334  0.00  0.00    +0.123 C 
ATOM     16  C   UNL     1      36.565 -23.203 -13.483  0.00  0.00    +0.035 C 
ATOM     17  C   UNL     1      38.402 -24.386 -14.515  0.00  0.00    +0.015 C 
ATOM     18  C   UNL     1      37.697 -24.964 -12.277  0.00  0.00    +0.020 C 
ATOM     19  C   UNL     1      38.544 -25.165 -13.367  0.00  0.00    +0.003 C 
BRANCH  15  20
ATOM     20  S   UNL     1      35.648 -23.732 -10.970  0.00  0.00    +0.057 S 
ATOM     21  O   UNL     1      35.337 -25.028 -10.386  0.00  0.00    -0.153 OA
ATOM     22  O   UNL     1      36.210 -22.678 -10.136  0.00  0.00    -0.153 OA
BRANCH  20  23
ATOM     23  N   UNL     1      34.251 -23.128 -11.749  0.00  0.00    -0.203 NA
ATOM     24  H   UNL     1      33.479 -23.781 -11.614  0.00  0.00    +0.144 HD
ATOM     25  H   UNL     1      34.437 -23.023 -12.746  0.00  0.00    +0.144 HD
ENDBRANCH  20  23
ENDBRANCH  15  20
ENDBRANCH   4  14
BRANCH   6  26
ATOM     26  O   UNL     1      32.675 -23.115 -16.534  0.00  0.00    -0.453 OA
BRANCH  26  27
ATOM     27  C   UNL     1      32.360 -23.108 -15.154  0.00  0.00    +0.208 C 
BRANCH  27  28
ATOM     28  C   UNL     1      30.840 -23.082 -15.005  0.00  0.00    +0.044 C 
ATOM     29  C   UNL     1      30.184 -22.459 -16.245  0.00  0.00    +0.004 C 
ATOM     30  C   UNL     1      30.297 -24.495 -14.752  0.00  0.00    +0.004 C 
ATOM     31  C   UNL     1      28.661 -22.470 -16.142  0.00  0.00    +0.000 C 
ATOM     32  C   UNL     1      28.773 -24.502 -14.653  0.00  0.00    +0.000 C 
ATOM     33  C   UNL     1      28.125 -23.874 -15.882  0.00  0.00    +0.000 C 
ENDBRANCH  27  28
ENDBRANCH  26  27
ENDBRANCH   6  26
TORSDOF 6
ENDMDL
MODEL 6
REMARK VINA RESULT:     -12.0      2.294      2.849
REMARK  Name = 447655
REMARK  6 active torsions:
REMARK  status: ('A' for Active; 'I' for Inactive)
REMARK    1  A    between atoms: N_4  and  C_14
REMARK    2  A    between atoms: C_6  and  O_26
REMARK    3  A    between atoms: C_15  and  S_20
REMARK    4  A    between atoms: S_20  and  N_23
REMARK    5  A    between atoms: O_26  and  C_27
REMARK    6  A    between atoms: C_27  and  C_28
REMARK                            x       y       z     vdW  Elec       q    Type
REMARK                         _______ _______ _______ _____ _____    ______ ____
ROOT
ATOM      1  N   UNL     1      31.845 -23.058 -15.588  0.00  0.00    -0.293 NA
ATOM      2  N   UNL     1      28.581 -22.013 -16.922  0.00  0.00    -0.266 NA
ATOM      3  N   UNL     1      29.968 -23.504 -14.095  0.00  0.00    -0.316 NA
ATOM      4  N   UNL     1      32.159 -24.067 -13.498  0.00  0.00    -0.238 N 
ATOM      5  N   UNL     1      27.816 -22.811 -14.987  0.00  0.00    -0.296 N 
ATOM      6  C   UNL     1      31.030 -22.519 -16.522  0.00  0.00    +0.288 C 
ATOM      7  C   UNL     1      29.678 -22.468 -16.249  0.00  0.00    +0.215 C 
ATOM      8  C   UNL     1      29.178 -22.959 -15.051  0.00  0.00    +0.196 C 
ATOM      9  C   UNL     1      31.271 -23.511 -14.448  0.00  0.00    +0.207 C 
ATOM     10  C   UNL     1      27.489 -22.239 -16.127  0.00  0.00    +0.164 C 
ATOM     11  H   UNL     1      28.576 -21.599 -17.815  0.00  0.00    +0.126 HD
ATOM     12  H   UNL     1      31.715 -24.389 -12.681  0.00  0.00    +0.166 HD
ATOM     13  H   UNL     1      27.215 -23.072 -14.252  0.00  0.00    +0.150 HD
ENDROOT
BRANCH   4  14
ATOM     14  C   UNL     1      33.553 -24.251 -13.494  0.00  0.00    +0.060 C 
ATOM     15  C   UNL     1      35.690 -24.063 -12.375  0.00  0.00    +0.123 C 
ATOM     16  C   UNL     1      34.307 -23.880 -12.378  0.00  0.00    +0.035 C 
ATOM     17  C   UNL     1      34.190 -24.808 -14.606  0.00  0.00    +0.015 C 
ATOM     18  C   UNL     1      36.323 -24.620 -13.487  0.00  0.00    +0.020 C 
ATOM     19  C   UNL     1      35.572 -24.992 -14.603  0.00  0.00    +0.003 C 
BRANCH  15  20
ATOM     20  S   UNL     1      36.630 -23.598 -10.979  0.00  0.00    +0.057 S 
ATOM     21  O   UNL     1      35.772 -23.666  -9.805  0.00  0.00    -0.153 OA
ATOM     22  O   UNL     1      37.885 -24.336 -11.001  0.00  0.00    -0.153 OA
BRANCH  20  23
ATOM     23  N   UNL     1      36.952 -21.958 -11.334  0.00  0.00    -0.203 NA
ATOM     24  H   UNL     1      37.662 -21.902 -12.065  0.00  0.00    +0.144 HD
ATOM     25  H   UNL     1      37.291 -21.490 -10.494  0.00  0.00    +0.144 HD
ENDBRANCH  20  23
ENDBRANCH  15  20
ENDBRANCH   4  14
BRANCH   6  26
ATOM     26  O   UNL     1      31.580 -22.049 -17.689  0.00  0.00    -0.453 OA
BRANCH  26  27
ATOM     27  C   UNL     1      32.936 -22.369 -17.936  0.00  0.00    +0.208 C 
BRANCH  27  28
ATOM     28  C   UNL     1      33.377 -21.656 -19.212  0.00  0.00    +0.044 C 
ATOM     29  C   UNL     1      32.415 -20.510 -19.554  0.00  0.00    +0.004 C 
ATOM     30  C   UNL     1      34.815 -21.137 -19.074  0.00  0.00    +0.004 C 
ATOM     31  C   UNL     1      32.864 -19.747 -20.797  0.00  0.00    +0.000 C 
ATOM     32  C   UNL     1      35.260 -20.373 -20.318  0.00  0.00    +0.000 C 
ATOM     33  C   UNL     1      34.297 -19.241 -20.660  0.00  0.00    +0.000 C 
ENDBRANCH  27  28
ENDBRANCH  26  27
ENDBRANCH   6  26
TORSDOF 6
ENDMDL
MODEL 7
REMARK VINA RESULT:     -11.7      3.360      6.747
REMARK  Name = 447655
REMARK  6 active torsions:
REMARK  status: ('A' for Active; 'I' for Inactive)
REMARK    1  A    between atoms: N_4  and  C_14
REMARK    2  A    between atoms: C_6  and  O_26
REMARK    3  A    between atoms: C_15  and  S_20
REMARK    4  A    between atoms: S_20  and  N_23
REMARK    5  A    between atoms: O_26  and  C_27
REMARK    6  A    between atoms: C_27  and  C_28
REMARK                            x       y       z     vdW  Elec       q    Type
REMARK                         _______ _______ _______ _____ _____    ______ ____
ROOT
ATOM      1  N   UNL     1      33.014 -22.462 -16.652  0.00  0.00    -0.293 NA
ATOM      2  N   UNL     1      30.790 -24.029 -14.177  0.00  0.00    -0.266 NA
ATOM      3  N   UNL     1      30.644 -22.323 -17.212  0.00  0.00    -0.316 NA
ATOM      4  N   UNL     1      32.280 -21.409 -18.611  0.00  0.00    -0.238 N 
ATOM      5  N   UNL     1      29.183 -23.362 -15.570  0.00  0.00    -0.296 N 
ATOM      6  C   UNL     1      32.748 -23.129 -15.507  0.00  0.00    +0.288 C 
ATOM      7  C   UNL     1      31.429 -23.399 -15.206  0.00  0.00    +0.215 C 
ATOM      8  C   UNL     1      30.410 -22.993 -16.058  0.00  0.00    +0.196 C 
ATOM      9  C   UNL     1      31.959 -22.105 -17.423  0.00  0.00    +0.207 C 
ATOM     10  C   UNL     1      29.445 -23.982 -14.439  0.00  0.00    +0.164 C 
ATOM     11  H   UNL     1      31.216 -24.441 -13.392  0.00  0.00    +0.126 HD
ATOM     12  H   UNL     1      31.495 -21.161 -19.151  0.00  0.00    +0.166 HD
ATOM     13  H   UNL     1      28.300 -23.199 -15.975  0.00  0.00    +0.150 HD
ENDROOT
BRANCH   4  14
ATOM     14  C   UNL     1      33.504 -21.000 -19.172  0.00  0.00    +0.060 C 
ATOM     15  C   UNL     1      34.771 -19.468 -20.550  0.00  0.00    +0.123 C 
ATOM     16  C   UNL     1      33.557 -19.873 -19.995  0.00  0.00    +0.035 C 
ATOM     17  C   UNL     1      34.672 -21.719 -18.904  0.00  0.00    +0.015 C 
ATOM     18  C   UNL     1      35.935 -20.188 -20.282  0.00  0.00    +0.020 C 
ATOM     19  C   UNL     1      35.886 -21.313 -19.459  0.00  0.00    +0.003 C 
BRANCH  15  20
ATOM     20  S   UNL     1      34.834 -18.059 -21.579  0.00  0.00    +0.057 S 
ATOM     21  O   UNL     1      33.934 -18.270 -22.703  0.00  0.00    -0.153 OA
ATOM     22  O   UNL     1      34.687 -16.872 -20.747  0.00  0.00    -0.153 OA
BRANCH  20  23
ATOM     23  N   UNL     1      36.446 -18.137 -22.141  0.00  0.00    -0.203 NA
ATOM     24  H   UNL     1      36.761 -17.202 -22.400  0.00  0.00    +0.144 HD
ATOM     25  H   UNL     1      36.492 -18.750 -22.955  0.00  0.00    +0.144 HD
ENDBRANCH  20  23
ENDBRANCH  15  20
ENDBRANCH   4  14
BRANCH   6  26
ATOM     26  O   UNL     1      33.795 -23.506 -14.702  0.00  0.00    -0.453 OA
BRANCH  26  27
ATOM     27  C   UNL     1      34.959 -22.702 -14.742  0.00  0.00    +0.208 C 
BRANCH  27  28
ATOM     28  C   UNL     1      36.176 -23.602 -14.530  0.00  0.00    +0.044 C 
ATOM     29  C   UNL     1      36.843 -23.302 -13.181  0.00  0.00    +0.004 C 
ATOM     30  C   UNL     1      35.779 -25.081 -14.625  0.00  0.00    +0.004 C 
ATOM     31  C   UNL     1      38.031 -24.225 -12.922  0.00  0.00    +0.000 C 
ATOM     32  C   UNL     1      36.969 -26.001 -14.364  0.00  0.00    +0.000 C 
ATOM     33  C   UNL     1      37.635 -25.694 -13.026  0.00  0.00    +0.000 C 
ENDBRANCH  27  28
ENDBRANCH  26  27
ENDBRANCH   6  26
TORSDOF 6
ENDMDL
MODEL 8
REMARK VINA RESULT:     -11.5      3.383      6.739
REMARK  Name = 447655
REMARK  6 active torsions:
REMARK  status: ('A' for Active; 'I' for Inactive)
REMARK    1  A    between atoms: N_4  and  C_14
REMARK    2  A    between atoms: C_6  and  O_26
REMARK    3  A    between atoms: C_15  and  S_20
REMARK    4  A    between atoms: S_20  and  N_23
REMARK    5  A    between atoms: O_26  and  C_27
REMARK    6  A    between atoms: C_27  and  C_28
REMARK                            x       y       z     vdW  Elec       q    Type
REMARK                         _______ _______ _______ _____ _____    ______ ____
ROOT
ATOM      1  N   UNL     1      33.073 -23.108 -15.981  0.00  0.00    -0.293 NA
ATOM      2  N   UNL     1      36.516 -22.100 -16.789  0.00  0.00    -0.266 NA
ATOM      3  N   UNL     1      34.524 -22.868 -14.036  0.00  0.00    -0.316 NA
ATOM      4  N   UNL     1      32.284 -23.500 -13.811  0.00  0.00    -0.238 N 
ATOM      5  N   UNL     1      36.798 -22.200 -14.581  0.00  0.00    -0.296 N 
ATOM      6  C   UNL     1      34.073 -22.765 -16.823  0.00  0.00    +0.288 C 
ATOM      7  C   UNL     1      35.306 -22.472 -16.278  0.00  0.00    +0.215 C 
ATOM      8  C   UNL     1      35.506 -22.528 -14.905  0.00  0.00    +0.196 C 
ATOM      9  C   UNL     1      33.357 -23.137 -14.657  0.00  0.00    +0.207 C 
ATOM     10  C   UNL     1      37.378 -21.949 -15.735  0.00  0.00    +0.164 C 
ATOM     11  H   UNL     1      36.730 -21.964 -17.740  0.00  0.00    +0.126 HD
ATOM     12  H   UNL     1      32.518 -23.512 -12.855  0.00  0.00    +0.166 HD
ATOM     13  H   UNL     1      37.202 -22.163 -13.684  0.00  0.00    +0.150 HD
ENDROOT
BRANCH   4  14
ATOM     14  C   UNL     1      30.945 -23.846 -14.069  0.00  0.00    +0.060 C 
ATOM     15  C   UNL     1      28.827 -23.377 -15.140  0.00  0.00    +0.123 C 
ATOM     16  C   UNL     1      30.154 -23.033 -14.884  0.00  0.00    +0.035 C 
ATOM     17  C   UNL     1      30.401 -25.007 -13.512  0.00  0.00    +0.015 C 
ATOM     18  C   UNL     1      28.287 -24.536 -14.583  0.00  0.00    +0.020 C 
ATOM     19  C   UNL     1      29.074 -25.350 -13.769  0.00  0.00    +0.003 C 
BRANCH  15  20
ATOM     20  S   UNL     1      27.841 -22.358 -16.160  0.00  0.00    +0.057 S 
ATOM     21  O   UNL     1      26.806 -21.750 -15.337  0.00  0.00    -0.153 OA
ATOM     22  O   UNL     1      28.720 -21.515 -16.958  0.00  0.00    -0.153 OA
BRANCH  20  23
ATOM     23  N   UNL     1      27.120 -23.522 -17.183  0.00  0.00    -0.203 NA
ATOM     24  H   UNL     1      26.180 -23.215 -17.435  0.00  0.00    +0.144 HD
ATOM     25  H   UNL     1      27.067 -24.416 -16.696  0.00  0.00    +0.144 HD
ENDBRANCH  20  23
ENDBRANCH  15  20
ENDBRANCH   4  14
BRANCH   6  26
ATOM     26  O   UNL     1      33.819 -22.726 -18.172  0.00  0.00    -0.453 OA
BRANCH  26  27
ATOM     27  C   UNL     1      33.090 -21.614 -18.657  0.00  0.00    +0.208 C 
BRANCH  27  28
ATOM     28  C   UNL     1      33.859 -21.006 -19.828  0.00  0.00    +0.044 C 
ATOM     29  C   UNL     1      33.054 -19.869 -20.474  0.00  0.00    +0.004 C 
ATOM     30  C   UNL     1      35.237 -20.508 -19.372  0.00  0.00    +0.004 C 
ATOM     31  C   UNL     1      33.825 -19.209 -21.614  0.00  0.00    +0.000 C 
ATOM     32  C   UNL     1      36.004 -19.847 -20.514  0.00  0.00    +0.000 C 
ATOM     33  C   UNL     1      35.198 -18.724 -21.158  0.00  0.00    +0.000 C 
ENDBRANCH  27  28
ENDBRANCH  26  27
ENDBRANCH   6  26
TORSDOF 6
ENDMDL
MODEL 9
REMARK VINA RESULT:     -10.9      3.212      6.700
REMARK  Name = 447655
REMARK  6 active torsions:
REMARK  status: ('A' for Active; 'I' for Inactive)
REMARK    1  A    between atoms: N_4  and  C_14
REMARK    2  A    between atoms: C_6  and  O_26
REMARK    3  A    between atoms: C_15  and  S_20
REMARK    4  A    between atoms: S_20  and  N_23
REMARK    5  A    between atoms: O_26  and  C_27
REMARK    6  A    between atoms: C_27  and  C_28
REMARK                            x       y       z     vdW  Elec       q    Type
REMARK                         _______ _______ _______ _____ _____    ______ ____
ROOT
ATOM      1  N   UNL     1      33.198 -23.504 -15.282  0.00  0.00    -0.293 NA
ATOM      2  N   UNL     1      36.805 -22.829 -15.527  0.00  0.00    -0.266 NA
ATOM      3  N   UNL     1      34.368 -23.545 -13.142  0.00  0.00    -0.316 NA
ATOM      4  N   UNL     1      32.067 -23.941 -13.278  0.00  0.00    -0.238 N 
ATOM      5  N   UNL     1      36.752 -23.097 -13.315  0.00  0.00    -0.296 N 
ATOM      6  C   UNL     1      34.339 -23.221 -15.949  0.00  0.00    +0.288 C 
ATOM      7  C   UNL     1      35.503 -23.098 -15.218  0.00  0.00    +0.215 C 
ATOM      8  C   UNL     1      35.495 -23.261 -13.839  0.00  0.00    +0.196 C 
ATOM      9  C   UNL     1      33.283 -23.646 -13.937  0.00  0.00    +0.207 C 
ATOM     10  C   UNL     1      37.516 -22.839 -14.355  0.00  0.00    +0.164 C 
ATOM     11  H   UNL     1      37.168 -22.659 -16.426  0.00  0.00    +0.126 HD
ATOM     12  H   UNL     1      32.158 -24.037 -12.303  0.00  0.00    +0.166 HD
ATOM     13  H   UNL     1      37.023 -23.159 -12.370  0.00  0.00    +0.150 HD
ENDROOT
BRANCH   4  14
ATOM     14  C   UNL     1      30.752 -24.122 -13.745  0.00  0.00    +0.060 C 
ATOM     15  C   UNL     1      28.899 -23.404 -15.124  0.00  0.00    +0.123 C 
ATOM     16  C   UNL     1      30.203 -23.224 -14.662  0.00  0.00    +0.035 C 
ATOM     17  C   UNL     1      29.991 -25.204 -13.293  0.00  0.00    +0.015 C 
ATOM     18  C   UNL     1      28.142 -24.485 -14.672  0.00  0.00    +0.020 C 
ATOM     19  C   UNL     1      28.689 -25.384 -13.756  0.00  0.00    +0.003 C 
BRANCH  15  20
ATOM     20  S   UNL     1      28.215 -22.280 -16.271  0.00  0.00    +0.057 S 
ATOM     21  O   UNL     1      27.237 -21.454 -15.577  0.00  0.00    -0.153 OA
ATOM     22  O   UNL     1      29.304 -21.649 -17.005  0.00  0.00    -0.153 OA
BRANCH  20  23
ATOM     23  N   UNL     1      27.391 -23.346 -17.322  0.00  0.00    -0.203 NA
ATOM     24  H   UNL     1      27.920 -23.444 -18.188  0.00  0.00    +0.144 HD
ATOM     25  H   UNL     1      26.466 -22.970 -17.529  0.00  0.00    +0.144 HD
ENDBRANCH  20  23
ENDBRANCH  15  20
ENDBRANCH   4  14
BRANCH   6  26
ATOM     26  O   UNL     1      34.289 -23.071 -17.313  0.00  0.00    -0.453 OA
BRANCH  26  27
ATOM     27  C   UNL     1      33.157 -22.409 -17.846  0.00  0.00    +0.208 C 
BRANCH  27  28
ATOM     28  C   UNL     1      33.634 -21.171 -18.604  0.00  0.00    +0.044 C 
ATOM     29  C   UNL     1      35.067 -21.367 -19.117  0.00  0.00    +0.004 C 
ATOM     30  C   UNL     1      32.680 -20.843 -19.760  0.00  0.00    +0.004 C 
ATOM     31  C   UNL     1      35.546 -20.163 -19.924  0.00  0.00    +0.000 C 
ATOM     32  C   UNL     1      33.163 -19.640 -20.566  0.00  0.00    +0.000 C 
ATOM     33  C   UNL     1      34.591 -19.835 -21.067  0.00  0.00    +0.000 C 
ENDBRANCH  27  28
ENDBRANCH  26  27
ENDBRANCH   6  26
TORSDOF 6
ENDMDL
