MODEL 1
REMARK VINA RESULT:     -10.9      0.000      0.000
REMARK  Name = 30843
REMARK  4 active torsions:
REMARK  status: ('A' for Active; 'I' for Inactive)
REMARK    1  A    between atoms: C_4  and  C_11
REMARK    2  A    between atoms: C_4  and  C_24
REMARK    3  A    between atoms: N_10  and  C_17
REMARK    4  A    between atoms: C_17  and  C_18
REMARK                            x       y       z     vdW  Elec       q    Type
REMARK                         _______ _______ _______ _____ _____    ______ ____
ROOT
ATOM      1  O   UNL     1      35.067 -25.825 -15.439  0.00  0.00    -0.274 OA
ATOM      2  O   UNL     1      36.944 -24.355 -11.511  0.00  0.00    -0.275 OA
ATOM      3  N   UNL     1      35.992 -25.036 -13.494  0.00  0.00    -0.255 N 
ATOM      4  C   UNL     1      34.497 -23.546 -14.811  0.00  0.00    +0.088 C 
ATOM      5  C   UNL     1      35.405 -22.458 -14.193  0.00  0.00    +0.022 C 
ATOM      6  C   UNL     1      35.212 -24.897 -14.642  0.00  0.00    +0.231 C 
ATOM      7  C   UNL     1      35.673 -22.730 -12.721  0.00  0.00    +0.086 C 
ATOM      8  C   UNL     1      36.278 -24.095 -12.513  0.00  0.00    +0.228 C 
ATOM      9  H   UNL     1      36.395 -25.924 -13.361  0.00  0.00    +0.158 HD
ENDROOT
BRANCH   4  11
ATOM     10  N   UNL     1      33.578 -21.527 -18.517  0.00  0.00    +0.390 N 
ATOM     11  C   UNL     1      34.380 -23.282 -16.309  0.00  0.00    +0.008 C 
ATOM     12  C   UNL     1      35.192 -22.048 -16.716  0.00  0.00    -0.022 C 
ATOM     13  C   UNL     1      32.916 -23.096 -16.723  0.00  0.00    -0.022 C 
ATOM     14  C   UNL     1      35.000 -21.718 -18.198  0.00  0.00    -0.077 C 
ATOM     15  C   UNL     1      32.799 -22.733 -18.204  0.00  0.00    -0.077 C 
ATOM     16  H   UNL     1      33.225 -20.765 -17.939  0.00  0.00    -0.079 HD
BRANCH  10  17
ATOM     17  C   UNL     1      33.415 -21.163 -19.924  0.00  0.00    -0.050 C 
BRANCH  17  18
ATOM     18  C   UNL     1      34.343 -20.047 -20.326  0.00  0.00    -0.043 C 
ATOM     19  C   UNL     1      35.701 -20.163 -20.070  0.00  0.00    -0.006 C 
ATOM     20  C   UNL     1      33.825 -18.919 -20.947  0.00  0.00    -0.006 C 
ATOM     21  C   UNL     1      36.561 -19.130 -20.442  0.00  0.00    -0.000 C 
ATOM     22  C   UNL     1      34.684 -17.885 -21.320  0.00  0.00    -0.000 C 
ATOM     23  C   UNL     1      36.053 -17.991 -21.068  0.00  0.00    -0.000 C 
ENDBRANCH  17  18
ENDBRANCH  10  17
ENDBRANCH   4  11
BRANCH   4  24
ATOM     24  C   UNL     1      33.085 -23.539 -14.201  0.00  0.00    -0.015 C 
ATOM     25  C   UNL     1      32.556 -24.711 -13.672  0.00  0.00    -0.004 C 
ATOM     26  C   UNL     1      32.347 -22.360 -14.183  0.00  0.00    -0.004 C 
ATOM     27  C   UNL     1      31.276 -24.705 -13.119  0.00  0.00    -0.000 C 
ATOM     28  C   UNL     1      31.067 -22.353 -13.631  0.00  0.00    -0.000 C 
ATOM     29  C   UNL     1      30.531 -23.526 -13.098  0.00  0.00    -0.000 C 
ENDBRANCH   4  24
TORSDOF 4
ENDMDL
MODEL 2
REMARK VINA RESULT:     -10.8      1.991      3.104
REMARK  Name = 30843
REMARK  4 active torsions:
REMARK  status: ('A' for Active; 'I' for Inactive)
REMARK    1  A    between atoms: C_4  and  C_11
REMARK    2  A    between atoms: C_4  and  C_24
REMARK    3  A    between atoms: N_10  and  C_17
REMARK    4  A    between atoms: C_17  and  C_18
REMARK                            x       y       z     vdW  Elec       q    Type
REMARK                         _______ _______ _______ _____ _____    ______ ____
ROOT
ATOM      1  O   UNL     1      35.321 -25.746 -15.227  0.00  0.00    -0.274 OA
ATOM      2  O   UNL     1      39.800 -26.428 -14.461  0.00  0.00    -0.275 OA
ATOM      3  N   UNL     1      37.564 -26.029 -14.843  0.00  0.00    -0.255 N 
ATOM      4  C   UNL     1      36.524 -23.824 -14.349  0.00  0.00    +0.088 C 
ATOM      5  C   UNL     1      37.941 -23.324 -14.709  0.00  0.00    +0.022 C 
ATOM      6  C   UNL     1      36.396 -25.267 -14.865  0.00  0.00    +0.231 C 
ATOM      7  C   UNL     1      39.015 -24.201 -14.085  0.00  0.00    +0.086 C 
ATOM      8  C   UNL     1      38.852 -25.644 -14.490  0.00  0.00    +0.228 C 
ATOM      9  H   UNL     1      37.462 -26.969 -15.114  0.00  0.00    +0.158 HD
ENDROOT
BRANCH   4  11
ATOM     10  N   UNL     1      33.967 -22.463 -17.553  0.00  0.00    +0.390 N 
ATOM     11  C   UNL     1      35.506 -22.981 -15.112  0.00  0.00    +0.008 C 
ATOM     12  C   UNL     1      34.285 -23.817 -15.507  0.00  0.00    -0.022 C 
ATOM     13  C   UNL     1      36.133 -22.359 -16.364  0.00  0.00    -0.022 C 
ATOM     14  C   UNL     1      33.305 -23.006 -16.358  0.00  0.00    -0.077 C 
ATOM     15  C   UNL     1      35.094 -21.595 -17.186  0.00  0.00    -0.077 C 
ATOM     16  H   UNL     1      34.335 -23.246 -18.092  0.00  0.00    -0.079 HD
BRANCH  10  17
ATOM     17  C   UNL     1      33.007 -21.733 -18.381  0.00  0.00    -0.050 C 
BRANCH  17  18
ATOM     18  C   UNL     1      33.694 -20.867 -19.403  0.00  0.00    -0.043 C 
ATOM     19  C   UNL     1      35.079 -20.863 -19.476  0.00  0.00    -0.006 C 
ATOM     20  C   UNL     1      32.931 -20.084 -20.258  0.00  0.00    -0.006 C 
ATOM     21  C   UNL     1      35.716 -20.061 -20.423  0.00  0.00    -0.000 C 
ATOM     22  C   UNL     1      33.567 -19.281 -21.205  0.00  0.00    -0.000 C 
ATOM     23  C   UNL     1      34.960 -19.271 -21.288  0.00  0.00    -0.000 C 
ENDBRANCH  17  18
ENDBRANCH  10  17
ENDBRANCH   4  11
BRANCH   4  24
ATOM     24  C   UNL     1      36.231 -23.701 -12.843  0.00  0.00    -0.015 C 
ATOM     25  C   UNL     1      35.549 -24.721 -12.189  0.00  0.00    -0.004 C 
ATOM     26  C   UNL     1      36.650 -22.572 -12.149  0.00  0.00    -0.004 C 
ATOM     27  C   UNL     1      35.283 -24.610 -10.825  0.00  0.00    -0.000 C 
ATOM     28  C   UNL     1      36.384 -22.461 -10.785  0.00  0.00    -0.000 C 
ATOM     29  C   UNL     1      35.700 -23.479 -10.122  0.00  0.00    -0.000 C 
ENDBRANCH   4  24
TORSDOF 4
ENDMDL
MODEL 3
REMARK VINA RESULT:     -10.7     11.581     16.471
REMARK  Name = 30843
REMARK  4 active torsions:
REMARK  status: ('A' for Active; 'I' for Inactive)
REMARK    1  A    between atoms: C_4  and  C_11
REMARK    2  A    between atoms: C_4  and  C_24
REMARK    3  A    between atoms: N_10  and  C_17
REMARK    4  A    between atoms: C_17  and  C_18
REMARK                            x       y       z     vdW  Elec       q    Type
REMARK                         _______ _______ _______ _____ _____    ______ ____
ROOT
ATOM      1  O   UNL     1      34.531  -7.104 -23.182  0.00  0.00    -0.274 OA
ATOM      2  O   UNL     1      32.505  -5.156 -26.817  0.00  0.00    -0.275 OA
ATOM      3  N   UNL     1      33.471  -6.164 -24.985  0.00  0.00    -0.255 N 
ATOM      4  C   UNL     1      32.110  -7.334 -23.263  0.00  0.00    +0.088 C 
ATOM      5  C   UNL     1      31.207  -7.613 -24.485  0.00  0.00    +0.022 C 
ATOM      6  C   UNL     1      33.483  -6.887 -23.793  0.00  0.00    +0.231 C 
ATOM      7  C   UNL     1      31.056  -6.377 -25.358  0.00  0.00    +0.086 C 
ATOM      8  C   UNL     1      32.395  -5.851 -25.808  0.00  0.00    +0.228 C 
ATOM      9  H   UNL     1      34.346  -5.827 -25.286  0.00  0.00    +0.158 HD
ENDROOT
BRANCH   4  11
ATOM     10  N   UNL     1      31.883 -11.534 -22.282  0.00  0.00    +0.390 N 
ATOM     11  C   UNL     1      32.323  -8.644 -22.510  0.00  0.00    +0.008 C 
ATOM     12  C   UNL     1      33.072  -9.661 -23.377  0.00  0.00    -0.022 C 
ATOM     13  C   UNL     1      30.987  -9.240 -22.053  0.00  0.00    -0.022 C 
ATOM     14  C   UNL     1      33.201 -11.011 -22.667  0.00  0.00    -0.077 C 
ATOM     15  C   UNL     1      31.185 -10.602 -21.386  0.00  0.00    -0.077 C 
ATOM     16  H   UNL     1      31.324 -11.635 -23.129  0.00  0.00    -0.079 HD
BRANCH  10  17
ATOM     17  C   UNL     1      32.018 -12.847 -21.651  0.00  0.00    -0.050 C 
BRANCH  17  18
ATOM     18  C   UNL     1      32.843 -13.789 -22.487  0.00  0.00    -0.043 C 
ATOM     19  C   UNL     1      32.664 -13.818 -23.862  0.00  0.00    -0.006 C 
ATOM     20  C   UNL     1      33.772 -14.614 -21.869  0.00  0.00    -0.006 C 
ATOM     21  C   UNL     1      33.428 -14.691 -24.637  0.00  0.00    -0.000 C 
ATOM     22  C   UNL     1      34.537 -15.487 -22.643  0.00  0.00    -0.000 C 
ATOM     23  C   UNL     1      34.365 -15.525 -24.027  0.00  0.00    -0.000 C 
ENDBRANCH  17  18
ENDBRANCH  10  17
ENDBRANCH   4  11
BRANCH   4  24
ATOM     24  C   UNL     1      31.483  -6.312 -22.299  0.00  0.00    -0.015 C 
ATOM     25  C   UNL     1      32.133  -5.995 -21.111  0.00  0.00    -0.004 C 
ATOM     26  C   UNL     1      30.271  -5.712 -22.623  0.00  0.00    -0.004 C 
ATOM     27  C   UNL     1      31.565  -5.069 -20.237  0.00  0.00    -0.000 C 
ATOM     28  C   UNL     1      29.702  -4.786 -21.749  0.00  0.00    -0.000 C 
ATOM     29  C   UNL     1      30.349  -4.464 -20.556  0.00  0.00    -0.000 C 
ENDBRANCH   4  24
TORSDOF 4
ENDMDL
MODEL 4
REMARK VINA RESULT:     -10.7      2.544      4.377
REMARK  Name = 30843
REMARK  4 active torsions:
REMARK  status: ('A' for Active; 'I' for Inactive)
REMARK    1  A    between atoms: C_4  and  C_11
REMARK    2  A    between atoms: C_4  and  C_24
REMARK    3  A    between atoms: N_10  and  C_17
REMARK    4  A    between atoms: C_17  and  C_18
REMARK                            x       y       z     vdW  Elec       q    Type
REMARK                         _______ _______ _______ _____ _____    ______ ____
ROOT
ATOM      1  O   UNL     1      37.642 -21.512 -12.151  0.00  0.00    -0.274 OA
ATOM      2  O   UNL     1      35.094 -23.958  -9.212  0.00  0.00    -0.275 OA
ATOM      3  N   UNL     1      36.336 -22.750 -10.729  0.00  0.00    -0.255 N 
ATOM      4  C   UNL     1      36.211 -23.192 -13.173  0.00  0.00    +0.088 C 
ATOM      5  C   UNL     1      34.762 -23.581 -12.804  0.00  0.00    +0.022 C 
ATOM      6  C   UNL     1      36.790 -22.388 -11.997  0.00  0.00    +0.231 C 
ATOM      7  C   UNL     1      34.717 -24.410 -11.530  0.00  0.00    +0.086 C 
ATOM      8  C   UNL     1      35.373 -23.689 -10.380  0.00  0.00    +0.228 C 
ATOM      9  H   UNL     1      36.757 -22.275  -9.976  0.00  0.00    +0.158 HD
ENDROOT
BRANCH   4  11
ATOM     10  N   UNL     1      36.165 -21.872 -17.286  0.00  0.00    +0.390 N 
ATOM     11  C   UNL     1      36.168 -22.258 -14.379  0.00  0.00    +0.008 C 
ATOM     12  C   UNL     1      34.934 -22.533 -15.245  0.00  0.00    -0.022 C 
ATOM     13  C   UNL     1      37.436 -22.395 -15.229  0.00  0.00    -0.022 C 
ATOM     14  C   UNL     1      34.935 -21.669 -16.508  0.00  0.00    -0.077 C 
ATOM     15  C   UNL     1      37.355 -21.536 -16.492  0.00  0.00    -0.077 C 
ATOM     16  H   UNL     1      36.221 -22.859 -17.535  0.00  0.00    -0.079 HD
BRANCH  10  17
ATOM     17  C   UNL     1      36.129 -21.079 -18.515  0.00  0.00    -0.050 C 
BRANCH  17  18
ATOM     18  C   UNL     1      34.728 -20.930 -19.045  0.00  0.00    -0.043 C 
ATOM     19  C   UNL     1      33.717 -21.734 -18.540  0.00  0.00    -0.006 C 
ATOM     20  C   UNL     1      34.469 -19.989 -20.032  0.00  0.00    -0.006 C 
ATOM     21  C   UNL     1      32.419 -21.596 -19.032  0.00  0.00    -0.000 C 
ATOM     22  C   UNL     1      33.171 -19.850 -20.524  0.00  0.00    -0.000 C 
ATOM     23  C   UNL     1      32.145 -20.654 -20.023  0.00  0.00    -0.000 C 
ENDBRANCH  17  18
ENDBRANCH  10  17
ENDBRANCH   4  11
BRANCH   4  24
ATOM     24  C   UNL     1      37.068 -24.418 -13.535  0.00  0.00    -0.015 C 
ATOM     25  C   UNL     1      38.394 -24.478 -13.123  0.00  0.00    -0.004 C 
ATOM     26  C   UNL     1      36.508 -25.456 -14.271  0.00  0.00    -0.004 C 
ATOM     27  C   UNL     1      39.170 -25.590 -13.451  0.00  0.00    -0.000 C 
ATOM     28  C   UNL     1      37.284 -26.568 -14.600  0.00  0.00    -0.000 C 
ATOM     29  C   UNL     1      38.615 -26.635 -14.189  0.00  0.00    -0.000 C 
ENDBRANCH   4  24
TORSDOF 4
ENDMDL
MODEL 5
REMARK VINA RESULT:     -10.7      1.928      3.623
REMARK  Name = 30843
REMARK  4 active torsions:
REMARK  status: ('A' for Active; 'I' for Inactive)
REMARK    1  A    between atoms: C_4  and  C_11
REMARK    2  A    between atoms: C_4  and  C_24
REMARK    3  A    between atoms: N_10  and  C_17
REMARK    4  A    between atoms: C_17  and  C_18
REMARK                            x       y       z     vdW  Elec       q    Type
REMARK                         _______ _______ _______ _____ _____    ______ ____
ROOT
ATOM      1  O   UNL     1      36.790 -21.409 -13.279  0.00  0.00    -0.274 OA
ATOM      2  O   UNL     1      36.215 -23.585  -9.273  0.00  0.00    -0.275 OA
ATOM      3  N   UNL     1      36.456 -22.524 -11.302  0.00  0.00    -0.255 N 
ATOM      4  C   UNL     1      35.372 -23.384 -13.369  0.00  0.00    +0.088 C 
ATOM      5  C   UNL     1      34.313 -23.860 -12.350  0.00  0.00    +0.022 C 
ATOM      6  C   UNL     1      36.251 -22.334 -12.669  0.00  0.00    +0.231 C 
ATOM      7  C   UNL     1      34.963 -24.461 -11.114  0.00  0.00    +0.086 C 
ATOM      8  C   UNL     1      35.915 -23.489 -10.463  0.00  0.00    +0.228 C 
ATOM      9  H   UNL     1      37.071 -21.885 -10.873  0.00  0.00    +0.158 HD
ENDROOT
BRANCH   4  11
ATOM     10  N   UNL     1      33.506 -22.751 -17.213  0.00  0.00    +0.390 N 
ATOM     11  C   UNL     1      34.655 -22.678 -14.516  0.00  0.00    +0.008 C 
ATOM     12  C   UNL     1      33.311 -23.348 -14.820  0.00  0.00    -0.022 C 
ATOM     13  C   UNL     1      35.521 -22.660 -15.780  0.00  0.00    -0.022 C 
ATOM     14  C   UNL     1      32.631 -22.709 -16.034  0.00  0.00    -0.077 C 
ATOM     15  C   UNL     1      34.769 -22.043 -16.961  0.00  0.00    -0.077 C 
ATOM     16  H   UNL     1      33.727 -23.727 -17.407  0.00  0.00    -0.079 HD
BRANCH  10  17
ATOM     17  C   UNL     1      32.825 -22.183 -18.376  0.00  0.00    -0.050 C 
BRANCH  17  18
ATOM     18  C   UNL     1      33.729 -21.277 -19.168  0.00  0.00    -0.043 C 
ATOM     19  C   UNL     1      35.100 -21.485 -19.141  0.00  0.00    -0.006 C 
ATOM     20  C   UNL     1      33.177 -20.245 -19.915  0.00  0.00    -0.006 C 
ATOM     21  C   UNL     1      35.938 -20.646 -19.875  0.00  0.00    -0.000 C 
ATOM     22  C   UNL     1      34.014 -19.405 -20.649  0.00  0.00    -0.000 C 
ATOM     23  C   UNL     1      35.395 -19.606 -20.630  0.00  0.00    -0.000 C 
ENDBRANCH  17  18
ENDBRANCH  10  17
ENDBRANCH   4  11
BRANCH   4  24
ATOM     24  C   UNL     1      36.188 -24.553 -13.948  0.00  0.00    -0.015 C 
ATOM     25  C   UNL     1      35.540 -25.574 -14.634  0.00  0.00    -0.004 C 
ATOM     26  C   UNL     1      37.569 -24.580 -13.781  0.00  0.00    -0.004 C 
ATOM     27  C   UNL     1      36.279 -26.633 -15.158  0.00  0.00    -0.000 C 
ATOM     28  C   UNL     1      38.308 -25.639 -14.305  0.00  0.00    -0.000 C 
ATOM     29  C   UNL     1      37.664 -26.666 -14.994  0.00  0.00    -0.000 C 
ENDBRANCH   4  24
TORSDOF 4
ENDMDL
MODEL 6
REMARK VINA RESULT:     -10.6      2.606      6.178
REMARK  Name = 30843
REMARK  4 active torsions:
REMARK  status: ('A' for Active; 'I' for Inactive)
REMARK    1  A    between atoms: C_4  and  C_11
REMARK    2  A    between atoms: C_4  and  C_24
REMARK    3  A    between atoms: N_10  and  C_17
REMARK    4  A    between atoms: C_17  and  C_18
REMARK                            x       y       z     vdW  Elec       q    Type
REMARK                         _______ _______ _______ _____ _____    ______ ____
ROOT
ATOM      1  O   UNL     1      36.100 -22.512 -12.231  0.00  0.00    -0.274 OA
ATOM      2  O   UNL     1      38.804 -25.865 -13.831  0.00  0.00    -0.275 OA
ATOM      3  N   UNL     1      37.406 -24.203 -13.065  0.00  0.00    -0.255 N 
ATOM      4  C   UNL     1      35.363 -23.530 -14.313  0.00  0.00    +0.088 C 
ATOM      5  C   UNL     1      35.392 -25.019 -14.724  0.00  0.00    +0.022 C 
ATOM      6  C   UNL     1      36.292 -23.365 -13.099  0.00  0.00    +0.231 C 
ATOM      7  C   UNL     1      36.800 -25.471 -15.076  0.00  0.00    +0.086 C 
ATOM      8  C   UNL     1      37.759 -25.224 -13.938  0.00  0.00    +0.228 C 
ATOM      9  H   UNL     1      38.029 -24.049 -12.318  0.00  0.00    +0.158 HD
ENDROOT
BRANCH   4  11
ATOM     10  N   UNL     1      31.061 -23.671 -13.953  0.00  0.00    +0.390 N 
ATOM     11  C   UNL     1      33.950 -23.184 -13.850  0.00  0.00    +0.008 C 
ATOM     12  C   UNL     1      33.292 -24.379 -13.153  0.00  0.00    -0.022 C 
ATOM     13  C   UNL     1      33.080 -22.729 -15.027  0.00  0.00    -0.022 C 
ATOM     14  C   UNL     1      31.841 -24.074 -12.775  0.00  0.00    -0.077 C 
ATOM     15  C   UNL     1      31.637 -22.477 -14.587  0.00  0.00    -0.077 C 
ATOM     16  H   UNL     1      31.094 -24.433 -14.629  0.00  0.00    -0.079 HD
BRANCH  10  17
ATOM     17  C   UNL     1      29.665 -23.431 -13.585  0.00  0.00    -0.050 C 
BRANCH  17  18
ATOM     18  C   UNL     1      28.796 -23.215 -14.795  0.00  0.00    -0.043 C 
ATOM     19  C   UNL     1      28.223 -21.970 -15.011  0.00  0.00    -0.006 C 
ATOM     20  C   UNL     1      28.580 -24.265 -15.677  0.00  0.00    -0.006 C 
ATOM     21  C   UNL     1      27.418 -21.769 -16.132  0.00  0.00    -0.000 C 
ATOM     22  C   UNL     1      27.774 -24.065 -16.798  0.00  0.00    -0.000 C 
ATOM     23  C   UNL     1      27.194 -22.816 -17.026  0.00  0.00    -0.000 C 
ENDBRANCH  17  18
ENDBRANCH  10  17
ENDBRANCH   4  11
BRANCH   4  24
ATOM     24  C   UNL     1      35.737 -22.599 -15.479  0.00  0.00    -0.015 C 
ATOM     25  C   UNL     1      34.962 -22.594 -16.634  0.00  0.00    -0.004 C 
ATOM     26  C   UNL     1      36.848 -21.769 -15.369  0.00  0.00    -0.004 C 
ATOM     27  C   UNL     1      35.302 -21.750 -17.690  0.00  0.00    -0.000 C 
ATOM     28  C   UNL     1      37.188 -20.925 -16.426  0.00  0.00    -0.000 C 
ATOM     29  C   UNL     1      36.415 -20.915 -17.587  0.00  0.00    -0.000 C 
ENDBRANCH   4  24
TORSDOF 4
ENDMDL
MODEL 7
REMARK VINA RESULT:     -10.3     11.771     16.736
REMARK  Name = 30843
REMARK  4 active torsions:
REMARK  status: ('A' for Active; 'I' for Inactive)
REMARK    1  A    between atoms: C_4  and  C_11
REMARK    2  A    between atoms: C_4  and  C_24
REMARK    3  A    between atoms: N_10  and  C_17
REMARK    4  A    between atoms: C_17  and  C_18
REMARK                            x       y       z     vdW  Elec       q    Type
REMARK                         _______ _______ _______ _____ _____    ______ ____
ROOT
ATOM      1  O   UNL     1      29.321  -6.778 -23.699  0.00  0.00    -0.274 OA
ATOM      2  O   UNL     1      30.577  -2.640 -22.146  0.00  0.00    -0.275 OA
ATOM      3  N   UNL     1      29.984  -4.738 -22.885  0.00  0.00    -0.255 N 
ATOM      4  C   UNL     1      31.358  -6.747 -22.370  0.00  0.00    +0.088 C 
ATOM      5  C   UNL     1      31.665  -5.935 -21.092  0.00  0.00    +0.022 C 
ATOM      6  C   UNL     1      30.120  -6.119 -23.032  0.00  0.00    +0.231 C 
ATOM      7  C   UNL     1      31.928  -4.472 -21.412  0.00  0.00    +0.086 C 
ATOM      8  C   UNL     1      30.771  -3.855 -22.157  0.00  0.00    +0.228 C 
ATOM      9  H   UNL     1      29.225  -4.334 -23.364  0.00  0.00    +0.158 HD
ENDROOT
BRANCH   4  11
ATOM     10  N   UNL     1      31.776 -10.855 -21.102  0.00  0.00    +0.390 N 
ATOM     11  C   UNL     1      30.978  -8.167 -21.961  0.00  0.00    +0.008 C 
ATOM     12  C   UNL     1      31.442  -8.470 -20.533  0.00  0.00    -0.022 C 
ATOM     13  C   UNL     1      31.573  -9.197 -22.927  0.00  0.00    -0.022 C 
ATOM     14  C   UNL     1      31.154  -9.924 -20.150  0.00  0.00    -0.077 C 
ATOM     15  C   UNL     1      31.280 -10.626 -22.467  0.00  0.00    -0.077 C 
ATOM     16  H   UNL     1      32.781 -10.683 -21.100  0.00  0.00    -0.079 HD
BRANCH  10  17
ATOM     17  C   UNL     1      31.535 -12.239 -20.696  0.00  0.00    -0.050 C 
BRANCH  17  18
ATOM     18  C   UNL     1      32.511 -13.189 -21.337  0.00  0.00    -0.043 C 
ATOM     19  C   UNL     1      32.713 -13.139 -22.709  0.00  0.00    -0.006 C 
ATOM     20  C   UNL     1      33.195 -14.102 -20.546  0.00  0.00    -0.006 C 
ATOM     21  C   UNL     1      33.616 -14.020 -23.303  0.00  0.00    -0.000 C 
ATOM     22  C   UNL     1      34.099 -14.983 -21.140  0.00  0.00    -0.000 C 
ATOM     23  C   UNL     1      34.310 -14.941 -22.519  0.00  0.00    -0.000 C 
ENDBRANCH  17  18
ENDBRANCH  10  17
ENDBRANCH   4  11
BRANCH   4  24
ATOM     24  C   UNL     1      32.568  -6.818 -23.318  0.00  0.00    -0.015 C 
ATOM     25  C   UNL     1      32.494  -6.231 -24.576  0.00  0.00    -0.004 C 
ATOM     26  C   UNL     1      33.727  -7.468 -22.908  0.00  0.00    -0.004 C 
ATOM     27  C   UNL     1      33.591  -6.296 -25.435  0.00  0.00    -0.000 C 
ATOM     28  C   UNL     1      34.824  -7.533 -23.767  0.00  0.00    -0.000 C 
ATOM     29  C   UNL     1      34.757  -6.947 -25.030  0.00  0.00    -0.000 C 
ENDBRANCH   4  24
TORSDOF 4
ENDMDL
MODEL 8
REMARK VINA RESULT:      -9.8     11.823     16.995
REMARK  Name = 30843
REMARK  4 active torsions:
REMARK  status: ('A' for Active; 'I' for Inactive)
REMARK    1  A    between atoms: C_4  and  C_11
REMARK    2  A    between atoms: C_4  and  C_24
REMARK    3  A    between atoms: N_10  and  C_17
REMARK    4  A    between atoms: C_17  and  C_18
REMARK                            x       y       z     vdW  Elec       q    Type
REMARK                         _______ _______ _______ _____ _____    ______ ____
ROOT
ATOM      1  O   UNL     1      29.700  -7.245 -23.787  0.00  0.00    -0.274 OA
ATOM      2  O   UNL     1      30.304  -4.347 -20.272  0.00  0.00    -0.275 OA
ATOM      3  N   UNL     1      30.057  -5.818 -22.026  0.00  0.00    -0.255 N 
ATOM      4  C   UNL     1      32.017  -6.844 -23.163  0.00  0.00    +0.088 C 
ATOM      5  C   UNL     1      32.627  -6.708 -21.750  0.00  0.00    +0.022 C 
ATOM      6  C   UNL     1      30.493  -6.686 -23.027  0.00  0.00    +0.231 C 
ATOM      7  C   UNL     1      32.294  -5.361 -21.128  0.00  0.00    +0.086 C 
ATOM      8  C   UNL     1      30.804  -5.130 -21.078  0.00  0.00    +0.228 C 
ATOM      9  H   UNL     1      29.084  -5.672 -21.986  0.00  0.00    +0.158 HD
ENDROOT
BRANCH   4  11
ATOM     10  N   UNL     1      33.260 -10.981 -23.184  0.00  0.00    +0.390 N 
ATOM     11  C   UNL     1      32.279  -8.260 -23.668  0.00  0.00    +0.008 C 
ATOM     12  C   UNL     1      31.484  -9.289 -22.857  0.00  0.00    -0.022 C 
ATOM     13  C   UNL     1      33.773  -8.599 -23.609  0.00  0.00    -0.022 C 
ATOM     14  C   UNL     1      31.818 -10.719 -23.291  0.00  0.00    -0.077 C 
ATOM     15  C   UNL     1      34.031 -10.049 -24.019  0.00  0.00    -0.077 C 
ATOM     16  H   UNL     1      33.535 -10.835 -22.213  0.00  0.00    -0.079 HD
BRANCH  10  17
ATOM     17  C   UNL     1      33.557 -12.365 -23.553  0.00  0.00    -0.050 C 
BRANCH  17  18
ATOM     18  C   UNL     1      33.525 -13.282 -22.360  0.00  0.00    -0.043 C 
ATOM     19  C   UNL     1      34.213 -14.486 -22.405  0.00  0.00    -0.006 C 
ATOM     20  C   UNL     1      32.808 -12.910 -21.231  0.00  0.00    -0.006 C 
ATOM     21  C   UNL     1      34.184 -15.337 -21.300  0.00  0.00    -0.000 C 
ATOM     22  C   UNL     1      32.778 -13.760 -20.126  0.00  0.00    -0.000 C 
ATOM     23  C   UNL     1      33.467 -14.973 -20.160  0.00  0.00    -0.000 C 
ENDBRANCH  17  18
ENDBRANCH  10  17
ENDBRANCH   4  11
BRANCH   4  24
ATOM     24  C   UNL     1      32.633  -5.847 -24.160  0.00  0.00    -0.015 C 
ATOM     25  C   UNL     1      31.918  -5.475 -25.293  0.00  0.00    -0.004 C 
ATOM     26  C   UNL     1      33.900  -5.327 -23.921  0.00  0.00    -0.004 C 
ATOM     27  C   UNL     1      32.477  -4.572 -26.197  0.00  0.00    -0.000 C 
ATOM     28  C   UNL     1      34.459  -4.423 -24.824  0.00  0.00    -0.000 C 
ATOM     29  C   UNL     1      33.747  -4.045 -25.963  0.00  0.00    -0.000 C 
ENDBRANCH   4  24
TORSDOF 4
ENDMDL
MODEL 9
REMARK VINA RESULT:      -9.5     13.315     18.464
REMARK  Name = 30843
REMARK  4 active torsions:
REMARK  status: ('A' for Active; 'I' for Inactive)
REMARK    1  A    between atoms: C_4  and  C_11
REMARK    2  A    between atoms: C_4  and  C_24
REMARK    3  A    between atoms: N_10  and  C_17
REMARK    4  A    between atoms: C_17  and  C_18
REMARK                            x       y       z     vdW  Elec       q    Type
REMARK                         _______ _______ _______ _____ _____    ______ ____
ROOT
ATOM      1  O   UNL     1      34.482  -5.555 -23.245  0.00  0.00    -0.274 OA
ATOM      2  O   UNL     1      34.858  -4.734 -27.750  0.00  0.00    -0.275 OA
ATOM      3  N   UNL     1      34.615  -5.167 -25.501  0.00  0.00    -0.255 N 
ATOM      4  C   UNL     1      32.383  -5.554 -24.474  0.00  0.00    +0.088 C 
ATOM      5  C   UNL     1      32.084  -6.132 -25.876  0.00  0.00    +0.022 C 
ATOM      6  C   UNL     1      33.911  -5.450 -24.331  0.00  0.00    +0.231 C 
ATOM      7  C   UNL     1      32.654  -5.247 -26.974  0.00  0.00    +0.086 C 
ATOM      8  C   UNL     1      34.138  -5.039 -26.800  0.00  0.00    +0.228 C 
ATOM      9  H   UNL     1      35.585  -5.039 -25.392  0.00  0.00    +0.158 HD
ENDROOT
BRANCH   4  11
ATOM     10  N   UNL     1      31.191  -9.300 -22.685  0.00  0.00    +0.390 N 
ATOM     11  C   UNL     1      31.900  -6.554 -23.427  0.00  0.00    +0.008 C 
ATOM     12  C   UNL     1      32.955  -7.636 -23.172  0.00  0.00    -0.022 C 
ATOM     13  C   UNL     1      30.583  -7.208 -23.856  0.00  0.00    -0.022 C 
ATOM     14  C   UNL     1      32.439  -8.698 -22.198  0.00  0.00    -0.077 C 
ATOM     15  C   UNL     1      30.145  -8.283 -22.860  0.00  0.00    -0.077 C 
ATOM     16  H   UNL     1      31.377  -9.719 -23.595  0.00  0.00    -0.079 HD
BRANCH  10  17
ATOM     17  C   UNL     1      30.737 -10.348 -21.770  0.00  0.00    -0.050 C 
BRANCH  17  18
ATOM     18  C   UNL     1      31.664 -11.534 -21.773  0.00  0.00    -0.043 C 
ATOM     19  C   UNL     1      31.794 -12.303 -20.625  0.00  0.00    -0.006 C 
ATOM     20  C   UNL     1      32.376 -11.842 -22.924  0.00  0.00    -0.006 C 
ATOM     21  C   UNL     1      32.652 -13.402 -20.628  0.00  0.00    -0.000 C 
ATOM     22  C   UNL     1      33.234 -12.941 -22.927  0.00  0.00    -0.000 C 
ATOM     23  C   UNL     1      33.372 -13.722 -21.779  0.00  0.00    -0.000 C 
ENDBRANCH  17  18
ENDBRANCH  10  17
ENDBRANCH   4  11
BRANCH   4  24
ATOM     24  C   UNL     1      31.670  -4.212 -24.235  0.00  0.00    -0.015 C 
ATOM     25  C   UNL     1      31.550  -3.716 -22.941  0.00  0.00    -0.004 C 
ATOM     26  C   UNL     1      31.150  -3.505 -25.314  0.00  0.00    -0.004 C 
ATOM     27  C   UNL     1      30.903  -2.499 -22.725  0.00  0.00    -0.000 C 
ATOM     28  C   UNL     1      30.504  -2.289 -25.098  0.00  0.00    -0.000 C 
ATOM     29  C   UNL     1      30.380  -1.786 -23.803  0.00  0.00    -0.000 C 
ENDBRANCH   4  24
TORSDOF 4
ENDMDL
