MODEL 1
REMARK VINA RESULT:     -14.3      0.000      0.000
REMARK  Name = 66599893
REMARK  9 active torsions:
REMARK  status: ('A' for Active; 'I' for Inactive)
REMARK    1  A    between atoms: C_1  and  C_2
REMARK    2  A    between atoms: C_1  and  C_22
REMARK    3  A    between atoms: C_1  and  C_34
REMARK    4  A    between atoms: C_5  and  C_8
REMARK    5  A    between atoms: C_8  and  O_9
REMARK    6  A    between atoms: O_9  and  C_11
REMARK    7  A    between atoms: C_11  and  C_12
REMARK    8  A    between atoms: N_21  and  C_25
REMARK    9  A    between atoms: C_34  and  N_35
REMARK                            x       y       z     vdW  Elec       q    Type
REMARK                         _______ _______ _______ _____ _____    ______ ____
ROOT
ATOM      1  C   UNL     1      34.879 -16.550 -22.403  0.00  0.00    +0.077 C 
ENDROOT
BRANCH   1   2
ATOM      2  C   UNL     1      34.960 -17.824 -21.577  0.00  0.00    -0.016 C 
ATOM      3  C   UNL     1      36.180 -18.228 -21.034  0.00  0.00    -0.004 C 
ATOM      4  C   UNL     1      33.813 -18.589 -21.361  0.00  0.00    -0.004 C 
ATOM      5  C   UNL     1      35.107 -20.161 -20.061  0.00  0.00    +0.021 C 
ATOM      6  C   UNL     1      36.253 -19.397 -20.277  0.00  0.00    -0.001 C 
ATOM      7  C   UNL     1      33.887 -19.758 -20.604  0.00  0.00    -0.001 C 
BRANCH   5   8
ATOM      8  C   UNL     1      35.185 -21.411 -19.250  0.00  0.00    +0.235 C 
BRANCH   8   9
ATOM      9  O   UNL     1      34.124 -21.428 -18.304  0.00  0.00    -0.440 OA
BRANCH   9  11
ATOM     10  O   UNL     1      33.401 -23.491 -19.022  0.00  0.00    -0.245 OA
ATOM     11  C   UNL     1      33.449 -22.604 -18.185  0.00  0.00    +0.341 C 
BRANCH  11  12
ATOM     12  C   UNL     1      32.756 -22.681 -16.873  0.00  0.00    +0.072 C 
ATOM     13  C   UNL     1      33.465 -22.915 -15.696  0.00  0.00    -0.016 C 
ATOM     14  C   UNL     1      31.406 -22.820 -14.436  0.00  0.00    -0.022 C 
ATOM     15  C   UNL     1      32.791 -22.984 -14.477  0.00  0.00    -0.008 C 
ATOM     16  C   UNL     1      31.371 -22.518 -16.833  0.00  0.00    +0.006 C 
ATOM     17  C   UNL     1      30.696 -22.587 -15.615  0.00  0.00    -0.004 C 
ATOM     18  C   UNL     1      34.948 -23.093 -15.710  0.00  0.00    +0.031 C 
ATOM     19  C   UNL     1      30.682 -22.895 -13.135  0.00  0.00    +0.031 C 
ENDBRANCH  11  12
ENDBRANCH   9  11
ENDBRANCH   8   9
ENDBRANCH   5   8
ENDBRANCH   1   2
BRANCH   1  22
ATOM     20  O   UNL     1      34.289 -15.414 -20.353  0.00  0.00    -0.275 OA
ATOM     21  N   UNL     1      33.609 -14.468 -22.396  0.00  0.00    -0.284 N 
ATOM     22  C   UNL     1      34.239 -15.423 -21.580  0.00  0.00    +0.228 C 
ATOM     23  H   UNL     1      33.654 -14.633 -23.365  0.00  0.00    +0.155 HD
BRANCH  21  25
ATOM     24  N   UNL     1      30.819  -8.725 -21.675  0.00  0.00    -0.242 NA
ATOM     25  C   UNL     1      32.928 -13.313 -22.005  0.00  0.00    +0.050 C 
ATOM     26  C   UNL     1      32.875 -12.213 -22.862  0.00  0.00    +0.015 C 
ATOM     27  C   UNL     1      32.196 -11.043 -22.484  0.00  0.00    +0.004 C 
ATOM     28  C   UNL     1      32.304 -13.261 -20.762  0.00  0.00    +0.015 C 
ATOM     29  C   UNL     1      31.564 -10.995 -21.223  0.00  0.00    +0.019 C 
ATOM     30  C   UNL     1      31.624 -12.109 -20.369  0.00  0.00    +0.003 C 
ATOM     31  C   UNL     1      32.125  -9.923 -23.321  0.00  0.00    +0.021 C 
ATOM     32  C   UNL     1      30.898  -9.817 -20.882  0.00  0.00    +0.099 C 
ATOM     33  C   UNL     1      31.434  -8.807 -22.874  0.00  0.00    +0.099 C 
ENDBRANCH  21  25
ENDBRANCH   1  22
BRANCH   1  34
ATOM     34  C   UNL     1      34.117 -16.744 -23.730  0.00  0.00    -0.072 C 
BRANCH  34  35
ATOM     35  N   UNL     1      34.534 -15.779 -24.743  0.00  0.00    +0.381 N 
ATOM     36  H   UNL     1      34.125 -16.032 -25.643  0.00  0.00    -0.089 HD
ATOM     37  H   UNL     1      35.551 -15.784 -24.819  0.00  0.00    -0.089 HD
ATOM     38  H   UNL     1      34.218 -14.847 -24.475  0.00  0.00    -0.089 HD
ENDBRANCH  34  35
ENDBRANCH   1  34
TORSDOF 9
ENDMDL
MODEL 2
REMARK VINA RESULT:     -13.9      1.841      3.277
REMARK  Name = 66599893
REMARK  9 active torsions:
REMARK  status: ('A' for Active; 'I' for Inactive)
REMARK    1  A    between atoms: C_1  and  C_2
REMARK    2  A    between atoms: C_1  and  C_22
REMARK    3  A    between atoms: C_1  and  C_34
REMARK    4  A    between atoms: C_5  and  C_8
REMARK    5  A    between atoms: C_8  and  O_9
REMARK    6  A    between atoms: O_9  and  C_11
REMARK    7  A    between atoms: C_11  and  C_12
REMARK    8  A    between atoms: N_21  and  C_25
REMARK    9  A    between atoms: C_34  and  N_35
REMARK                            x       y       z     vdW  Elec       q    Type
REMARK                         _______ _______ _______ _____ _____    ______ ____
ROOT
ATOM      1  C   UNL     1      35.366 -18.116 -21.712  0.00  0.00    +0.077 C 
ENDROOT
BRANCH   1   2
ATOM      2  C   UNL     1      34.807 -19.198 -20.802  0.00  0.00    -0.016 C 
ATOM      3  C   UNL     1      35.674 -20.025 -20.086  0.00  0.00    -0.004 C 
ATOM      4  C   UNL     1      33.427 -19.365 -20.682  0.00  0.00    -0.004 C 
ATOM      5  C   UNL     1      33.781 -21.184 -19.133  0.00  0.00    +0.021 C 
ATOM      6  C   UNL     1      35.161 -21.018 -19.252  0.00  0.00    -0.001 C 
ATOM      7  C   UNL     1      32.915 -20.358 -19.848  0.00  0.00    -0.001 C 
BRANCH   5   8
ATOM      8  C   UNL     1      33.232 -22.245 -18.239  0.00  0.00    +0.235 C 
BRANCH   8   9
ATOM      9  O   UNL     1      34.284 -22.794 -17.455  0.00  0.00    -0.440 OA
BRANCH   9  11
ATOM     10  O   UNL     1      33.076 -22.419 -15.532  0.00  0.00    -0.245 OA
ATOM     11  C   UNL     1      34.072 -22.825 -16.111  0.00  0.00    +0.341 C 
BRANCH  11  12
ATOM     12  C   UNL     1      35.232 -23.431 -15.410  0.00  0.00    +0.072 C 
ATOM     13  C   UNL     1      36.467 -22.785 -15.370  0.00  0.00    -0.016 C 
ATOM     14  C   UNL     1      37.382 -24.613 -14.080  0.00  0.00    -0.022 C 
ATOM     15  C   UNL     1      37.542 -23.376 -14.706  0.00  0.00    -0.008 C 
ATOM     16  C   UNL     1      35.071 -24.668 -14.785  0.00  0.00    +0.006 C 
ATOM     17  C   UNL     1      36.145 -25.259 -14.120  0.00  0.00    -0.004 C 
ATOM     18  C   UNL     1      36.667 -21.460 -16.030  0.00  0.00    +0.031 C 
ATOM     19  C   UNL     1      38.529 -25.246 -13.370  0.00  0.00    +0.031 C 
ENDBRANCH  11  12
ENDBRANCH   9  11
ENDBRANCH   8   9
ENDBRANCH   5   8
ENDBRANCH   1   2
BRANCH   1  22
ATOM     20  O   UNL     1      34.647 -16.395 -20.175  0.00  0.00    -0.275 OA
ATOM     21  N   UNL     1      34.382 -16.021 -22.481  0.00  0.00    -0.284 N 
ATOM     22  C   UNL     1      34.767 -16.751 -21.344  0.00  0.00    +0.228 C 
ATOM     23  H   UNL     1      34.540 -16.461 -23.348  0.00  0.00    +0.155 HD
BRANCH  21  25
ATOM     24  N   UNL     1      31.457 -10.371 -21.580  0.00  0.00    -0.242 NA
ATOM     25  C   UNL     1      33.805 -14.750 -22.538  0.00  0.00    +0.050 C 
ATOM     26  C   UNL     1      33.201 -14.209 -21.402  0.00  0.00    +0.015 C 
ATOM     27  C   UNL     1      32.615 -12.934 -21.443  0.00  0.00    +0.004 C 
ATOM     28  C   UNL     1      33.834 -14.027 -23.727  0.00  0.00    +0.015 C 
ATOM     29  C   UNL     1      32.646 -12.203 -22.649  0.00  0.00    +0.019 C 
ATOM     30  C   UNL     1      33.258 -12.758 -23.787  0.00  0.00    +0.003 C 
ATOM     31  C   UNL     1      32.002 -12.363 -20.321  0.00  0.00    +0.021 C 
ATOM     32  C   UNL     1      32.055 -10.939 -22.652  0.00  0.00    +0.099 C 
ATOM     33  C   UNL     1      31.447 -11.099 -20.443  0.00  0.00    +0.099 C 
ENDBRANCH  21  25
ENDBRANCH   1  22
BRANCH   1  34
ATOM     34  C   UNL     1      35.140 -18.415 -23.208  0.00  0.00    -0.072 C 
BRANCH  34  35
ATOM     35  N   UNL     1      33.805 -18.951 -23.460  0.00  0.00    +0.381 N 
ATOM     36  H   UNL     1      33.321 -19.088 -22.573  0.00  0.00    -0.089 HD
ATOM     37  H   UNL     1      33.884 -19.844 -23.946  0.00  0.00    -0.089 HD
ATOM     38  H   UNL     1      33.279 -18.295 -24.038  0.00  0.00    -0.089 HD
ENDBRANCH  34  35
ENDBRANCH   1  34
TORSDOF 9
ENDMDL
MODEL 3
REMARK VINA RESULT:     -13.2      3.454      6.823
REMARK  Name = 66599893
REMARK  9 active torsions:
REMARK  status: ('A' for Active; 'I' for Inactive)
REMARK    1  A    between atoms: C_1  and  C_2
REMARK    2  A    between atoms: C_1  and  C_22
REMARK    3  A    between atoms: C_1  and  C_34
REMARK    4  A    between atoms: C_5  and  C_8
REMARK    5  A    between atoms: C_8  and  O_9
REMARK    6  A    between atoms: O_9  and  C_11
REMARK    7  A    between atoms: C_11  and  C_12
REMARK    8  A    between atoms: N_21  and  C_25
REMARK    9  A    between atoms: C_34  and  N_35
REMARK                            x       y       z     vdW  Elec       q    Type
REMARK                         _______ _______ _______ _____ _____    ______ ____
ROOT
ATOM      1  C   UNL     1      31.160 -10.853 -21.753  0.00  0.00    +0.077 C 
ENDROOT
BRANCH   1   2
ATOM      2  C   UNL     1      32.055 -12.038 -22.079  0.00  0.00    -0.016 C 
ATOM      3  C   UNL     1      32.628 -12.786 -21.050  0.00  0.00    -0.004 C 
ATOM      4  C   UNL     1      32.304 -12.379 -23.410  0.00  0.00    -0.004 C 
ATOM      5  C   UNL     1      33.698 -14.212 -22.679  0.00  0.00    +0.021 C 
ATOM      6  C   UNL     1      33.450 -13.872 -21.350  0.00  0.00    -0.001 C 
ATOM      7  C   UNL     1      33.126 -13.465 -23.709  0.00  0.00    -0.001 C 
BRANCH   5   8
ATOM      8  C   UNL     1      34.576 -15.375 -23.001  0.00  0.00    +0.235 C 
BRANCH   8   9
ATOM      9  O   UNL     1      34.340 -16.418 -22.063  0.00  0.00    -0.440 OA
BRANCH   9  11
ATOM     10  O   UNL     1      34.006 -17.954 -23.745  0.00  0.00    -0.245 OA
ATOM     11  C   UNL     1      34.243 -17.674 -22.580  0.00  0.00    +0.341 C 
BRANCH  11  12
ATOM     12  C   UNL     1      34.467 -18.695 -21.525  0.00  0.00    +0.072 C 
ATOM     13  C   UNL     1      35.747 -18.964 -21.043  0.00  0.00    -0.016 C 
ATOM     14  C   UNL     1      34.834 -20.624 -19.543  0.00  0.00    -0.022 C 
ATOM     15  C   UNL     1      35.931 -19.929 -20.052  0.00  0.00    -0.008 C 
ATOM     16  C   UNL     1      33.369 -19.389 -21.016  0.00  0.00    +0.006 C 
ATOM     17  C   UNL     1      33.552 -20.354 -20.026  0.00  0.00    -0.004 C 
ATOM     18  C   UNL     1      36.940 -18.235 -21.569  0.00  0.00    +0.031 C 
ATOM     19  C   UNL     1      35.028 -21.656 -18.485  0.00  0.00    +0.031 C 
ENDBRANCH  11  12
ENDBRANCH   9  11
ENDBRANCH   8   9
ENDBRANCH   5   8
ENDBRANCH   1   2
BRANCH   1  22
ATOM     20  O   UNL     1      32.863  -9.477 -22.777  0.00  0.00    -0.275 OA
ATOM     21  N   UNL     1      30.682  -8.616 -22.598  0.00  0.00    -0.284 N 
ATOM     22  C   UNL     1      31.687  -9.585 -22.440  0.00  0.00    +0.228 C 
ATOM     23  H   UNL     1      29.791  -8.862 -22.260  0.00  0.00    +0.155 HD
BRANCH  21  25
ATOM     24  N   UNL     1      30.976  -2.383 -24.130  0.00  0.00    -0.242 NA
ATOM     25  C   UNL     1      30.787  -7.349 -23.175  0.00  0.00    +0.050 C 
ATOM     26  C   UNL     1      30.661  -6.209 -22.380  0.00  0.00    +0.015 C 
ATOM     27  C   UNL     1      30.762  -4.928 -22.945  0.00  0.00    +0.004 C 
ATOM     28  C   UNL     1      31.018  -7.225 -24.542  0.00  0.00    +0.015 C 
ATOM     29  C   UNL     1      30.996  -4.806 -24.331  0.00  0.00    +0.019 C 
ATOM     30  C   UNL     1      31.123  -5.961 -25.122  0.00  0.00    +0.003 C 
ATOM     31  C   UNL     1      30.639  -3.765 -22.175  0.00  0.00    +0.021 C 
ATOM     32  C   UNL     1      31.092  -3.517 -24.858  0.00  0.00    +0.099 C 
ATOM     33  C   UNL     1      30.753  -2.537 -22.808  0.00  0.00    +0.099 C 
ENDBRANCH  21  25
ENDBRANCH   1  22
BRANCH   1  34
ATOM     34  C   UNL     1      31.008 -10.617 -20.236  0.00  0.00    -0.072 C 
BRANCH  34  35
ATOM     35  N   UNL     1      31.578  -9.337 -19.825  0.00  0.00    +0.381 N 
ATOM     36  H   UNL     1      32.535  -9.478 -19.501  0.00  0.00    -0.089 HD
ATOM     37  H   UNL     1      31.018  -8.944 -19.068  0.00  0.00    -0.089 HD
ATOM     38  H   UNL     1      31.577  -8.694 -20.617  0.00  0.00    -0.089 HD
ENDBRANCH  34  35
ENDBRANCH   1  34
TORSDOF 9
ENDMDL
MODEL 4
REMARK VINA RESULT:     -13.2      3.728     10.823
REMARK  Name = 66599893
REMARK  9 active torsions:
REMARK  status: ('A' for Active; 'I' for Inactive)
REMARK    1  A    between atoms: C_1  and  C_2
REMARK    2  A    between atoms: C_1  and  C_22
REMARK    3  A    between atoms: C_1  and  C_34
REMARK    4  A    between atoms: C_5  and  C_8
REMARK    5  A    between atoms: C_8  and  O_9
REMARK    6  A    between atoms: O_9  and  C_11
REMARK    7  A    between atoms: C_11  and  C_12
REMARK    8  A    between atoms: N_21  and  C_25
REMARK    9  A    between atoms: C_34  and  N_35
REMARK                            x       y       z     vdW  Elec       q    Type
REMARK                         _______ _______ _______ _____ _____    ______ ____
ROOT
ATOM      1  C   UNL     1      35.562 -21.597 -18.434  0.00  0.00    +0.077 C 
ENDROOT
BRANCH   1   2
ATOM      2  C   UNL     1      35.235 -20.571 -19.507  0.00  0.00    -0.016 C 
ATOM      3  C   UNL     1      33.925 -20.432 -19.966  0.00  0.00    -0.004 C 
ATOM      4  C   UNL     1      36.247 -19.766 -20.034  0.00  0.00    -0.004 C 
ATOM      5  C   UNL     1      34.637 -18.688 -21.477  0.00  0.00    +0.021 C 
ATOM      6  C   UNL     1      33.626 -19.491 -20.951  0.00  0.00    -0.001 C 
ATOM      7  C   UNL     1      35.947 -18.826 -21.019  0.00  0.00    -0.001 C 
BRANCH   5   8
ATOM      8  C   UNL     1      34.317 -17.680 -22.529  0.00  0.00    +0.235 C 
BRANCH   8   9
ATOM      9  O   UNL     1      34.511 -16.372 -22.006  0.00  0.00    -0.440 OA
BRANCH   9  11
ATOM     10  O   UNL     1      34.850 -15.304 -24.017  0.00  0.00    -0.245 OA
ATOM     11  C   UNL     1      34.375 -15.348 -22.892  0.00  0.00    +0.341 C 
BRANCH  11  12
ATOM     12  C   UNL     1      33.555 -14.255 -22.311  0.00  0.00    +0.072 C 
ATOM     13  C   UNL     1      32.836 -13.382 -23.126  0.00  0.00    -0.016 C 
ATOM     14  C   UNL     1      32.030 -12.217 -21.169  0.00  0.00    -0.022 C 
ATOM     15  C   UNL     1      32.074 -12.363 -22.555  0.00  0.00    -0.008 C 
ATOM     16  C   UNL     1      33.511 -14.111 -20.924  0.00  0.00    +0.006 C 
ATOM     17  C   UNL     1      32.749 -13.092 -20.353  0.00  0.00    -0.004 C 
ATOM     18  C   UNL     1      32.864 -13.515 -24.614  0.00  0.00    +0.031 C 
ATOM     19  C   UNL     1      31.216 -11.128 -20.556  0.00  0.00    +0.031 C 
ENDBRANCH  11  12
ENDBRANCH   9  11
ENDBRANCH   8   9
ENDBRANCH   5   8
ENDBRANCH   1   2
BRANCH   1  22
ATOM     20  O   UNL     1      33.642 -23.000 -18.869  0.00  0.00    -0.275 OA
ATOM     21  N   UNL     1      34.009 -22.253 -16.670  0.00  0.00    -0.284 N 
ATOM     22  C   UNL     1      34.297 -22.374 -18.040  0.00  0.00    +0.228 C 
ATOM     23  H   UNL     1      34.635 -21.702 -16.147  0.00  0.00    +0.155 HD
BRANCH  21  25
ATOM     24  N   UNL     1      28.438 -24.342 -14.244  0.00  0.00    -0.242 NA
ATOM     25  C   UNL     1      32.949 -22.816 -15.957  0.00  0.00    +0.050 C 
ATOM     26  C   UNL     1      31.639 -22.642 -16.405  0.00  0.00    +0.015 C 
ATOM     27  C   UNL     1      30.561 -23.200 -15.698  0.00  0.00    +0.004 C 
ATOM     28  C   UNL     1      33.201 -23.549 -14.801  0.00  0.00    +0.015 C 
ATOM     29  C   UNL     1      30.820 -23.942 -14.527  0.00  0.00    +0.019 C 
ATOM     30  C   UNL     1      32.144 -24.111 -14.086  0.00  0.00    +0.003 C 
ATOM     31  C   UNL     1      29.236 -23.043 -16.122  0.00  0.00    +0.021 C 
ATOM     32  C   UNL     1      29.725 -24.483 -13.851  0.00  0.00    +0.099 C 
ATOM     33  C   UNL     1      28.228 -23.626 -15.369  0.00  0.00    +0.099 C 
ENDBRANCH  21  25
ENDBRANCH   1  22
BRANCH   1  34
ATOM     34  C   UNL     1      36.217 -20.972 -17.186  0.00  0.00    -0.072 C 
BRANCH  34  35
ATOM     35  N   UNL     1      37.165 -21.885 -16.553  0.00  0.00    +0.381 N 
ATOM     36  H   UNL     1      38.099 -21.716 -16.925  0.00  0.00    -0.089 HD
ATOM     37  H   UNL     1      36.890 -22.848 -16.748  0.00  0.00    -0.089 HD
ATOM     38  H   UNL     1      37.165 -21.730 -15.545  0.00  0.00    -0.089 HD
ENDBRANCH  34  35
ENDBRANCH   1  34
TORSDOF 9
ENDMDL
MODEL 5
REMARK VINA RESULT:     -13.1      2.765      5.556
REMARK  Name = 66599893
REMARK  9 active torsions:
REMARK  status: ('A' for Active; 'I' for Inactive)
REMARK    1  A    between atoms: C_1  and  C_2
REMARK    2  A    between atoms: C_1  and  C_22
REMARK    3  A    between atoms: C_1  and  C_34
REMARK    4  A    between atoms: C_5  and  C_8
REMARK    5  A    between atoms: C_8  and  O_9
REMARK    6  A    between atoms: O_9  and  C_11
REMARK    7  A    between atoms: C_11  and  C_12
REMARK    8  A    between atoms: N_21  and  C_25
REMARK    9  A    between atoms: C_34  and  N_35
REMARK                            x       y       z     vdW  Elec       q    Type
REMARK                         _______ _______ _______ _____ _____    ______ ____
ROOT
ATOM      1  C   UNL     1      31.895 -11.841 -22.412  0.00  0.00    +0.077 C 
ENDROOT
BRANCH   1   2
ATOM      2  C   UNL     1      32.736 -13.098 -22.252  0.00  0.00    -0.016 C 
ATOM      3  C   UNL     1      33.101 -13.841 -23.375  0.00  0.00    -0.004 C 
ATOM      4  C   UNL     1      33.143 -13.507 -20.982  0.00  0.00    -0.004 C 
ATOM      5  C   UNL     1      34.279 -15.403 -21.958  0.00  0.00    +0.021 C 
ATOM      6  C   UNL     1      33.872 -14.994 -23.227  0.00  0.00    -0.001 C 
ATOM      7  C   UNL     1      33.914 -14.661 -20.835  0.00  0.00    -0.001 C 
BRANCH   5   8
ATOM      8  C   UNL     1      35.105 -16.636 -21.800  0.00  0.00    +0.235 C 
BRANCH   8   9
ATOM      9  O   UNL     1      34.405 -17.574 -20.993  0.00  0.00    -0.440 OA
BRANCH   9  11
ATOM     10  O   UNL     1      34.291 -19.081 -22.728  0.00  0.00    -0.245 OA
ATOM     11  C   UNL     1      34.205 -18.802 -21.542  0.00  0.00    +0.341 C 
BRANCH  11  12
ATOM     12  C   UNL     1      33.857 -19.796 -20.495  0.00  0.00    +0.072 C 
ATOM     13  C   UNL     1      34.848 -20.482 -19.794  0.00  0.00    -0.016 C 
ATOM     14  C   UNL     1      33.149 -21.654 -18.538  0.00  0.00    -0.022 C 
ATOM     15  C   UNL     1      34.494 -21.411 -18.816  0.00  0.00    -0.008 C 
ATOM     16  C   UNL     1      32.511 -20.039 -20.218  0.00  0.00    +0.006 C 
ATOM     17  C   UNL     1      32.157 -20.968 -19.240  0.00  0.00    -0.004 C 
ATOM     18  C   UNL     1      36.296 -20.241 -20.071  0.00  0.00    +0.031 C 
ATOM     19  C   UNL     1      32.769 -22.648 -17.493  0.00  0.00    +0.031 C 
ENDBRANCH  11  12
ENDBRANCH   9  11
ENDBRANCH   8   9
ENDBRANCH   5   8
ENDBRANCH   1   2
BRANCH   1  22
ATOM     20  O   UNL     1      33.754 -10.981 -23.695  0.00  0.00    -0.275 OA
ATOM     21  N   UNL     1      32.151  -9.462 -22.885  0.00  0.00    -0.284 N 
ATOM     22  C   UNL     1      32.719 -10.732 -23.083  0.00  0.00    +0.228 C 
ATOM     23  H   UNL     1      31.320  -9.440 -22.358  0.00  0.00    +0.155 HD
BRANCH  21  25
ATOM     24  N   UNL     1      33.173  -3.653 -25.434  0.00  0.00    -0.242 NA
ATOM     25  C   UNL     1      32.616  -8.228 -23.343  0.00  0.00    +0.050 C 
ATOM     26  C   UNL     1      31.761  -7.380 -24.049  0.00  0.00    +0.015 C 
ATOM     27  C   UNL     1      32.214  -6.136 -24.518  0.00  0.00    +0.004 C 
ATOM     28  C   UNL     1      33.931  -7.845 -23.096  0.00  0.00    +0.015 C 
ATOM     29  C   UNL     1      33.547  -5.752 -24.265  0.00  0.00    +0.019 C 
ATOM     30  C   UNL     1      34.399  -6.614 -23.553  0.00  0.00    +0.003 C 
ATOM     31  C   UNL     1      31.380  -5.263 -25.228  0.00  0.00    +0.021 C 
ATOM     32  C   UNL     1      33.962  -4.509 -24.745  0.00  0.00    +0.099 C 
ATOM     33  C   UNL     1      31.903  -4.053 -25.656  0.00  0.00    +0.099 C 
ENDBRANCH  21  25
ENDBRANCH   1  22
BRANCH   1  34
ATOM     34  C   UNL     1      31.307 -11.340 -21.078  0.00  0.00    -0.072 C 
BRANCH  34  35
ATOM     35  N   UNL     1      29.981 -10.753 -21.253  0.00  0.00    +0.381 N 
ATOM     36  H   UNL     1      30.060  -9.887 -21.786  0.00  0.00    -0.089 HD
ATOM     37  H   UNL     1      29.574 -10.554 -20.340  0.00  0.00    -0.089 HD
ATOM     38  H   UNL     1      29.383 -11.409 -21.755  0.00  0.00    -0.089 HD
ENDBRANCH  34  35
ENDBRANCH   1  34
TORSDOF 9
ENDMDL
MODEL 6
REMARK VINA RESULT:     -13.1      2.855     11.073
REMARK  Name = 66599893
REMARK  9 active torsions:
REMARK  status: ('A' for Active; 'I' for Inactive)
REMARK    1  A    between atoms: C_1  and  C_2
REMARK    2  A    between atoms: C_1  and  C_22
REMARK    3  A    between atoms: C_1  and  C_34
REMARK    4  A    between atoms: C_5  and  C_8
REMARK    5  A    between atoms: C_8  and  O_9
REMARK    6  A    between atoms: O_9  and  C_11
REMARK    7  A    between atoms: C_11  and  C_12
REMARK    8  A    between atoms: N_21  and  C_25
REMARK    9  A    between atoms: C_34  and  N_35
REMARK                            x       y       z     vdW  Elec       q    Type
REMARK                         _______ _______ _______ _____ _____    ______ ____
ROOT
ATOM      1  C   UNL     1      35.236 -18.753 -21.875  0.00  0.00    +0.077 C 
ENDROOT
BRANCH   1   2
ATOM      2  C   UNL     1      34.747 -17.337 -22.139  0.00  0.00    -0.016 C 
ATOM      3  C   UNL     1      34.608 -16.437 -21.082  0.00  0.00    -0.004 C 
ATOM      4  C   UNL     1      34.437 -16.938 -23.440  0.00  0.00    -0.004 C 
ATOM      5  C   UNL     1      33.849 -14.741 -22.625  0.00  0.00    +0.021 C 
ATOM      6  C   UNL     1      34.158 -15.140 -21.325  0.00  0.00    -0.001 C 
ATOM      7  C   UNL     1      33.987 -15.640 -23.682  0.00  0.00    -0.001 C 
BRANCH   5   8
ATOM      8  C   UNL     1      33.369 -13.353 -22.885  0.00  0.00    +0.235 C 
BRANCH   8   9
ATOM      9  O   UNL     1      33.310 -12.635 -21.659  0.00  0.00    -0.440 OA
BRANCH   9  11
ATOM     10  O   UNL     1      31.269 -13.015 -20.665  0.00  0.00    -0.245 OA
ATOM     11  C   UNL     1      32.067 -12.284 -21.232  0.00  0.00    +0.341 C 
BRANCH  11  12
ATOM     12  C   UNL     1      31.785 -10.861 -21.550  0.00  0.00    +0.072 C 
ATOM     13  C   UNL     1      31.487  -9.943 -20.543  0.00  0.00    -0.016 C 
ATOM     14  C   UNL     1      31.260  -8.199 -22.199  0.00  0.00    -0.022 C 
ATOM     15  C   UNL     1      31.225  -8.612 -20.867  0.00  0.00    -0.008 C 
ATOM     16  C   UNL     1      31.820 -10.448 -22.882  0.00  0.00    +0.006 C 
ATOM     17  C   UNL     1      31.558  -9.117 -23.207  0.00  0.00    -0.004 C 
ATOM     18  C   UNL     1      31.443 -10.358 -19.109  0.00  0.00    +0.031 C 
ATOM     19  C   UNL     1      30.979  -6.777 -22.548  0.00  0.00    +0.031 C 
ENDBRANCH  11  12
ENDBRANCH   9  11
ENDBRANCH   8   9
ENDBRANCH   5   8
ENDBRANCH   1   2
BRANCH   1  22
ATOM     20  O   UNL     1      33.066 -19.345 -20.990  0.00  0.00    -0.275 OA
ATOM     21  N   UNL     1      34.981 -20.236 -19.956  0.00  0.00    -0.284 N 
ATOM     22  C   UNL     1      34.285 -19.471 -20.907  0.00  0.00    +0.228 C 
ATOM     23  H   UNL     1      35.962 -20.218 -20.025  0.00  0.00    +0.155 HD
BRANCH  21  25
ATOM     24  N   UNL     1      33.687 -23.800 -14.768  0.00  0.00    -0.242 NA
ATOM     25  C   UNL     1      34.455 -21.019 -18.925  0.00  0.00    +0.050 C 
ATOM     26  C   UNL     1      35.278 -21.432 -17.876  0.00  0.00    +0.015 C 
ATOM     27  C   UNL     1      34.766 -22.221 -16.834  0.00  0.00    +0.004 C 
ATOM     28  C   UNL     1      33.113 -21.386 -18.947  0.00  0.00    +0.015 C 
ATOM     29  C   UNL     1      33.405 -22.591 -16.859  0.00  0.00    +0.019 C 
ATOM     30  C   UNL     1      32.586 -22.169 -17.920  0.00  0.00    +0.003 C 
ATOM     31  C   UNL     1      35.565 -22.651 -15.768  0.00  0.00    +0.021 C 
ATOM     32  C   UNL     1      32.931 -23.375 -15.805  0.00  0.00    +0.099 C 
ATOM     33  C   UNL     1      34.984 -23.427 -14.777  0.00  0.00    +0.099 C 
ENDBRANCH  21  25
ENDBRANCH   1  22
BRANCH   1  34
ATOM     34  C   UNL     1      36.681 -18.797 -21.338  0.00  0.00    -0.072 C 
BRANCH  34  35
ATOM     35  N   UNL     1      37.579 -17.950 -22.119  0.00  0.00    +0.381 N 
ATOM     36  H   UNL     1      38.545 -18.158 -21.868  0.00  0.00    -0.089 HD
ATOM     37  H   UNL     1      37.379 -16.970 -21.921  0.00  0.00    -0.089 HD
ATOM     38  H   UNL     1      37.438 -18.132 -23.113  0.00  0.00    -0.089 HD
ENDBRANCH  34  35
ENDBRANCH   1  34
TORSDOF 9
ENDMDL
MODEL 7
REMARK VINA RESULT:     -13.0      1.449      2.331
REMARK  Name = 66599893
REMARK  9 active torsions:
REMARK  status: ('A' for Active; 'I' for Inactive)
REMARK    1  A    between atoms: C_1  and  C_2
REMARK    2  A    between atoms: C_1  and  C_22
REMARK    3  A    between atoms: C_1  and  C_34
REMARK    4  A    between atoms: C_5  and  C_8
REMARK    5  A    between atoms: C_8  and  O_9
REMARK    6  A    between atoms: O_9  and  C_11
REMARK    7  A    between atoms: C_11  and  C_12
REMARK    8  A    between atoms: N_21  and  C_25
REMARK    9  A    between atoms: C_34  and  N_35
REMARK                            x       y       z     vdW  Elec       q    Type
REMARK                         _______ _______ _______ _____ _____    ______ ____
ROOT
ATOM      1  C   UNL     1      35.439 -18.187 -21.672  0.00  0.00    +0.077 C 
ENDROOT
BRANCH   1   2
ATOM      2  C   UNL     1      34.887 -19.271 -20.760  0.00  0.00    -0.016 C 
ATOM      3  C   UNL     1      35.759 -20.094 -20.047  0.00  0.00    -0.004 C 
ATOM      4  C   UNL     1      33.508 -19.442 -20.636  0.00  0.00    -0.004 C 
ATOM      5  C   UNL     1      33.874 -21.260 -19.087  0.00  0.00    +0.021 C 
ATOM      6  C   UNL     1      35.252 -21.089 -19.211  0.00  0.00    -0.001 C 
ATOM      7  C   UNL     1      33.001 -20.437 -19.800  0.00  0.00    -0.001 C 
BRANCH   5   8
ATOM      8  C   UNL     1      33.331 -22.323 -18.192  0.00  0.00    +0.235 C 
BRANCH   8   9
ATOM      9  O   UNL     1      34.362 -22.787 -17.330  0.00  0.00    -0.440 OA
BRANCH   9  11
ATOM     10  O   UNL     1      35.060 -21.644 -15.458  0.00  0.00    -0.245 OA
ATOM     11  C   UNL     1      34.280 -22.389 -16.032  0.00  0.00    +0.341 C 
BRANCH  11  12
ATOM     12  C   UNL     1      33.091 -22.988 -15.373  0.00  0.00    +0.072 C 
ATOM     13  C   UNL     1      33.226 -23.835 -14.274  0.00  0.00    -0.016 C 
ATOM     14  C   UNL     1      30.825 -24.088 -14.173  0.00  0.00    -0.022 C 
ATOM     15  C   UNL     1      32.093 -24.385 -13.674  0.00  0.00    -0.008 C 
ATOM     16  C   UNL     1      31.823 -22.690 -15.873  0.00  0.00    +0.006 C 
ATOM     17  C   UNL     1      30.690 -23.240 -15.274  0.00  0.00    -0.004 C 
ATOM     18  C   UNL     1      34.571 -24.170 -13.718  0.00  0.00    +0.031 C 
ATOM     19  C   UNL     1      29.613 -24.676 -13.534  0.00  0.00    +0.031 C 
ENDBRANCH  11  12
ENDBRANCH   9  11
ENDBRANCH   8   9
ENDBRANCH   5   8
ENDBRANCH   1   2
BRANCH   1  22
ATOM     20  O   UNL     1      34.678 -16.470 -20.151  0.00  0.00    -0.275 OA
ATOM     21  N   UNL     1      34.444 -16.105 -22.463  0.00  0.00    -0.284 N 
ATOM     22  C   UNL     1      34.819 -16.827 -21.318  0.00  0.00    +0.228 C 
ATOM     23  H   UNL     1      34.620 -16.545 -23.325  0.00  0.00    +0.155 HD
BRANCH  21  25
ATOM     24  N   UNL     1      31.469 -10.474 -21.614  0.00  0.00    -0.242 NA
ATOM     25  C   UNL     1      33.855 -14.841 -22.531  0.00  0.00    +0.050 C 
ATOM     26  C   UNL     1      33.252 -14.292 -21.399  0.00  0.00    +0.015 C 
ATOM     27  C   UNL     1      32.653 -13.023 -21.452  0.00  0.00    +0.004 C 
ATOM     28  C   UNL     1      33.869 -14.132 -23.729  0.00  0.00    +0.015 C 
ATOM     29  C   UNL     1      32.670 -12.307 -22.668  0.00  0.00    +0.019 C 
ATOM     30  C   UNL     1      33.280 -12.870 -23.801  0.00  0.00    +0.003 C 
ATOM     31  C   UNL     1      32.040 -12.444 -20.334  0.00  0.00    +0.021 C 
ATOM     32  C   UNL     1      32.066 -11.048 -22.683  0.00  0.00    +0.099 C 
ATOM     33  C   UNL     1      31.472 -11.187 -20.468  0.00  0.00    +0.099 C 
ENDBRANCH  21  25
ENDBRANCH   1  22
BRANCH   1  34
ATOM     34  C   UNL     1      35.229 -18.498 -23.168  0.00  0.00    -0.072 C 
BRANCH  34  35
ATOM     35  N   UNL     1      33.861 -18.927 -23.448  0.00  0.00    +0.381 N 
ATOM     36  H   UNL     1      33.248 -18.624 -22.691  0.00  0.00    -0.089 HD
ATOM     37  H   UNL     1      33.833 -19.944 -23.521  0.00  0.00    -0.089 HD
ATOM     38  H   UNL     1      33.549 -18.515 -24.327  0.00  0.00    -0.089 HD
ENDBRANCH  34  35
ENDBRANCH   1  34
TORSDOF 9
ENDMDL
MODEL 8
REMARK VINA RESULT:     -12.9      4.377     11.690
REMARK  Name = 66599893
REMARK  9 active torsions:
REMARK  status: ('A' for Active; 'I' for Inactive)
REMARK    1  A    between atoms: C_1  and  C_2
REMARK    2  A    between atoms: C_1  and  C_22
REMARK    3  A    between atoms: C_1  and  C_34
REMARK    4  A    between atoms: C_5  and  C_8
REMARK    5  A    between atoms: C_8  and  O_9
REMARK    6  A    between atoms: O_9  and  C_11
REMARK    7  A    between atoms: C_11  and  C_12
REMARK    8  A    between atoms: N_21  and  C_25
REMARK    9  A    between atoms: C_34  and  N_35
REMARK                            x       y       z     vdW  Elec       q    Type
REMARK                         _______ _______ _______ _____ _____    ______ ____
ROOT
ATOM      1  C   UNL     1      32.558 -21.939 -16.955  0.00  0.00    +0.077 C 
ENDROOT
BRANCH   1   2
ATOM      2  C   UNL     1      33.064 -21.326 -18.251  0.00  0.00    -0.016 C 
ATOM      3  C   UNL     1      32.174 -20.694 -19.119  0.00  0.00    -0.004 C 
ATOM      4  C   UNL     1      34.421 -21.394 -18.571  0.00  0.00    -0.004 C 
ATOM      5  C   UNL     1      33.994 -20.200 -20.628  0.00  0.00    +0.021 C 
ATOM      6  C   UNL     1      32.639 -20.132 -20.308  0.00  0.00    -0.001 C 
ATOM      7  C   UNL     1      34.885 -20.832 -19.760  0.00  0.00    -0.001 C 
BRANCH   5   8
ATOM      8  C   UNL     1      34.492 -19.598 -21.899  0.00  0.00    +0.235 C 
BRANCH   8   9
ATOM      9  O   UNL     1      34.033 -18.256 -21.997  0.00  0.00    -0.440 OA
BRANCH   9  11
ATOM     10  O   UNL     1      36.082 -17.478 -21.292  0.00  0.00    -0.245 OA
ATOM     11  C   UNL     1      34.940 -17.291 -21.684  0.00  0.00    +0.341 C 
BRANCH  11  12
ATOM     12  C   UNL     1      34.357 -15.939 -21.881  0.00  0.00    +0.072 C 
ATOM     13  C   UNL     1      34.036 -15.471 -23.154  0.00  0.00    -0.016 C 
ATOM     14  C   UNL     1      33.267 -13.390 -22.196  0.00  0.00    -0.022 C 
ATOM     15  C   UNL     1      33.490 -14.197 -23.312  0.00  0.00    -0.008 C 
ATOM     16  C   UNL     1      34.135 -15.133 -20.764  0.00  0.00    +0.006 C 
ATOM     17  C   UNL     1      33.590 -13.858 -20.921  0.00  0.00    -0.004 C 
ATOM     18  C   UNL     1      34.263 -16.313 -24.366  0.00  0.00    +0.031 C 
ATOM     19  C   UNL     1      32.685 -12.028 -22.362  0.00  0.00    +0.031 C 
ENDBRANCH  11  12
ENDBRANCH   9  11
ENDBRANCH   8   9
ENDBRANCH   5   8
ENDBRANCH   1   2
BRANCH   1  22
ATOM     20  O   UNL     1      33.515 -24.159 -16.994  0.00  0.00    -0.275 OA
ATOM     21  N   UNL     1      34.329 -22.613 -15.419  0.00  0.00    -0.284 N 
ATOM     22  C   UNL     1      33.514 -23.043 -16.480  0.00  0.00    +0.228 C 
ATOM     23  H   UNL     1      34.191 -21.686 -15.120  0.00  0.00    +0.155 HD
BRANCH  21  25
ATOM     24  N   UNL     1      39.565 -25.593 -13.186  0.00  0.00    -0.242 NA
ATOM     25  C   UNL     1      35.310 -23.335 -14.737  0.00  0.00    +0.050 C 
ATOM     26  C   UNL     1      36.606 -23.407 -15.251  0.00  0.00    +0.015 C 
ATOM     27  C   UNL     1      37.603 -24.130 -14.578  0.00  0.00    +0.004 C 
ATOM     28  C   UNL     1      34.995 -23.982 -13.545  0.00  0.00    +0.015 C 
ATOM     29  C   UNL     1      37.279 -24.784 -13.370  0.00  0.00    +0.019 C 
ATOM     30  C   UNL     1      35.972 -24.704 -12.862  0.00  0.00    +0.003 C 
ATOM     31  C   UNL     1      38.912 -24.221 -15.067  0.00  0.00    +0.021 C 
ATOM     32  C   UNL     1      38.297 -25.492 -12.728  0.00  0.00    +0.099 C 
ATOM     33  C   UNL     1      39.839 -24.954 -14.343  0.00  0.00    +0.099 C 
ENDBRANCH  21  25
ENDBRANCH   1  22
BRANCH   1  34
ATOM     34  C   UNL     1      31.122 -22.490 -17.074  0.00  0.00    -0.072 C 
BRANCH  34  35
ATOM     35  N   UNL     1      30.698 -23.172 -15.854  0.00  0.00    +0.381 N 
ATOM     36  H   UNL     1      29.889 -22.692 -15.460  0.00  0.00    -0.089 HD
ATOM     37  H   UNL     1      31.461 -23.163 -15.177  0.00  0.00    -0.089 HD
ATOM     38  H   UNL     1      30.449 -24.137 -16.073  0.00  0.00    -0.089 HD
ENDBRANCH  34  35
ENDBRANCH   1  34
TORSDOF 9
ENDMDL
MODEL 9
REMARK VINA RESULT:     -12.8      2.962     10.549
REMARK  Name = 66599893
REMARK  9 active torsions:
REMARK  status: ('A' for Active; 'I' for Inactive)
REMARK    1  A    between atoms: C_1  and  C_2
REMARK    2  A    between atoms: C_1  and  C_22
REMARK    3  A    between atoms: C_1  and  C_34
REMARK    4  A    between atoms: C_5  and  C_8
REMARK    5  A    between atoms: C_8  and  O_9
REMARK    6  A    between atoms: O_9  and  C_11
REMARK    7  A    between atoms: C_11  and  C_12
REMARK    8  A    between atoms: N_21  and  C_25
REMARK    9  A    between atoms: C_34  and  N_35
REMARK                            x       y       z     vdW  Elec       q    Type
REMARK                         _______ _______ _______ _____ _____    ______ ____
ROOT
ATOM      1  C   UNL     1      35.228 -18.718 -22.460  0.00  0.00    +0.077 C 
ENDROOT
BRANCH   1   2
ATOM      2  C   UNL     1      34.583 -17.484 -23.071  0.00  0.00    -0.016 C 
ATOM      3  C   UNL     1      33.691 -17.616 -24.136  0.00  0.00    -0.004 C 
ATOM      4  C   UNL     1      34.884 -16.218 -22.566  0.00  0.00    -0.004 C 
ATOM      5  C   UNL     1      33.402 -15.219 -24.192  0.00  0.00    +0.021 C 
ATOM      6  C   UNL     1      33.102 -16.483 -24.696  0.00  0.00    -0.001 C 
ATOM      7  C   UNL     1      34.294 -15.085 -23.128  0.00  0.00    -0.001 C 
BRANCH   5   8
ATOM      8  C   UNL     1      32.769 -14.007 -24.790  0.00  0.00    +0.235 C 
BRANCH   8   9
ATOM      9  O   UNL     1      32.224 -13.198 -23.755  0.00  0.00    -0.440 OA
BRANCH   9  11
ATOM     10  O   UNL     1      33.762 -11.545 -24.201  0.00  0.00    -0.245 OA
ATOM     11  C   UNL     1      32.840 -12.004 -23.544  0.00  0.00    +0.341 C 
BRANCH  11  12
ATOM     12  C   UNL     1      32.239 -11.301 -22.381  0.00  0.00    +0.072 C 
ATOM     13  C   UNL     1      32.136 -11.924 -21.138  0.00  0.00    -0.016 C 
ATOM     14  C   UNL     1      31.100  -9.938 -20.230  0.00  0.00    -0.022 C 
ATOM     15  C   UNL     1      31.567 -11.242 -20.062  0.00  0.00    -0.008 C 
ATOM     16  C   UNL     1      31.773  -9.997 -22.550  0.00  0.00    +0.006 C 
ATOM     17  C   UNL     1      31.203  -9.316 -21.474  0.00  0.00    -0.004 C 
ATOM     18  C   UNL     1      32.627 -13.319 -20.930  0.00  0.00    +0.031 C 
ATOM     19  C   UNL     1      30.491  -9.209 -19.081  0.00  0.00    +0.031 C 
ENDBRANCH  11  12
ENDBRANCH   9  11
ENDBRANCH   8   9
ENDBRANCH   5   8
ENDBRANCH   1   2
BRANCH   1  22
ATOM     20  O   UNL     1      33.785 -18.288 -20.569  0.00  0.00    -0.275 OA
ATOM     21  N   UNL     1      34.905 -20.352 -20.679  0.00  0.00    -0.284 N 
ATOM     22  C   UNL     1      34.542 -19.074 -21.133  0.00  0.00    +0.228 C 
ATOM     23  H   UNL     1      35.535 -20.848 -21.249  0.00  0.00    +0.155 HD
BRANCH  21  25
ATOM     24  N   UNL     1      34.112 -23.215 -14.981  0.00  0.00    -0.242 NA
ATOM     25  C   UNL     1      34.485 -21.009 -19.520  0.00  0.00    +0.050 C 
ATOM     26  C   UNL     1      35.387 -21.228 -18.478  0.00  0.00    +0.015 C 
ATOM     27  C   UNL     1      34.981 -21.888 -17.307  0.00  0.00    +0.004 C 
ATOM     28  C   UNL     1      33.167 -21.444 -19.407  0.00  0.00    +0.015 C 
ATOM     29  C   UNL     1      33.645 -22.327 -17.196  0.00  0.00    +0.019 C 
ATOM     30  C   UNL     1      32.745 -22.101 -18.252  0.00  0.00    +0.003 C 
ATOM     31  C   UNL     1      35.861 -22.123 -16.244  0.00  0.00    +0.021 C 
ATOM     32  C   UNL     1      33.276 -22.979 -16.017  0.00  0.00    +0.099 C 
ATOM     33  C   UNL     1      35.383 -22.781 -15.122  0.00  0.00    +0.099 C 
ENDBRANCH  21  25
ENDBRANCH   1  22
BRANCH   1  34
ATOM     34  C   UNL     1      36.748 -18.560 -22.252  0.00  0.00    -0.072 C 
BRANCH  34  35
ATOM     35  N   UNL     1      37.076 -18.227 -20.869  0.00  0.00    +0.381 N 
ATOM     36  H   UNL     1      36.842 -17.251 -20.689  0.00  0.00    -0.089 HD
ATOM     37  H   UNL     1      38.074 -18.371 -20.712  0.00  0.00    -0.089 HD
ATOM     38  H   UNL     1      36.544 -18.827 -20.239  0.00  0.00    -0.089 HD
ENDBRANCH  34  35
ENDBRANCH   1  34
TORSDOF 9
ENDMDL
