MODEL 1
REMARK VINA RESULT:     -10.1      0.000      0.000
REMARK  Name = 15951529
REMARK  5 active torsions:
REMARK  status: ('A' for Active; 'I' for Inactive)
REMARK    1  A    between atoms: N_3  and  C_11
REMARK    2  A    between atoms: N_4  and  C_22
REMARK    3  A    between atoms: C_16  and  C_19
REMARK    4  A    between atoms: C_25  and  C_31
REMARK    5  A    between atoms: C_27  and  C_33
REMARK                            x       y       z     vdW  Elec       q    Type
REMARK                         _______ _______ _______ _____ _____    ______ ____
ROOT
ATOM      1  S   UNL     1      36.706 -20.082 -19.961  0.00  0.00    -0.017 S 
ATOM      2  O   UNL     1      31.697 -20.484 -20.519  0.00  0.00    -0.272 OA
ATOM      3  N   UNL     1      34.543 -21.286 -18.696  0.00  0.00    -0.265 N 
ATOM      4  N   UNL     1      33.987 -19.966 -20.456  0.00  0.00    -0.218 N 
ATOM      5  C   UNL     1      33.188 -21.713 -19.052  0.00  0.00    +0.133 C 
ATOM      6  C   UNL     1      32.836 -20.643 -20.090  0.00  0.00    +0.251 C 
ATOM      7  C   UNL     1      33.147 -23.052 -19.803  0.00  0.00    +0.030 C 
ATOM      8  C   UNL     1      32.165 -21.642 -17.914  0.00  0.00    +0.030 C 
ATOM      9  C   UNL     1      35.073 -20.392 -19.679  0.00  0.00    +0.152 C 
ENDROOT
BRANCH   3  11
ATOM     10  F   UNL     1      34.521 -23.668 -14.517  0.00  0.00    -0.204 F 
ATOM     11  C   UNL     1      35.201 -21.691 -17.487  0.00  0.00    +0.055 C 
ATOM     12  C   UNL     1      34.532 -22.497 -16.570  0.00  0.00    +0.045 C 
ATOM     13  C   UNL     1      36.507 -21.276 -17.236  0.00  0.00    +0.015 C 
ATOM     14  C   UNL     1      35.172 -22.891 -15.394  0.00  0.00    +0.146 C 
ATOM     15  C   UNL     1      37.147 -21.670 -16.061  0.00  0.00    +0.008 C 
ATOM     16  C   UNL     1      36.480 -22.478 -15.140  0.00  0.00    +0.081 C 
BRANCH  16  19
ATOM     17  O   UNL     1      37.176 -22.131 -12.928  0.00  0.00    -0.270 OA
ATOM     18  N   UNL     1      37.733 -24.159 -13.905  0.00  0.00    -0.299 N 
ATOM     19  C   UNL     1      37.151 -22.886 -13.916  0.00  0.00    +0.248 C 
ATOM     20  C   UNL     1      38.415 -24.716 -12.758  0.00  0.00    +0.111 C 
ATOM     21  H   UNL     1      37.677 -24.704 -14.723  0.00  0.00    +0.150 HD
ENDBRANCH  16  19
ENDBRANCH   3  11
BRANCH   4  22
ATOM     22  C   UNL     1      33.984 -18.960 -21.469  0.00  0.00    +0.060 C 
ATOM     23  C   UNL     1      34.024 -17.612 -21.115  0.00  0.00    +0.020 C 
ATOM     24  C   UNL     1      33.942 -19.326 -22.815  0.00  0.00    +0.016 C 
ATOM     25  C   UNL     1      34.021 -16.629 -22.106  0.00  0.00    +0.082 C 
ATOM     26  C   UNL     1      33.941 -18.344 -23.806  0.00  0.00    +0.012 C 
ATOM     27  C   UNL     1      33.979 -16.995 -23.450  0.00  0.00    +0.072 C 
BRANCH  25  31
ATOM     28  F   UNL     1      34.911 -14.433 -22.442  0.00  0.00    -0.166 F 
ATOM     29  F   UNL     1      32.854 -14.569 -21.766  0.00  0.00    -0.166 F 
ATOM     30  F   UNL     1      34.478 -15.039 -20.398  0.00  0.00    -0.166 F 
ATOM     31  C   UNL     1      34.065 -15.194 -21.688  0.00  0.00    +0.419 C 
ENDBRANCH  25  31
BRANCH  27  33
ATOM     32  N   UNL     1      33.972 -15.207 -25.325  0.00  0.00    -0.191 NA
ATOM     33  C   UNL     1      33.976 -16.007 -24.486  0.00  0.00    +0.100 C 
ENDBRANCH  27  33
ENDBRANCH   4  22
TORSDOF 5
ENDMDL
MODEL 2
REMARK VINA RESULT:     -10.0      8.158     14.396
REMARK  Name = 15951529
REMARK  5 active torsions:
REMARK  status: ('A' for Active; 'I' for Inactive)
REMARK    1  A    between atoms: N_3  and  C_11
REMARK    2  A    between atoms: N_4  and  C_22
REMARK    3  A    between atoms: C_16  and  C_19
REMARK    4  A    between atoms: C_25  and  C_31
REMARK    5  A    between atoms: C_27  and  C_33
REMARK                            x       y       z     vdW  Elec       q    Type
REMARK                         _______ _______ _______ _____ _____    ______ ____
ROOT
ATOM      1  S   UNL     1      34.675  -9.548 -23.889  0.00  0.00    -0.017 S 
ATOM      2  O   UNL     1      30.589 -10.970 -21.273  0.00  0.00    -0.272 OA
ATOM      3  N   UNL     1      32.203  -8.523 -23.136  0.00  0.00    -0.265 N 
ATOM      4  N   UNL     1      32.542 -10.688 -22.547  0.00  0.00    -0.218 N 
ATOM      5  C   UNL     1      31.206  -8.771 -22.092  0.00  0.00    +0.133 C 
ATOM      6  C   UNL     1      31.377 -10.283 -21.916  0.00  0.00    +0.251 C 
ATOM      7  C   UNL     1      31.573  -8.150 -20.737  0.00  0.00    +0.030 C 
ATOM      8  C   UNL     1      29.757  -8.490 -22.498  0.00  0.00    +0.030 C 
ATOM      9  C   UNL     1      33.122  -9.615 -23.237  0.00  0.00    +0.152 C 
ENDROOT
BRANCH   3  11
ATOM     10  F   UNL     1      33.929  -4.168 -24.227  0.00  0.00    -0.204 F 
ATOM     11  C   UNL     1      32.198  -7.350 -23.962  0.00  0.00    +0.055 C 
ATOM     12  C   UNL     1      33.081  -6.307 -23.692  0.00  0.00    +0.045 C 
ATOM     13  C   UNL     1      31.311  -7.259 -25.033  0.00  0.00    +0.015 C 
ATOM     14  C   UNL     1      33.076  -5.166 -24.495  0.00  0.00    +0.146 C 
ATOM     15  C   UNL     1      31.307  -6.119 -25.836  0.00  0.00    +0.008 C 
ATOM     16  C   UNL     1      32.189  -5.072 -25.568  0.00  0.00    +0.081 C 
BRANCH  16  19
ATOM     17  O   UNL     1      31.434  -2.928 -26.141  0.00  0.00    -0.270 OA
ATOM     18  N   UNL     1      33.061  -3.872 -27.496  0.00  0.00    -0.299 N 
ATOM     19  C   UNL     1      32.181  -3.885 -26.408  0.00  0.00    +0.248 C 
ATOM     20  C   UNL     1      33.187  -2.758 -28.409  0.00  0.00    +0.111 C 
ATOM     21  H   UNL     1      33.625  -4.665 -27.650  0.00  0.00    +0.150 HD
ENDBRANCH  16  19
ENDBRANCH   3  11
BRANCH   4  22
ATOM     22  C   UNL     1      33.007 -12.037 -22.486  0.00  0.00    +0.060 C 
ATOM     23  C   UNL     1      33.000 -12.830 -23.633  0.00  0.00    +0.020 C 
ATOM     24  C   UNL     1      33.469 -12.561 -21.279  0.00  0.00    +0.016 C 
ATOM     25  C   UNL     1      33.455 -14.147 -23.573  0.00  0.00    +0.082 C 
ATOM     26  C   UNL     1      33.925 -13.878 -21.219  0.00  0.00    +0.012 C 
ATOM     27  C   UNL     1      33.917 -14.671 -22.367  0.00  0.00    +0.072 C 
BRANCH  25  31
ATOM     28  F   UNL     1      34.656 -15.468 -25.167  0.00  0.00    -0.166 F 
ATOM     29  F   UNL     1      32.610 -16.053 -24.746  0.00  0.00    -0.166 F 
ATOM     30  F   UNL     1      33.007 -14.256 -25.906  0.00  0.00    -0.166 F 
ATOM     31  C   UNL     1      33.433 -14.967 -24.823  0.00  0.00    +0.419 C 
ENDBRANCH  25  31
BRANCH  27  33
ATOM     32  N   UNL     1      34.773 -17.111 -22.208  0.00  0.00    -0.191 NA
ATOM     33  C   UNL     1      34.389 -16.020 -22.279  0.00  0.00    +0.100 C 
ENDBRANCH  27  33
ENDBRANCH   4  22
TORSDOF 5
ENDMDL
MODEL 3
REMARK VINA RESULT:      -9.7      9.953     16.256
REMARK  Name = 15951529
REMARK  5 active torsions:
REMARK  status: ('A' for Active; 'I' for Inactive)
REMARK    1  A    between atoms: N_3  and  C_11
REMARK    2  A    between atoms: N_4  and  C_22
REMARK    3  A    between atoms: C_16  and  C_19
REMARK    4  A    between atoms: C_25  and  C_31
REMARK    5  A    between atoms: C_27  and  C_33
REMARK                            x       y       z     vdW  Elec       q    Type
REMARK                         _______ _______ _______ _____ _____    ______ ____
ROOT
ATOM      1  S   UNL     1      34.771  -7.897 -23.991  0.00  0.00    -0.017 S 
ATOM      2  O   UNL     1      30.061  -6.905 -22.445  0.00  0.00    -0.272 OA
ATOM      3  N   UNL     1      32.789  -5.988 -24.388  0.00  0.00    -0.265 N 
ATOM      4  N   UNL     1      32.164  -7.735 -23.082  0.00  0.00    -0.218 N 
ATOM      5  C   UNL     1      31.606  -5.499 -23.677  0.00  0.00    +0.133 C 
ATOM      6  C   UNL     1      31.151  -6.794 -22.996  0.00  0.00    +0.251 C 
ATOM      7  C   UNL     1      31.939  -4.524 -22.539  0.00  0.00    +0.030 C 
ATOM      8  C   UNL     1      30.471  -4.996 -24.573  0.00  0.00    +0.030 C 
ATOM      9  C   UNL     1      33.222  -7.245 -23.859  0.00  0.00    +0.152 C 
ENDROOT
BRANCH   3  11
ATOM     10  F   UNL     1      33.360  -5.405 -29.128  0.00  0.00    -0.204 F 
ATOM     11  C   UNL     1      33.380  -5.297 -25.498  0.00  0.00    +0.055 C 
ATOM     12  C   UNL     1      33.080  -5.691 -26.800  0.00  0.00    +0.045 C 
ATOM     13  C   UNL     1      34.249  -4.232 -25.269  0.00  0.00    +0.015 C 
ATOM     14  C   UNL     1      33.654  -5.019 -27.879  0.00  0.00    +0.146 C 
ATOM     15  C   UNL     1      34.823  -3.560 -26.349  0.00  0.00    +0.008 C 
ATOM     16  C   UNL     1      34.525  -3.953 -27.654  0.00  0.00    +0.081 C 
BRANCH  16  19
ATOM     17  O   UNL     1      34.421  -2.568 -29.543  0.00  0.00    -0.270 OA
ATOM     18  N   UNL     1      36.512  -3.358 -28.925  0.00  0.00    -0.299 N 
ATOM     19  C   UNL     1      35.125  -3.249 -28.776  0.00  0.00    +0.248 C 
ATOM     20  C   UNL     1      37.257  -2.699 -29.975  0.00  0.00    +0.111 C 
ATOM     21  H   UNL     1      37.008  -3.914 -28.282  0.00  0.00    +0.150 HD
ENDBRANCH  16  19
ENDBRANCH   3  11
BRANCH   4  22
ATOM     22  C   UNL     1      32.058  -9.019 -22.465  0.00  0.00    +0.060 C 
ATOM     23  C   UNL     1      32.554 -10.148 -23.115  0.00  0.00    +0.020 C 
ATOM     24  C   UNL     1      31.459  -9.143 -21.211  0.00  0.00    +0.016 C 
ATOM     25  C   UNL     1      32.451 -11.402 -22.512  0.00  0.00    +0.082 C 
ATOM     26  C   UNL     1      31.357 -10.397 -20.608  0.00  0.00    +0.012 C 
ATOM     27  C   UNL     1      31.853 -11.526 -21.260  0.00  0.00    +0.072 C 
BRANCH  25  31
ATOM     28  F   UNL     1      34.104 -13.128 -22.652  0.00  0.00    -0.166 F 
ATOM     29  F   UNL     1      32.105 -13.621 -23.337  0.00  0.00    -0.166 F 
ATOM     30  F   UNL     1      33.361 -12.296 -24.520  0.00  0.00    -0.166 F 
ATOM     31  C   UNL     1      32.995 -12.590 -23.239  0.00  0.00    +0.419 C 
ENDBRANCH  25  31
BRANCH  27  33
ATOM     32  N   UNL     1      31.639 -13.833 -20.100  0.00  0.00    -0.191 NA
ATOM     33  C   UNL     1      31.735 -12.801 -20.619  0.00  0.00    +0.100 C 
ENDBRANCH  27  33
ENDBRANCH   4  22
TORSDOF 5
ENDMDL
MODEL 4
REMARK VINA RESULT:      -9.3      7.448     13.309
REMARK  Name = 15951529
REMARK  5 active torsions:
REMARK  status: ('A' for Active; 'I' for Inactive)
REMARK    1  A    between atoms: N_3  and  C_11
REMARK    2  A    between atoms: N_4  and  C_22
REMARK    3  A    between atoms: C_16  and  C_19
REMARK    4  A    between atoms: C_25  and  C_31
REMARK    5  A    between atoms: C_27  and  C_33
REMARK                            x       y       z     vdW  Elec       q    Type
REMARK                         _______ _______ _______ _____ _____    ______ ____
ROOT
ATOM      1  S   UNL     1      33.898 -10.156 -23.995  0.00  0.00    -0.017 S 
ATOM      2  O   UNL     1      31.048 -12.598 -20.608  0.00  0.00    -0.272 OA
ATOM      3  N   UNL     1      31.920  -9.597 -22.124  0.00  0.00    -0.265 N 
ATOM      4  N   UNL     1      32.389 -11.804 -22.365  0.00  0.00    -0.218 N 
ATOM      5  C   UNL     1      31.379 -10.214 -20.911  0.00  0.00    +0.133 C 
ATOM      6  C   UNL     1      31.558 -11.694 -21.263  0.00  0.00    +0.251 C 
ATOM      7  C   UNL     1      32.244  -9.974 -19.666  0.00  0.00    +0.030 C 
ATOM      8  C   UNL     1      29.892  -9.951 -20.656  0.00  0.00    +0.030 C 
ATOM      9  C   UNL     1      32.700 -10.535 -22.872  0.00  0.00    +0.152 C 
ENDROOT
BRANCH   3  11
ATOM     10  F   UNL     1      32.485  -4.865 -21.472  0.00  0.00    -0.204 F 
ATOM     11  C   UNL     1      31.641  -8.242 -22.507  0.00  0.00    +0.055 C 
ATOM     12  C   UNL     1      32.206  -7.189 -21.793  0.00  0.00    +0.045 C 
ATOM     13  C   UNL     1      30.806  -7.986 -23.593  0.00  0.00    +0.015 C 
ATOM     14  C   UNL     1      31.936  -5.872 -22.165  0.00  0.00    +0.146 C 
ATOM     15  C   UNL     1      30.535  -6.669 -23.965  0.00  0.00    +0.008 C 
ATOM     16  C   UNL     1      31.100  -5.612 -23.251  0.00  0.00    +0.081 C 
BRANCH  16  19
ATOM     17  O   UNL     1      30.034  -3.543 -22.974  0.00  0.00    -0.270 OA
ATOM     18  N   UNL     1      31.475  -3.755 -24.778  0.00  0.00    -0.299 N 
ATOM     19  C   UNL     1      30.815  -4.241 -23.643  0.00  0.00    +0.248 C 
ATOM     20  C   UNL     1      31.315  -2.408 -25.280  0.00  0.00    +0.111 C 
ATOM     21  H   UNL     1      32.080  -4.363 -25.262  0.00  0.00    +0.150 HD
ENDBRANCH  16  19
ENDBRANCH   3  11
BRANCH   4  22
ATOM     22  C   UNL     1      32.802 -13.071 -22.878  0.00  0.00    +0.060 C 
ATOM     23  C   UNL     1      33.420 -13.997 -22.038  0.00  0.00    +0.020 C 
ATOM     24  C   UNL     1      32.588 -13.383 -24.221  0.00  0.00    +0.016 C 
ATOM     25  C   UNL     1      33.822 -15.234 -22.540  0.00  0.00    +0.082 C 
ATOM     26  C   UNL     1      32.990 -14.621 -24.723  0.00  0.00    +0.012 C 
ATOM     27  C   UNL     1      33.608 -15.546 -23.881  0.00  0.00    +0.072 C 
BRANCH  25  31
ATOM     28  F   UNL     1      34.560 -15.752 -20.323  0.00  0.00    -0.166 F 
ATOM     29  F   UNL     1      33.837 -17.403 -21.529  0.00  0.00    -0.166 F 
ATOM     30  F   UNL     1      35.761 -16.493 -21.978  0.00  0.00    -0.166 F 
ATOM     31  C   UNL     1      34.481 -16.202 -21.609  0.00  0.00    +0.419 C 
ENDBRANCH  25  31
BRANCH  27  33
ATOM     32  N   UNL     1      34.340 -17.832 -24.856  0.00  0.00    -0.191 NA
ATOM     33  C   UNL     1      34.012 -16.809 -24.421  0.00  0.00    +0.100 C 
ENDBRANCH  27  33
ENDBRANCH   4  22
TORSDOF 5
ENDMDL
MODEL 5
REMARK VINA RESULT:      -9.3      7.499     13.506
REMARK  Name = 15951529
REMARK  5 active torsions:
REMARK  status: ('A' for Active; 'I' for Inactive)
REMARK    1  A    between atoms: N_3  and  C_11
REMARK    2  A    between atoms: N_4  and  C_22
REMARK    3  A    between atoms: C_16  and  C_19
REMARK    4  A    between atoms: C_25  and  C_31
REMARK    5  A    between atoms: C_27  and  C_33
REMARK                            x       y       z     vdW  Elec       q    Type
REMARK                         _______ _______ _______ _____ _____    ______ ____
ROOT
ATOM      1  S   UNL     1      34.215 -10.182 -23.477  0.00  0.00    -0.017 S 
ATOM      2  O   UNL     1      31.032 -12.181 -20.097  0.00  0.00    -0.272 OA
ATOM      3  N   UNL     1      31.986  -9.433 -21.994  0.00  0.00    -0.265 N 
ATOM      4  N   UNL     1      32.565 -11.617 -21.784  0.00  0.00    -0.218 N 
ATOM      5  C   UNL     1      31.312  -9.867 -20.769  0.00  0.00    +0.133 C 
ATOM      6  C   UNL     1      31.591 -11.372 -20.831  0.00  0.00    +0.251 C 
ATOM      7  C   UNL     1      31.995  -9.369 -19.487  0.00  0.00    +0.030 C 
ATOM      8  C   UNL     1      29.795  -9.654 -20.751  0.00  0.00    +0.030 C 
ATOM      9  C   UNL     1      32.893 -10.436 -22.463  0.00  0.00    +0.152 C 
ENDROOT
BRANCH   3  11
ATOM     10  F   UNL     1      30.250  -6.947 -25.728  0.00  0.00    -0.204 F 
ATOM     11  C   UNL     1      31.711  -8.182 -22.641  0.00  0.00    +0.055 C 
ATOM     12  C   UNL     1      31.103  -8.168 -23.894  0.00  0.00    +0.045 C 
ATOM     13  C   UNL     1      32.052  -6.987 -22.012  0.00  0.00    +0.015 C 
ATOM     14  C   UNL     1      30.835  -6.951 -24.522  0.00  0.00    +0.146 C 
ATOM     15  C   UNL     1      31.784  -5.770 -22.640  0.00  0.00    +0.008 C 
ATOM     16  C   UNL     1      31.175  -5.752 -23.895  0.00  0.00    +0.081 C 
BRANCH  16  19
ATOM     17  O   UNL     1      30.015  -3.726 -24.104  0.00  0.00    -0.270 OA
ATOM     18  N   UNL     1      31.680  -4.155 -25.660  0.00  0.00    -0.299 N 
ATOM     19  C   UNL     1      30.897  -4.482 -24.547  0.00  0.00    +0.248 C 
ATOM     20  C   UNL     1      31.541  -2.920 -26.399  0.00  0.00    +0.111 C 
ATOM     21  H   UNL     1      32.361  -4.801 -25.957  0.00  0.00    +0.150 HD
ENDBRANCH  16  19
ENDBRANCH   3  11
BRANCH   4  22
ATOM     22  C   UNL     1      33.089 -12.926 -22.012  0.00  0.00    +0.060 C 
ATOM     23  C   UNL     1      33.039 -13.486 -23.288  0.00  0.00    +0.020 C 
ATOM     24  C   UNL     1      33.653 -13.644 -20.957  0.00  0.00    +0.016 C 
ATOM     25  C   UNL     1      33.553 -14.764 -23.510  0.00  0.00    +0.082 C 
ATOM     26  C   UNL     1      34.167 -14.922 -21.179  0.00  0.00    +0.012 C 
ATOM     27  C   UNL     1      34.116 -15.482 -22.456  0.00  0.00    +0.072 C 
BRANCH  25  31
ATOM     28  F   UNL     1      32.646 -16.406 -24.996  0.00  0.00    -0.166 F 
ATOM     29  F   UNL     1      33.037 -14.439 -25.823  0.00  0.00    -0.166 F 
ATOM     30  F   UNL     1      34.695 -15.762 -25.341  0.00  0.00    -0.166 F 
ATOM     31  C   UNL     1      33.482 -15.332 -24.891  0.00  0.00    +0.419 C 
ENDBRANCH  25  31
BRANCH  27  33
ATOM     32  N   UNL     1      35.081 -17.858 -22.819  0.00  0.00    -0.191 NA
ATOM     33  C   UNL     1      34.650 -16.795 -22.657  0.00  0.00    +0.100 C 
ENDBRANCH  27  33
ENDBRANCH   4  22
TORSDOF 5
ENDMDL
MODEL 6
REMARK VINA RESULT:      -9.1      7.299     10.973
REMARK  Name = 15951529
REMARK  5 active torsions:
REMARK  status: ('A' for Active; 'I' for Inactive)
REMARK    1  A    between atoms: N_3  and  C_11
REMARK    2  A    between atoms: N_4  and  C_22
REMARK    3  A    between atoms: C_16  and  C_19
REMARK    4  A    between atoms: C_25  and  C_31
REMARK    5  A    between atoms: C_27  and  C_33
REMARK                            x       y       z     vdW  Elec       q    Type
REMARK                         _______ _______ _______ _____ _____    ______ ____
ROOT
ATOM      1  S   UNL     1      33.739 -11.011 -24.638  0.00  0.00    -0.017 S 
ATOM      2  O   UNL     1      31.283  -8.621 -20.922  0.00  0.00    -0.272 OA
ATOM      3  N   UNL     1      32.607 -11.581 -22.164  0.00  0.00    -0.265 N 
ATOM      4  N   UNL     1      32.575  -9.384 -22.729  0.00  0.00    -0.218 N 
ATOM      5  C   UNL     1      31.592 -10.999 -21.284  0.00  0.00    +0.133 C 
ATOM      6  C   UNL     1      31.793  -9.513 -21.593  0.00  0.00    +0.251 C 
ATOM      7  C   UNL     1      30.154 -11.323 -21.713  0.00  0.00    +0.030 C 
ATOM      8  C   UNL     1      31.826 -11.220 -19.786  0.00  0.00    +0.030 C 
ATOM      9  C   UNL     1      33.025 -10.640 -23.157  0.00  0.00    +0.152 C 
ENDROOT
BRANCH   3  11
ATOM     10  F   UNL     1      34.384 -15.650 -24.014  0.00  0.00    -0.204 F 
ATOM     11  C   UNL     1      33.128 -12.907 -21.992  0.00  0.00    +0.055 C 
ATOM     12  C   UNL     1      33.511 -13.652 -23.105  0.00  0.00    +0.045 C 
ATOM     13  C   UNL     1      33.249 -13.444 -20.712  0.00  0.00    +0.015 C 
ATOM     14  C   UNL     1      34.018 -14.941 -22.938  0.00  0.00    +0.146 C 
ATOM     15  C   UNL     1      33.755 -14.734 -20.545  0.00  0.00    +0.008 C 
ATOM     16  C   UNL     1      34.140 -15.482 -21.658  0.00  0.00    +0.081 C 
BRANCH  16  19
ATOM     17  O   UNL     1      35.304 -17.121 -20.453  0.00  0.00    -0.270 OA
ATOM     18  N   UNL     1      34.403 -17.752 -22.494  0.00  0.00    -0.299 N 
ATOM     19  C   UNL     1      34.668 -16.825 -21.479  0.00  0.00    +0.248 C 
ATOM     20  C   UNL     1      34.839 -19.130 -22.451  0.00  0.00    +0.111 C 
ATOM     21  H   UNL     1      33.892 -17.449 -23.280  0.00  0.00    +0.150 HD
ENDBRANCH  16  19
ENDBRANCH   3  11
BRANCH   4  22
ATOM     22  C   UNL     1      32.867  -8.111 -23.306  0.00  0.00    +0.060 C 
ATOM     23  C   UNL     1      31.830  -7.244 -23.646  0.00  0.00    +0.020 C 
ATOM     24  C   UNL     1      34.192  -7.735 -23.530  0.00  0.00    +0.016 C 
ATOM     25  C   UNL     1      32.116  -6.000 -24.210  0.00  0.00    +0.082 C 
ATOM     26  C   UNL     1      34.479  -6.491 -24.092  0.00  0.00    +0.012 C 
ATOM     27  C   UNL     1      33.440  -5.624 -24.433  0.00  0.00    +0.072 C 
BRANCH  25  31
ATOM     28  F   UNL     1      30.892  -3.993 -23.762  0.00  0.00    -0.166 F 
ATOM     29  F   UNL     1      31.043  -4.612 -25.836  0.00  0.00    -0.166 F 
ATOM     30  F   UNL     1      29.769  -5.719 -24.464  0.00  0.00    -0.166 F 
ATOM     31  C   UNL     1      30.978  -5.096 -24.562  0.00  0.00    +0.419 C 
ENDBRANCH  25  31
BRANCH  27  33
ATOM     32  N   UNL     1      34.019  -3.325 -25.478  0.00  0.00    -0.191 NA
ATOM     33  C   UNL     1      33.761  -4.353 -25.010  0.00  0.00    +0.100 C 
ENDBRANCH  27  33
ENDBRANCH   4  22
TORSDOF 5
ENDMDL
MODEL 7
REMARK VINA RESULT:      -9.1      1.725      2.159
REMARK  Name = 15951529
REMARK  5 active torsions:
REMARK  status: ('A' for Active; 'I' for Inactive)
REMARK    1  A    between atoms: N_3  and  C_11
REMARK    2  A    between atoms: N_4  and  C_22
REMARK    3  A    between atoms: C_16  and  C_19
REMARK    4  A    between atoms: C_25  and  C_31
REMARK    5  A    between atoms: C_27  and  C_33
REMARK                            x       y       z     vdW  Elec       q    Type
REMARK                         _______ _______ _______ _____ _____    ______ ____
ROOT
ATOM      1  S   UNL     1      36.794 -20.191 -19.338  0.00  0.00    -0.017 S 
ATOM      2  O   UNL     1      31.844 -20.628 -20.266  0.00  0.00    -0.272 OA
ATOM      3  N   UNL     1      34.569 -21.489 -18.293  0.00  0.00    -0.265 N 
ATOM      4  N   UNL     1      34.115 -20.084 -20.015  0.00  0.00    -0.218 N 
ATOM      5  C   UNL     1      33.249 -21.914 -18.764  0.00  0.00    +0.133 C 
ATOM      6  C   UNL     1      32.952 -20.795 -19.767  0.00  0.00    +0.251 C 
ATOM      7  C   UNL     1      33.283 -23.211 -19.586  0.00  0.00    +0.030 C 
ATOM      8  C   UNL     1      32.149 -21.917 -17.699  0.00  0.00    +0.030 C 
ATOM      9  C   UNL     1      35.151 -20.537 -19.188  0.00  0.00    +0.152 C 
ENDROOT
BRANCH   3  11
ATOM     10  F   UNL     1      34.134 -23.624 -14.005  0.00  0.00    -0.204 F 
ATOM     11  C   UNL     1      35.149 -21.950 -17.063  0.00  0.00    +0.055 C 
ATOM     12  C   UNL     1      34.349 -22.575 -16.111  0.00  0.00    +0.045 C 
ATOM     13  C   UNL     1      36.510 -21.769 -16.828  0.00  0.00    +0.015 C 
ATOM     14  C   UNL     1      34.912 -23.023 -14.915  0.00  0.00    +0.146 C 
ATOM     15  C   UNL     1      37.074 -22.217 -15.633  0.00  0.00    +0.008 C 
ATOM     16  C   UNL     1      36.274 -22.844 -14.677  0.00  0.00    +0.081 C 
BRANCH  16  19
ATOM     17  O   UNL     1      37.211 -22.498 -12.556  0.00  0.00    -0.270 OA
ATOM     18  N   UNL     1      37.000 -24.693 -13.272  0.00  0.00    -0.299 N 
ATOM     19  C   UNL     1      36.866 -23.310 -13.432  0.00  0.00    +0.248 C 
ATOM     20  C   UNL     1      37.547 -25.311 -12.084  0.00  0.00    +0.111 C 
ATOM     21  H   UNL     1      36.706 -25.279 -14.007  0.00  0.00    +0.150 HD
ENDBRANCH  16  19
ENDBRANCH   3  11
BRANCH   4  22
ATOM     22  C   UNL     1      34.165 -19.025 -20.972  0.00  0.00    +0.060 C 
ATOM     23  C   UNL     1      33.782 -19.259 -22.293  0.00  0.00    +0.020 C 
ATOM     24  C   UNL     1      34.597 -17.756 -20.586  0.00  0.00    +0.016 C 
ATOM     25  C   UNL     1      33.831 -18.224 -23.227  0.00  0.00    +0.082 C 
ATOM     26  C   UNL     1      34.645 -16.721 -21.520  0.00  0.00    +0.012 C 
ATOM     27  C   UNL     1      34.262 -16.956 -22.841  0.00  0.00    +0.072 C 
BRANCH  25  31
ATOM     28  F   UNL     1      33.748 -19.766 -25.055  0.00  0.00    -0.166 F 
ATOM     29  F   UNL     1      32.065 -18.417 -24.829  0.00  0.00    -0.166 F 
ATOM     30  F   UNL     1      33.977 -17.655 -25.531  0.00  0.00    -0.166 F 
ATOM     31  C   UNL     1      33.412 -18.512 -24.633  0.00  0.00    +0.419 C 
ENDBRANCH  25  31
BRANCH  27  33
ATOM     32  N   UNL     1      34.368 -15.005 -24.542  0.00  0.00    -0.191 NA
ATOM     33  C   UNL     1      34.321 -15.877 -23.781  0.00  0.00    +0.100 C 
ENDBRANCH  27  33
ENDBRANCH   4  22
TORSDOF 5
ENDMDL
MODEL 8
REMARK VINA RESULT:      -9.0      3.147      5.285
REMARK  Name = 15951529
REMARK  5 active torsions:
REMARK  status: ('A' for Active; 'I' for Inactive)
REMARK    1  A    between atoms: N_3  and  C_11
REMARK    2  A    between atoms: N_4  and  C_22
REMARK    3  A    between atoms: C_16  and  C_19
REMARK    4  A    between atoms: C_25  and  C_31
REMARK    5  A    between atoms: C_27  and  C_33
REMARK                            x       y       z     vdW  Elec       q    Type
REMARK                         _______ _______ _______ _____ _____    ______ ____
ROOT
ATOM      1  S   UNL     1      34.095 -15.950 -19.745  0.00  0.00    -0.017 S 
ATOM      2  O   UNL     1      34.193 -16.421 -24.777  0.00  0.00    -0.272 OA
ATOM      3  N   UNL     1      34.296 -17.953 -21.662  0.00  0.00    -0.265 N 
ATOM      4  N   UNL     1      33.952 -15.875 -22.506  0.00  0.00    -0.218 N 
ATOM      5  C   UNL     1      34.698 -18.064 -23.065  0.00  0.00    +0.133 C 
ATOM      6  C   UNL     1      34.240 -16.697 -23.582  0.00  0.00    +0.251 C 
ATOM      7  C   UNL     1      36.220 -18.096 -23.264  0.00  0.00    +0.030 C 
ATOM      8  C   UNL     1      33.975 -19.153 -23.864  0.00  0.00    +0.030 C 
ATOM      9  C   UNL     1      34.056 -16.589 -21.304  0.00  0.00    +0.152 C 
ENDROOT
BRANCH   3  11
ATOM     10  F   UNL     1      36.158 -21.455 -18.940  0.00  0.00    -0.204 F 
ATOM     11  C   UNL     1      34.126 -19.089 -20.802  0.00  0.00    +0.055 C 
ATOM     12  C   UNL     1      35.243 -19.735 -20.277  0.00  0.00    +0.045 C 
ATOM     13  C   UNL     1      32.844 -19.541 -20.494  0.00  0.00    +0.015 C 
ATOM     14  C   UNL     1      35.078 -20.840 -19.440  0.00  0.00    +0.146 C 
ATOM     15  C   UNL     1      32.680 -20.645 -19.658  0.00  0.00    +0.008 C 
ATOM     16  C   UNL     1      33.796 -21.295 -19.131  0.00  0.00    +0.081 C 
BRANCH  16  19
ATOM     17  O   UNL     1      33.313 -23.554 -18.732  0.00  0.00    -0.270 OA
ATOM     18  N   UNL     1      33.833 -22.244 -16.891  0.00  0.00    -0.299 N 
ATOM     19  C   UNL     1      33.620 -22.445 -18.259  0.00  0.00    +0.248 C 
ATOM     20  C   UNL     1      33.720 -23.292 -15.901  0.00  0.00    +0.111 C 
ATOM     21  H   UNL     1      34.073 -21.339 -16.584  0.00  0.00    +0.150 HD
ENDBRANCH  16  19
ENDBRANCH   3  11
BRANCH   4  22
ATOM     22  C   UNL     1      33.574 -14.509 -22.676  0.00  0.00    +0.060 C 
ATOM     23  C   UNL     1      32.847 -13.856 -21.681  0.00  0.00    +0.020 C 
ATOM     24  C   UNL     1      33.932 -13.826 -23.839  0.00  0.00    +0.016 C 
ATOM     25  C   UNL     1      32.479 -12.521 -21.848  0.00  0.00    +0.082 C 
ATOM     26  C   UNL     1      33.565 -12.491 -24.006  0.00  0.00    +0.012 C 
ATOM     27  C   UNL     1      32.837 -11.839 -23.010  0.00  0.00    +0.072 C 
BRANCH  25  31
ATOM     28  F   UNL     1      32.271 -10.697 -20.312  0.00  0.00    -0.166 F 
ATOM     29  F   UNL     1      30.433 -11.509 -21.131  0.00  0.00    -0.166 F 
ATOM     30  F   UNL     1      31.560 -12.646 -19.658  0.00  0.00    -0.166 F 
ATOM     31  C   UNL     1      31.700 -11.854 -20.759  0.00  0.00    +0.419 C 
ENDBRANCH  25  31
BRANCH  27  33
ATOM     32  N   UNL     1      32.174  -9.359 -23.362  0.00  0.00    -0.191 NA
ATOM     33  C   UNL     1      32.471 -10.468 -23.205  0.00  0.00    +0.100 C 
ENDBRANCH  27  33
ENDBRANCH   4  22
TORSDOF 5
ENDMDL
MODEL 9
REMARK VINA RESULT:      -8.9      2.926      9.436
REMARK  Name = 15951529
REMARK  5 active torsions:
REMARK  status: ('A' for Active; 'I' for Inactive)
REMARK    1  A    between atoms: N_3  and  C_11
REMARK    2  A    between atoms: N_4  and  C_22
REMARK    3  A    between atoms: C_16  and  C_19
REMARK    4  A    between atoms: C_25  and  C_31
REMARK    5  A    between atoms: C_27  and  C_33
REMARK                            x       y       z     vdW  Elec       q    Type
REMARK                         _______ _______ _______ _____ _____    ______ ____
ROOT
ATOM      1  S   UNL     1      31.818 -20.636 -20.177  0.00  0.00    -0.017 S 
ATOM      2  O   UNL     1      36.180 -21.549 -17.790  0.00  0.00    -0.272 OA
ATOM      3  N   UNL     1      34.492 -19.894 -20.335  0.00  0.00    -0.265 N 
ATOM      4  N   UNL     1      33.987 -21.217 -18.562  0.00  0.00    -0.218 N 
ATOM      5  C   UNL     1      35.786 -20.430 -19.906  0.00  0.00    +0.133 C 
ATOM      6  C   UNL     1      35.368 -21.126 -18.607  0.00  0.00    +0.251 C 
ATOM      7  C   UNL     1      36.320 -21.541 -20.821  0.00  0.00    +0.030 C 
ATOM      8  C   UNL     1      36.847 -19.377 -19.573  0.00  0.00    +0.030 C 
ATOM      9  C   UNL     1      33.416 -20.544 -19.651  0.00  0.00    +0.152 C 
ENDROOT
BRANCH   3  11
ATOM     10  F   UNL     1      33.357 -18.318 -24.736  0.00  0.00    -0.204 F 
ATOM     11  C   UNL     1      34.361 -18.824 -21.282  0.00  0.00    +0.055 C 
ATOM     12  C   UNL     1      33.915 -19.092 -22.574  0.00  0.00    +0.045 C 
ATOM     13  C   UNL     1      34.679 -17.521 -20.904  0.00  0.00    +0.015 C 
ATOM     14  C   UNL     1      33.787 -18.051 -23.495  0.00  0.00    +0.146 C 
ATOM     15  C   UNL     1      34.551 -16.480 -21.825  0.00  0.00    +0.008 C 
ATOM     16  C   UNL     1      34.105 -16.746 -23.120  0.00  0.00    +0.081 C 
BRANCH  16  19
ATOM     17  O   UNL     1      34.493 -15.741 -25.202  0.00  0.00    -0.270 OA
ATOM     18  N   UNL     1      33.221 -14.547 -23.675  0.00  0.00    -0.299 N 
ATOM     19  C   UNL     1      33.973 -15.658 -24.076  0.00  0.00    +0.248 C 
ATOM     20  C   UNL     1      32.980 -13.398 -24.519  0.00  0.00    +0.111 C 
ATOM     21  H   UNL     1      32.837 -14.547 -22.768  0.00  0.00    +0.150 HD
ENDBRANCH  16  19
ENDBRANCH   3  11
BRANCH   4  22
ATOM     22  C   UNL     1      33.306 -21.890 -17.502  0.00  0.00    +0.060 C 
ATOM     23  C   UNL     1      34.032 -22.450 -16.451  0.00  0.00    +0.020 C 
ATOM     24  C   UNL     1      31.915 -21.988 -17.518  0.00  0.00    +0.016 C 
ATOM     25  C   UNL     1      33.367 -23.107 -15.416  0.00  0.00    +0.082 C 
ATOM     26  C   UNL     1      31.250 -22.644 -16.482  0.00  0.00    +0.012 C 
ATOM     27  C   UNL     1      31.977 -23.204 -15.431  0.00  0.00    +0.072 C 
BRANCH  25  31
ATOM     28  F   UNL     1      33.747 -23.329 -13.063  0.00  0.00    -0.166 F 
ATOM     29  F   UNL     1      34.181 -25.059 -14.298  0.00  0.00    -0.166 F 
ATOM     30  F   UNL     1      35.490 -23.323 -14.365  0.00  0.00    -0.166 F 
ATOM     31  C   UNL     1      34.179 -23.694 -14.305  0.00  0.00    +0.419 C 
ENDBRANCH  25  31
BRANCH  27  33
ATOM     32  N   UNL     1      30.699 -24.413 -13.530  0.00  0.00    -0.191 NA
ATOM     33  C   UNL     1      31.271 -23.873 -14.381  0.00  0.00    +0.100 C 
ENDBRANCH  27  33
ENDBRANCH   4  22
TORSDOF 5
ENDMDL
