MODEL 1
REMARK VINA RESULT:     -14.6      0.000      0.000
REMARK  Name = 115237
REMARK  5 active torsions:
REMARK  status: ('A' for Active; 'I' for Inactive)
REMARK    1  A    between atoms: N_1  and  C_18
REMARK    2  A    between atoms: C_2  and  C_11
REMARK    3  A    between atoms: C_18  and  C_19
REMARK    4  A    between atoms: C_19  and  C_23
REMARK    5  A    between atoms: C_25  and  O_32
REMARK                            x       y       z     vdW  Elec       q    Type
REMARK                         _______ _______ _______ _____ _____    ______ ____
ROOT
ATOM      1  N   UNL     1      35.292 -19.313 -20.142  0.00  0.00    +0.387 N 
ATOM      2  C   UNL     1      34.715 -18.044 -22.722  0.00  0.00    +0.039 C 
ATOM      3  C   UNL     1      33.638 -18.771 -21.901  0.00  0.00    -0.017 C 
ATOM      4  C   UNL     1      35.837 -17.551 -21.792  0.00  0.00    -0.017 C 
ATOM      5  C   UNL     1      34.253 -19.864 -21.024  0.00  0.00    -0.077 C 
ATOM      6  C   UNL     1      36.371 -18.688 -20.918  0.00  0.00    -0.077 C 
ATOM      7  H   UNL     1      34.862 -18.591 -19.562  0.00  0.00    -0.080 HD
ENDROOT
BRANCH   2  11
ATOM      8  F   UNL     1      32.880 -11.615 -23.446  0.00  0.00    -0.204 F 
ATOM      9  O   UNL     1      33.316 -16.011 -25.347  0.00  0.00    -0.354 OA
ATOM     10  N   UNL     1      33.787 -17.215 -24.838  0.00  0.00    -0.081 NA
ATOM     11  C   UNL     1      34.146 -16.941 -23.586  0.00  0.00    +0.100 A 
ATOM     12  C   UNL     1      33.934 -15.600 -23.234  0.00  0.00    +0.054 A 
ATOM     13  C   UNL     1      33.404 -15.049 -24.388  0.00  0.00    +0.179 A 
ATOM     14  C   UNL     1      34.116 -14.781 -22.109  0.00  0.00    +0.007 C 
ATOM     15  C   UNL     1      33.031 -13.715 -24.520  0.00  0.00    +0.070 C 
ATOM     16  C   UNL     1      33.749 -13.432 -22.207  0.00  0.00    +0.030 C 
ATOM     17  C   UNL     1      33.218 -12.911 -23.392  0.00  0.00    +0.143 C 
ENDBRANCH   2  11
BRANCH   1  18
ATOM     18  C   UNL     1      35.828 -20.358 -19.270  0.00  0.00    -0.076 C 
BRANCH  18  19
ATOM     19  C   UNL     1      34.970 -21.612 -19.376  0.00  0.00    -0.007 C 
BRANCH  19  23
ATOM     20  O   UNL     1      32.232 -21.910 -18.975  0.00  0.00    -0.274 OA
ATOM     21  N   UNL     1      32.413 -22.591 -16.754  0.00  0.00    -0.235 N 
ATOM     22  N   UNL     1      34.536 -22.577 -15.711  0.00  0.00    -0.397 NA
ATOM     23  C   UNL     1      34.402 -21.986 -18.037  0.00  0.00    +0.123 C 
ATOM     24  C   UNL     1      30.958 -22.733 -16.650  0.00  0.00    +0.100 C 
ATOM     25  C   UNL     1      32.659 -23.233 -14.344  0.00  0.00    +0.177 C 
ATOM     26  C   UNL     1      30.493 -23.584 -15.485  0.00  0.00    +0.025 C 
ATOM     27  C   UNL     1      31.156 -23.079 -14.222  0.00  0.00    +0.040 C 
ATOM     28  C   UNL     1      33.252 -22.752 -15.665  0.00  0.00    +0.192 C 
ATOM     29  C   UNL     1      32.917 -22.159 -17.984  0.00  0.00    +0.237 C 
ATOM     30  C   UNL     1      35.099 -22.194 -16.903  0.00  0.00    +0.097 C 
ATOM     31  C   UNL     1      36.591 -22.008 -16.813  0.00  0.00    +0.062 C 
BRANCH  25  32
ATOM     32  O   UNL     1      33.280 -22.515 -13.288  0.00  0.00    -0.376 OA
ATOM     33  H   UNL     1      33.415 -23.106 -12.531  0.00  0.00    +0.211 HD
ENDBRANCH  25  32
ENDBRANCH  19  23
ENDBRANCH  18  19
ENDBRANCH   1  18
TORSDOF 5
ENDMDL
MODEL 2
REMARK VINA RESULT:     -14.2      3.361     10.314
REMARK  Name = 115237
REMARK  5 active torsions:
REMARK  status: ('A' for Active; 'I' for Inactive)
REMARK    1  A    between atoms: N_1  and  C_18
REMARK    2  A    between atoms: C_2  and  C_11
REMARK    3  A    between atoms: C_18  and  C_19
REMARK    4  A    between atoms: C_19  and  C_23
REMARK    5  A    between atoms: C_25  and  O_32
REMARK                            x       y       z     vdW  Elec       q    Type
REMARK                         _______ _______ _______ _____ _____    ______ ____
ROOT
ATOM      1  N   UNL     1      33.885 -20.141 -20.027  0.00  0.00    +0.387 N 
ATOM      2  C   UNL     1      33.614 -22.266 -18.024  0.00  0.00    +0.039 C 
ATOM      3  C   UNL     1      34.966 -21.618 -18.361  0.00  0.00    -0.017 C 
ATOM      4  C   UNL     1      32.471 -21.291 -18.354  0.00  0.00    -0.017 C 
ATOM      5  C   UNL     1      34.985 -21.088 -19.796  0.00  0.00    -0.077 C 
ATOM      6  C   UNL     1      32.580 -20.774 -19.789  0.00  0.00    -0.077 C 
ATOM      7  H   UNL     1      33.988 -19.373 -19.363  0.00  0.00    -0.080 HD
ENDROOT
BRANCH   2  11
ATOM      8  F   UNL     1      29.974 -23.899 -12.610  0.00  0.00    -0.204 F 
ATOM      9  O   UNL     1      34.281 -23.546 -14.723  0.00  0.00    -0.354 OA
ATOM     10  N   UNL     1      34.679 -23.122 -15.984  0.00  0.00    -0.081 NA
ATOM     11  C   UNL     1      33.550 -22.781 -16.604  0.00  0.00    +0.100 A 
ATOM     12  C   UNL     1      32.411 -22.961 -15.807  0.00  0.00    +0.054 A 
ATOM     13  C   UNL     1      32.927 -23.450 -14.619  0.00  0.00    +0.179 A 
ATOM     14  C   UNL     1      31.024 -22.781 -15.924  0.00  0.00    +0.007 C 
ATOM     15  C   UNL     1      32.158 -23.784 -13.509  0.00  0.00    +0.070 C 
ATOM     16  C   UNL     1      30.219 -23.106 -14.823  0.00  0.00    +0.030 C 
ATOM     17  C   UNL     1      30.778 -23.599 -13.640  0.00  0.00    +0.143 C 
ENDBRANCH   2  11
BRANCH   1  18
ATOM     18  C   UNL     1      33.952 -19.601 -21.385  0.00  0.00    -0.076 C 
BRANCH  18  19
ATOM     19  C   UNL     1      34.995 -18.494 -21.451  0.00  0.00    -0.007 C 
BRANCH  19  23
ATOM     20  O   UNL     1      34.519 -15.983 -20.348  0.00  0.00    -0.274 OA
ATOM     21  N   UNL     1      33.964 -14.963 -22.368  0.00  0.00    -0.235 N 
ATOM     22  N   UNL     1      33.809 -16.284 -24.325  0.00  0.00    -0.397 NA
ATOM     23  C   UNL     1      34.503 -17.344 -22.282  0.00  0.00    +0.123 C 
ATOM     24  C   UNL     1      33.754 -13.679 -21.694  0.00  0.00    +0.100 C 
ATOM     25  C   UNL     1      33.291 -13.938 -24.553  0.00  0.00    +0.177 C 
ATOM     26  C   UNL     1      33.769 -12.476 -22.617  0.00  0.00    +0.025 C 
ATOM     27  C   UNL     1      32.815 -12.735 -23.763  0.00  0.00    +0.040 C 
ATOM     28  C   UNL     1      33.689 -15.147 -23.713  0.00  0.00    +0.192 C 
ATOM     29  C   UNL     1      34.340 -16.042 -21.564  0.00  0.00    +0.237 C 
ATOM     30  C   UNL     1      34.217 -17.375 -23.598  0.00  0.00    +0.097 C 
ATOM     31  C   UNL     1      34.296 -18.631 -24.425  0.00  0.00    +0.062 C 
BRANCH  25  32
ATOM     32  O   UNL     1      32.260 -14.335 -25.446  0.00  0.00    -0.376 OA
ATOM     33  H   UNL     1      31.472 -14.586 -24.939  0.00  0.00    +0.211 HD
ENDBRANCH  25  32
ENDBRANCH  19  23
ENDBRANCH  18  19
ENDBRANCH   1  18
TORSDOF 5
ENDMDL
MODEL 3
REMARK VINA RESULT:     -13.7      1.854      2.464
REMARK  Name = 115237
REMARK  5 active torsions:
REMARK  status: ('A' for Active; 'I' for Inactive)
REMARK    1  A    between atoms: N_1  and  C_18
REMARK    2  A    between atoms: C_2  and  C_11
REMARK    3  A    between atoms: C_18  and  C_19
REMARK    4  A    between atoms: C_19  and  C_23
REMARK    5  A    between atoms: C_25  and  O_32
REMARK                            x       y       z     vdW  Elec       q    Type
REMARK                         _______ _______ _______ _____ _____    ______ ____
ROOT
ATOM      1  N   UNL     1      35.360 -19.706 -20.054  0.00  0.00    +0.387 N 
ATOM      2  C   UNL     1      34.854 -18.223 -22.534  0.00  0.00    +0.039 C 
ATOM      3  C   UNL     1      33.743 -18.965 -21.775  0.00  0.00    -0.017 C 
ATOM      4  C   UNL     1      35.989 -17.849 -21.565  0.00  0.00    -0.017 C 
ATOM      5  C   UNL     1      34.305 -20.145 -20.979  0.00  0.00    -0.077 C 
ATOM      6  C   UNL     1      36.470 -19.069 -20.777  0.00  0.00    -0.077 C 
ATOM      7  H   UNL     1      34.957 -19.012 -19.424  0.00  0.00    -0.080 HD
ENDROOT
BRANCH   2  11
ATOM      8  F   UNL     1      32.981 -11.766 -22.692  0.00  0.00    -0.204 F 
ATOM      9  O   UNL     1      33.633 -15.923 -25.023  0.00  0.00    -0.354 OA
ATOM     10  N   UNL     1      34.082 -17.172 -24.613  0.00  0.00    -0.081 NA
ATOM     11  C   UNL     1      34.338 -17.035 -23.314  0.00  0.00    +0.100 A 
ATOM     12  C   UNL     1      34.078 -15.743 -22.836  0.00  0.00    +0.054 A 
ATOM     13  C   UNL     1      33.631 -15.072 -23.961  0.00  0.00    +0.179 A 
ATOM     14  C   UNL     1      34.158 -15.052 -21.617  0.00  0.00    +0.007 C 
ATOM     15  C   UNL     1      33.248 -13.733 -23.975  0.00  0.00    +0.070 C 
ATOM     16  C   UNL     1      33.779 -13.703 -21.595  0.00  0.00    +0.030 C 
ATOM     17  C   UNL     1      33.334 -13.058 -22.754  0.00  0.00    +0.143 C 
ENDBRANCH   2  11
BRANCH   1  18
ATOM     18  C   UNL     1      35.846 -20.835 -19.262  0.00  0.00    -0.076 C 
BRANCH  18  19
ATOM     19  C   UNL     1      34.781 -21.263 -18.261  0.00  0.00    -0.007 C 
BRANCH  19  23
ATOM     20  O   UNL     1      33.712 -23.415 -16.858  0.00  0.00    -0.274 OA
ATOM     21  N   UNL     1      35.399 -23.483 -15.251  0.00  0.00    -0.235 N 
ATOM     22  N   UNL     1      37.064 -21.802 -15.253  0.00  0.00    -0.397 NA
ATOM     23  C   UNL     1      35.409 -21.773 -16.997  0.00  0.00    +0.123 C 
ATOM     24  C   UNL     1      34.764 -24.628 -14.593  0.00  0.00    +0.100 C 
ATOM     25  C   UNL     1      37.191 -23.456 -13.500  0.00  0.00    +0.177 C 
ATOM     26  C   UNL     1      35.679 -25.405 -13.667  0.00  0.00    +0.025 C 
ATOM     27  C   UNL     1      36.341 -24.434 -12.714  0.00  0.00    +0.040 C 
ATOM     28  C   UNL     1      36.515 -22.852 -14.727  0.00  0.00    +0.192 C 
ATOM     29  C   UNL     1      34.753 -22.967 -16.379  0.00  0.00    +0.237 C 
ATOM     30  C   UNL     1      36.502 -21.272 -16.388  0.00  0.00    +0.097 C 
ATOM     31  C   UNL     1      37.226 -20.049 -16.883  0.00  0.00    +0.062 C 
BRANCH  25  32
ATOM     32  O   UNL     1      37.582 -22.395 -12.639  0.00  0.00    -0.376 OA
ATOM     33  H   UNL     1      37.071 -21.600 -12.853  0.00  0.00    +0.211 HD
ENDBRANCH  25  32
ENDBRANCH  19  23
ENDBRANCH  18  19
ENDBRANCH   1  18
TORSDOF 5
ENDMDL
MODEL 4
REMARK VINA RESULT:     -13.7      2.400      3.453
REMARK  Name = 115237
REMARK  5 active torsions:
REMARK  status: ('A' for Active; 'I' for Inactive)
REMARK    1  A    between atoms: N_1  and  C_18
REMARK    2  A    between atoms: C_2  and  C_11
REMARK    3  A    between atoms: C_18  and  C_19
REMARK    4  A    between atoms: C_19  and  C_23
REMARK    5  A    between atoms: C_25  and  O_32
REMARK                            x       y       z     vdW  Elec       q    Type
REMARK                         _______ _______ _______ _____ _____    ______ ____
ROOT
ATOM      1  N   UNL     1      35.398 -19.963 -19.574  0.00  0.00    +0.387 N 
ATOM      2  C   UNL     1      34.960 -18.403 -22.019  0.00  0.00    +0.039 C 
ATOM      3  C   UNL     1      33.806 -19.042 -21.230  0.00  0.00    -0.017 C 
ATOM      4  C   UNL     1      36.158 -18.157 -21.086  0.00  0.00    -0.017 C 
ATOM      5  C   UNL     1      34.275 -20.283 -20.467  0.00  0.00    -0.077 C 
ATOM      6  C   UNL     1      36.541 -19.430 -20.328  0.00  0.00    -0.077 C 
ATOM      7  H   UNL     1      35.087 -19.242 -18.923  0.00  0.00    -0.080 HD
ENDROOT
BRANCH   2  11
ATOM      8  F   UNL     1      33.118 -11.936 -21.940  0.00  0.00    -0.204 F 
ATOM      9  O   UNL     1      34.038 -15.925 -24.466  0.00  0.00    -0.354 OA
ATOM     10  N   UNL     1      34.436 -17.204 -24.096  0.00  0.00    -0.081 NA
ATOM     11  C   UNL     1      34.538 -17.160 -22.769  0.00  0.00    +0.100 A 
ATOM     12  C   UNL     1      34.224 -15.902 -22.234  0.00  0.00    +0.054 A 
ATOM     13  C   UNL     1      33.912 -15.150 -23.354  0.00  0.00    +0.179 A 
ATOM     14  C   UNL     1      34.162 -15.299 -20.969  0.00  0.00    +0.007 C 
ATOM     15  C   UNL     1      33.534 -13.811 -23.318  0.00  0.00    +0.070 C 
ATOM     16  C   UNL     1      33.783 -13.951 -20.897  0.00  0.00    +0.030 C 
ATOM     17  C   UNL     1      33.476 -13.224 -22.051  0.00  0.00    +0.143 C 
ENDBRANCH   2  11
BRANCH   1  18
ATOM     18  C   UNL     1      35.796 -21.146 -18.810  0.00  0.00    -0.076 C 
BRANCH  18  19
ATOM     19  C   UNL     1      35.872 -20.804 -17.329  0.00  0.00    -0.007 C 
BRANCH  19  23
ATOM     20  O   UNL     1      38.219 -21.697 -16.129  0.00  0.00    -0.274 OA
ATOM     21  N   UNL     1      37.227 -23.495 -15.028  0.00  0.00    -0.235 N 
ATOM     22  N   UNL     1      34.949 -23.985 -15.437  0.00  0.00    -0.397 NA
ATOM     23  C   UNL     1      35.909 -22.051 -16.493  0.00  0.00    +0.123 C 
ATOM     24  C   UNL     1      38.511 -23.874 -14.433  0.00  0.00    +0.100 C 
ATOM     25  C   UNL     1      36.126 -25.465 -13.938  0.00  0.00    +0.177 C 
ATOM     26  C   UNL     1      38.398 -24.790 -13.229  0.00  0.00    +0.025 C 
ATOM     27  C   UNL     1      37.517 -25.965 -13.596  0.00  0.00    +0.040 C 
ATOM     28  C   UNL     1      36.084 -24.262 -14.875  0.00  0.00    +0.192 C 
ATOM     29  C   UNL     1      37.229 -22.381 -15.871  0.00  0.00    +0.237 C 
ATOM     30  C   UNL     1      34.874 -22.877 -16.243  0.00  0.00    +0.097 C 
ATOM     31  C   UNL     1      33.507 -22.683 -16.845  0.00  0.00    +0.062 C 
BRANCH  25  32
ATOM     32  O   UNL     1      35.394 -26.524 -14.538  0.00  0.00    -0.376 OA
ATOM     33  H   UNL     1      35.337 -26.376 -15.494  0.00  0.00    +0.211 HD
ENDBRANCH  25  32
ENDBRANCH  19  23
ENDBRANCH  18  19
ENDBRANCH   1  18
TORSDOF 5
ENDMDL
MODEL 5
REMARK VINA RESULT:     -13.7      1.860      2.924
REMARK  Name = 115237
REMARK  5 active torsions:
REMARK  status: ('A' for Active; 'I' for Inactive)
REMARK    1  A    between atoms: N_1  and  C_18
REMARK    2  A    between atoms: C_2  and  C_11
REMARK    3  A    between atoms: C_18  and  C_19
REMARK    4  A    between atoms: C_19  and  C_23
REMARK    5  A    between atoms: C_25  and  O_32
REMARK                            x       y       z     vdW  Elec       q    Type
REMARK                         _______ _______ _______ _____ _____    ______ ____
ROOT
ATOM      1  N   UNL     1      35.060 -20.725 -20.224  0.00  0.00    +0.387 N 
ATOM      2  C   UNL     1      34.597 -17.964 -21.098  0.00  0.00    +0.039 C 
ATOM      3  C   UNL     1      36.002 -18.587 -21.040  0.00  0.00    -0.017 C 
ATOM      4  C   UNL     1      33.542 -19.070 -21.263  0.00  0.00    -0.017 C 
ATOM      5  C   UNL     1      36.076 -19.691 -19.983  0.00  0.00    -0.077 C 
ATOM      6  C   UNL     1      33.706 -20.156 -20.198  0.00  0.00    -0.077 C 
ATOM      7  H   UNL     1      35.220 -21.113 -21.155  0.00  0.00    -0.080 HD
ENDROOT
BRANCH   2  11
ATOM      8  F   UNL     1      33.413 -11.539 -22.694  0.00  0.00    -0.204 F 
ATOM      9  O   UNL     1      34.504 -16.002 -24.118  0.00  0.00    -0.354 OA
ATOM     10  N   UNL     1      34.683 -17.194 -23.427  0.00  0.00    -0.081 NA
ATOM     11  C   UNL     1      34.480 -16.883 -22.148  0.00  0.00    +0.100 A 
ATOM     12  C   UNL     1      34.173 -15.528 -21.955  0.00  0.00    +0.054 A 
ATOM     13  C   UNL     1      34.201 -15.009 -23.237  0.00  0.00    +0.179 A 
ATOM     14  C   UNL     1      33.879 -14.675 -20.880  0.00  0.00    +0.007 C 
ATOM     15  C   UNL     1      33.954 -13.676 -23.549  0.00  0.00    +0.070 C 
ATOM     16  C   UNL     1      33.624 -13.325 -21.159  0.00  0.00    +0.030 C 
ATOM     17  C   UNL     1      33.662 -12.837 -22.470  0.00  0.00    +0.143 C 
ENDBRANCH   2  11
BRANCH   1  18
ATOM     18  C   UNL     1      35.183 -21.801 -19.240  0.00  0.00    -0.076 C 
BRANCH  18  19
ATOM     19  C   UNL     1      35.905 -21.290 -18.002  0.00  0.00    -0.007 C 
BRANCH  19  23
ATOM     20  O   UNL     1      37.495 -21.719 -15.758  0.00  0.00    -0.274 OA
ATOM     21  N   UNL     1      35.779 -22.587 -14.442  0.00  0.00    -0.235 N 
ATOM     22  N   UNL     1      33.651 -22.950 -15.410  0.00  0.00    -0.397 NA
ATOM     23  C   UNL     1      35.364 -21.939 -16.761  0.00  0.00    +0.123 C 
ATOM     24  C   UNL     1      36.695 -22.759 -13.312  0.00  0.00    +0.100 C 
ATOM     25  C   UNL     1      33.918 -23.595 -13.100  0.00  0.00    +0.177 C 
ATOM     26  C   UNL     1      36.011 -22.922 -11.968  0.00  0.00    +0.025 C 
ATOM     27  C   UNL     1      34.966 -24.010 -12.087  0.00  0.00    +0.040 C 
ATOM     28  C   UNL     1      34.469 -23.034 -14.407  0.00  0.00    +0.192 C 
ATOM     29  C   UNL     1      36.321 -22.059 -15.617  0.00  0.00    +0.237 C 
ATOM     30  C   UNL     1      34.111 -22.401 -16.582  0.00  0.00    +0.097 C 
ATOM     31  C   UNL     1      33.068 -22.380 -17.667  0.00  0.00    +0.062 C 
BRANCH  25  32
ATOM     32  O   UNL     1      33.105 -24.720 -13.405  0.00  0.00    -0.376 OA
ATOM     33  H   UNL     1      33.659 -25.433 -13.758  0.00  0.00    +0.211 HD
ENDBRANCH  25  32
ENDBRANCH  19  23
ENDBRANCH  18  19
ENDBRANCH   1  18
TORSDOF 5
ENDMDL
MODEL 6
REMARK VINA RESULT:     -13.6      3.546     10.330
REMARK  Name = 115237
REMARK  5 active torsions:
REMARK  status: ('A' for Active; 'I' for Inactive)
REMARK    1  A    between atoms: N_1  and  C_18
REMARK    2  A    between atoms: C_2  and  C_11
REMARK    3  A    between atoms: C_18  and  C_19
REMARK    4  A    between atoms: C_19  and  C_23
REMARK    5  A    between atoms: C_25  and  O_32
REMARK                            x       y       z     vdW  Elec       q    Type
REMARK                         _______ _______ _______ _____ _____    ______ ____
ROOT
ATOM      1  N   UNL     1      33.855 -20.074 -20.022  0.00  0.00    +0.387 N 
ATOM      2  C   UNL     1      33.905 -22.185 -17.986  0.00  0.00    +0.039 C 
ATOM      3  C   UNL     1      35.126 -21.302 -18.289  0.00  0.00    -0.017 C 
ATOM      4  C   UNL     1      32.615 -21.444 -18.376  0.00  0.00    -0.017 C 
ATOM      5  C   UNL     1      35.102 -20.798 -19.734  0.00  0.00    -0.077 C 
ATOM      6  C   UNL     1      32.682 -20.935 -19.817  0.00  0.00    -0.077 C 
ATOM      7  H   UNL     1      33.788 -19.291 -19.372  0.00  0.00    -0.080 HD
ENDROOT
BRANCH   2  11
ATOM      8  F   UNL     1      37.201 -23.630 -12.305  0.00  0.00    -0.204 F 
ATOM      9  O   UNL     1      33.047 -23.448 -14.723  0.00  0.00    -0.354 OA
ATOM     10  N   UNL     1      32.726 -23.052 -16.015  0.00  0.00    -0.081 NA
ATOM     11  C   UNL     1      33.884 -22.683 -16.558  0.00  0.00    +0.100 A 
ATOM     12  C   UNL     1      34.970 -22.816 -15.681  0.00  0.00    +0.054 A 
ATOM     13  C   UNL     1      34.387 -23.307 -14.526  0.00  0.00    +0.179 A 
ATOM     14  C   UNL     1      36.355 -22.591 -15.703  0.00  0.00    +0.007 C 
ATOM     15  C   UNL     1      35.085 -23.599 -13.358  0.00  0.00    +0.070 C 
ATOM     16  C   UNL     1      37.090 -22.876 -14.543  0.00  0.00    +0.030 C 
ATOM     17  C   UNL     1      36.463 -23.370 -13.394  0.00  0.00    +0.143 C 
ENDBRANCH   2  11
BRANCH   1  18
ATOM     18  C   UNL     1      33.873 -19.550 -21.388  0.00  0.00    -0.076 C 
BRANCH  18  19
ATOM     19  C   UNL     1      34.966 -18.500 -21.526  0.00  0.00    -0.007 C 
BRANCH  19  23
ATOM     20  O   UNL     1      34.505 -16.018 -20.354  0.00  0.00    -0.274 OA
ATOM     21  N   UNL     1      33.957 -14.939 -22.345  0.00  0.00    -0.235 N 
ATOM     22  N   UNL     1      33.795 -16.204 -24.338  0.00  0.00    -0.397 NA
ATOM     23  C   UNL     1      34.482 -17.325 -22.325  0.00  0.00    +0.123 C 
ATOM     24  C   UNL     1      33.754 -13.673 -21.635  0.00  0.00    +0.100 C 
ATOM     25  C   UNL     1      33.292 -13.850 -24.501  0.00  0.00    +0.177 C 
ATOM     26  C   UNL     1      33.777 -12.445 -22.525  0.00  0.00    +0.025 C 
ATOM     27  C   UNL     1      32.822 -12.666 -23.678  0.00  0.00    +0.040 C 
ATOM     28  C   UNL     1      33.682 -15.084 -23.694  0.00  0.00    +0.192 C 
ATOM     29  C   UNL     1      34.326 -16.043 -21.571  0.00  0.00    +0.237 C 
ATOM     30  C   UNL     1      34.196 -17.317 -23.642  0.00  0.00    +0.097 C 
ATOM     31  C   UNL     1      34.268 -18.550 -24.503  0.00  0.00    +0.062 C 
BRANCH  25  32
ATOM     32  O   UNL     1      32.259 -14.216 -25.405  0.00  0.00    -0.376 OA
ATOM     33  H   UNL     1      32.233 -13.584 -26.140  0.00  0.00    +0.211 HD
ENDBRANCH  25  32
ENDBRANCH  19  23
ENDBRANCH  18  19
ENDBRANCH   1  18
TORSDOF 5
ENDMDL
MODEL 7
REMARK VINA RESULT:     -13.0      4.607     10.538
REMARK  Name = 115237
REMARK  5 active torsions:
REMARK  status: ('A' for Active; 'I' for Inactive)
REMARK    1  A    between atoms: N_1  and  C_18
REMARK    2  A    between atoms: C_2  and  C_11
REMARK    3  A    between atoms: C_18  and  C_19
REMARK    4  A    between atoms: C_19  and  C_23
REMARK    5  A    between atoms: C_25  and  O_32
REMARK                            x       y       z     vdW  Elec       q    Type
REMARK                         _______ _______ _______ _____ _____    ______ ____
ROOT
ATOM      1  N   UNL     1      34.394 -14.608 -22.805  0.00  0.00    +0.387 N 
ATOM      2  C   UNL     1      34.222 -17.249 -21.539  0.00  0.00    +0.039 C 
ATOM      3  C   UNL     1      34.728 -17.054 -22.978  0.00  0.00    -0.017 C 
ATOM      4  C   UNL     1      34.439 -15.958 -20.731  0.00  0.00    -0.017 C 
ATOM      5  C   UNL     1      34.120 -15.803 -23.615  0.00  0.00    -0.077 C 
ATOM      6  C   UNL     1      33.842 -14.746 -21.450  0.00  0.00    -0.077 C 
ATOM      7  H   UNL     1      35.407 -14.509 -22.723  0.00  0.00    -0.080 HD
ENDROOT
BRANCH   2  11
ATOM      8  F   UNL     1      33.386 -23.203 -18.528  0.00  0.00    -0.204 F 
ATOM      9  O   UNL     1      36.360 -19.762 -20.093  0.00  0.00    -0.354 OA
ATOM     10  N   UNL     1      36.142 -18.549 -20.734  0.00  0.00    -0.081 NA
ATOM     11  C   UNL     1      34.820 -18.465 -20.869  0.00  0.00    +0.100 A 
ATOM     12  C   UNL     1      34.142 -19.574 -20.343  0.00  0.00    +0.054 A 
ATOM     13  C   UNL     1      35.165 -20.372 -19.861  0.00  0.00    +0.179 A 
ATOM     14  C   UNL     1      32.816 -20.012 -20.210  0.00  0.00    +0.007 C 
ATOM     15  C   UNL     1      34.973 -21.603 -19.241  0.00  0.00    +0.070 C 
ATOM     16  C   UNL     1      32.586 -21.247 -19.589  0.00  0.00    +0.030 C 
ATOM     17  C   UNL     1      33.647 -22.026 -19.115  0.00  0.00    +0.143 C 
ENDBRANCH   2  11
BRANCH   1  18
ATOM     18  C   UNL     1      33.857 -13.414 -23.457  0.00  0.00    -0.076 C 
BRANCH  18  19
ATOM     19  C   UNL     1      32.371 -13.282 -23.154  0.00  0.00    -0.007 C 
BRANCH  19  23
ATOM     20  O   UNL     1      32.571 -10.715 -24.211  0.00  0.00    -0.274 OA
ATOM     21  N   UNL     1      31.860  -9.630 -22.276  0.00  0.00    -0.235 N 
ATOM     22  N   UNL     1      31.487 -10.896 -20.312  0.00  0.00    -0.397 NA
ATOM     23  C   UNL     1      32.101 -12.061 -22.324  0.00  0.00    +0.123 C 
ATOM     24  C   UNL     1      31.983  -8.325 -22.929  0.00  0.00    +0.100 C 
ATOM     25  C   UNL     1      31.175  -8.509 -20.141  0.00  0.00    +0.177 C 
ATOM     26  C   UNL     1      31.225  -7.205 -22.242  0.00  0.00    +0.025 C 
ATOM     27  C   UNL     1      31.598  -7.199 -20.775  0.00  0.00    +0.040 C 
ATOM     28  C   UNL     1      31.546  -9.759 -20.933  0.00  0.00    +0.192 C 
ATOM     29  C   UNL     1      32.198 -10.751 -23.039  0.00  0.00    +0.237 C 
ATOM     30  C   UNL     1      31.766 -12.040 -21.019  0.00  0.00    +0.097 C 
ATOM     31  C   UNL     1      31.679 -13.284 -20.175  0.00  0.00    +0.062 C 
BRANCH  25  32
ATOM     32  O   UNL     1      31.765  -8.606 -18.853  0.00  0.00    -0.376 OA
ATOM     33  H   UNL     1      32.576  -9.133 -18.908  0.00  0.00    +0.211 HD
ENDBRANCH  25  32
ENDBRANCH  19  23
ENDBRANCH  18  19
ENDBRANCH   1  18
TORSDOF 5
ENDMDL
MODEL 8
REMARK VINA RESULT:     -12.8      2.390      3.735
REMARK  Name = 115237
REMARK  5 active torsions:
REMARK  status: ('A' for Active; 'I' for Inactive)
REMARK    1  A    between atoms: N_1  and  C_18
REMARK    2  A    between atoms: C_2  and  C_11
REMARK    3  A    between atoms: C_18  and  C_19
REMARK    4  A    between atoms: C_19  and  C_23
REMARK    5  A    between atoms: C_25  and  O_32
REMARK                            x       y       z     vdW  Elec       q    Type
REMARK                         _______ _______ _______ _____ _____    ______ ____
ROOT
ATOM      1  N   UNL     1      34.075 -17.297 -22.426  0.00  0.00    +0.387 N 
ATOM      2  C   UNL     1      34.087 -14.405 -22.914  0.00  0.00    +0.039 C 
ATOM      3  C   UNL     1      33.610 -15.418 -23.968  0.00  0.00    -0.017 C 
ATOM      4  C   UNL     1      33.933 -15.004 -21.506  0.00  0.00    -0.017 C 
ATOM      5  C   UNL     1      34.292 -16.775 -23.783  0.00  0.00    -0.077 C 
ATOM      6  C   UNL     1      34.603 -16.376 -21.411  0.00  0.00    -0.077 C 
ATOM      7  H   UNL     1      33.068 -17.383 -22.280  0.00  0.00    -0.080 HD
ENDROOT
BRANCH   2  11
ATOM      8  F   UNL     1      30.356  -9.489 -20.242  0.00  0.00    -0.204 F 
ATOM      9  O   UNL     1      32.810 -11.216 -24.001  0.00  0.00    -0.354 OA
ATOM     10  N   UNL     1      33.524 -12.391 -24.201  0.00  0.00    -0.081 NA
ATOM     11  C   UNL     1      33.416 -13.057 -23.053  0.00  0.00    +0.100 A 
ATOM     12  C   UNL     1      32.657 -12.375 -22.091  0.00  0.00    +0.054 A 
ATOM     13  C   UNL     1      32.294 -11.209 -22.742  0.00  0.00    +0.179 A 
ATOM     14  C   UNL     1      32.231 -12.579 -20.770  0.00  0.00    +0.007 C 
ATOM     15  C   UNL     1      31.522 -10.201 -22.172  0.00  0.00    +0.070 C 
ATOM     16  C   UNL     1      31.450 -11.584 -20.165  0.00  0.00    +0.030 C 
ATOM     17  C   UNL     1      31.104 -10.418 -20.856  0.00  0.00    +0.143 C 
ENDBRANCH   2  11
BRANCH   1  18
ATOM     18  C   UNL     1      34.684 -18.620 -22.284  0.00  0.00    -0.076 C 
BRANCH  18  19
ATOM     19  C   UNL     1      33.694 -19.579 -21.638  0.00  0.00    -0.007 C 
BRANCH  19  23
ATOM     20  O   UNL     1      32.124 -21.054 -19.875  0.00  0.00    -0.274 OA
ATOM     21  N   UNL     1      33.861 -21.549 -18.403  0.00  0.00    -0.235 N 
ATOM     22  N   UNL     1      35.990 -20.579 -18.760  0.00  0.00    -0.397 NA
ATOM     23  C   UNL     1      34.253 -20.146 -20.364  0.00  0.00    +0.123 C 
ATOM     24  C   UNL     1      32.955 -22.319 -17.548  0.00  0.00    +0.100 C 
ATOM     25  C   UNL     1      35.747 -21.979 -16.809  0.00  0.00    +0.177 C 
ATOM     26  C   UNL     1      33.650 -23.270 -16.593  0.00  0.00    +0.025 C 
ATOM     27  C   UNL     1      34.712 -22.504 -15.834  0.00  0.00    +0.040 C 
ATOM     28  C   UNL     1      35.180 -21.305 -18.054  0.00  0.00    +0.192 C 
ATOM     29  C   UNL     1      33.305 -20.958 -19.540  0.00  0.00    +0.237 C 
ATOM     30  C   UNL     1      35.515 -20.005 -19.913  0.00  0.00    +0.097 C 
ATOM     31  C   UNL     1      36.551 -19.177 -20.624  0.00  0.00    +0.062 C 
BRANCH  25  32
ATOM     32  O   UNL     1      36.577 -21.043 -16.135  0.00  0.00    -0.376 OA
ATOM     33  H   UNL     1      36.486 -20.172 -16.550  0.00  0.00    +0.211 HD
ENDBRANCH  25  32
ENDBRANCH  19  23
ENDBRANCH  18  19
ENDBRANCH   1  18
TORSDOF 5
ENDMDL
MODEL 9
REMARK VINA RESULT:     -12.7      3.084      5.193
REMARK  Name = 115237
REMARK  5 active torsions:
REMARK  status: ('A' for Active; 'I' for Inactive)
REMARK    1  A    between atoms: N_1  and  C_18
REMARK    2  A    between atoms: C_2  and  C_11
REMARK    3  A    between atoms: C_18  and  C_19
REMARK    4  A    between atoms: C_19  and  C_23
REMARK    5  A    between atoms: C_25  and  O_32
REMARK                            x       y       z     vdW  Elec       q    Type
REMARK                         _______ _______ _______ _____ _____    ______ ____
ROOT
ATOM      1  N   UNL     1      33.904 -15.755 -22.694  0.00  0.00    +0.387 N 
ATOM      2  C   UNL     1      33.218 -12.930 -22.300  0.00  0.00    +0.039 C 
ATOM      3  C   UNL     1      33.020 -13.648 -23.645  0.00  0.00    -0.017 C 
ATOM      4  C   UNL     1      33.191 -13.954 -21.153  0.00  0.00    -0.017 C 
ATOM      5  C   UNL     1      34.009 -14.803 -23.809  0.00  0.00    -0.077 C 
ATOM      6  C   UNL     1      34.175 -15.098 -21.408  0.00  0.00    -0.077 C 
ATOM      7  H   UNL     1      32.946 -16.107 -22.671  0.00  0.00    -0.080 HD
ENDROOT
BRANCH   2  11
ATOM      8  F   UNL     1      31.553  -6.479 -23.212  0.00  0.00    -0.204 F 
ATOM      9  O   UNL     1      30.450 -10.802 -21.415  0.00  0.00    -0.354 OA
ATOM     10  N   UNL     1      31.111 -12.023 -21.427  0.00  0.00    -0.081 NA
ATOM     11  C   UNL     1      32.241 -11.795 -22.094  0.00  0.00    +0.100 A 
ATOM     12  C   UNL     1      32.364 -10.468 -22.529  0.00  0.00    +0.054 A 
ATOM     13  C   UNL     1      31.199  -9.875 -22.073  0.00  0.00    +0.179 A 
ATOM     14  C   UNL     1      33.290  -9.691 -23.240  0.00  0.00    +0.007 C 
ATOM     15  C   UNL     1      30.870  -8.537 -22.272  0.00  0.00    +0.070 C 
ATOM     16  C   UNL     1      32.991  -8.339 -23.458  0.00  0.00    +0.030 C 
ATOM     17  C   UNL     1      31.803  -7.776 -22.982  0.00  0.00    +0.143 C 
ENDBRANCH   2  11
BRANCH   1  18
ATOM     18  C   UNL     1      34.815 -16.881 -22.895  0.00  0.00    -0.076 C 
BRANCH  18  19
ATOM     19  C   UNL     1      34.050 -18.193 -22.781  0.00  0.00    -0.007 C 
BRANCH  19  23
ATOM     20  O   UNL     1      32.267 -19.696 -21.261  0.00  0.00    -0.274 OA
ATOM     21  N   UNL     1      33.884 -20.554 -19.820  0.00  0.00    -0.235 N 
ATOM     22  N   UNL     1      36.115 -19.782 -19.995  0.00  0.00    -0.397 NA
ATOM     23  C   UNL     1      34.496 -18.969 -21.576  0.00  0.00    +0.123 C 
ATOM     24  C   UNL     1      32.870 -21.321 -19.093  0.00  0.00    +0.100 C 
ATOM     25  C   UNL     1      35.651 -21.377 -18.245  0.00  0.00    +0.177 C 
ATOM     26  C   UNL     1      33.424 -22.452 -18.249  0.00  0.00    +0.025 C 
ATOM     27  C   UNL     1      34.529 -21.904 -17.372  0.00  0.00    +0.040 C 
ATOM     28  C   UNL     1      35.206 -20.498 -19.409  0.00  0.00    +0.192 C 
ATOM     29  C   UNL     1      33.437 -19.770 -20.887  0.00  0.00    +0.237 C 
ATOM     30  C   UNL     1      35.747 -19.022 -21.078  0.00  0.00    +0.097 C 
ATOM     31  C   UNL     1      36.891 -18.229 -21.651  0.00  0.00    +0.062 C 
BRANCH  25  32
ATOM     32  O   UNL     1      36.546 -20.627 -17.436  0.00  0.00    -0.376 OA
ATOM     33  H   UNL     1      36.291 -20.715 -16.504  0.00  0.00    +0.211 HD
ENDBRANCH  25  32
ENDBRANCH  19  23
ENDBRANCH  18  19
ENDBRANCH   1  18
TORSDOF 5
ENDMDL
