MODEL 1
REMARK VINA RESULT:     -12.3      0.000      0.000
REMARK  Name = 91617630
REMARK  6 active torsions:
REMARK  status: ('A' for Active; 'I' for Inactive)
REMARK    1  A    between atoms: N_4  and  C_10
REMARK    2  A    between atoms: N_5  and  C_16
REMARK    3  A    between atoms: C_7  and  C_24
REMARK    4  A    between atoms: N_23  and  C_26
REMARK    5  A    between atoms: C_26  and  C_28
REMARK    6  A    between atoms: C_28  and  O_29
REMARK                            x       y       z     vdW  Elec       q    Type
REMARK                         _______ _______ _______ _____ _____    ______ ____
ROOT
ATOM      1  O   UNL     1      35.612 -22.650 -16.331  0.00  0.00    -0.252 OA
ATOM      2  O   UNL     1      31.176 -22.471 -17.703  0.00  0.00    -0.273 OA
ATOM      3  O   UNL     1      32.208 -24.266 -13.607  0.00  0.00    -0.273 OA
ATOM      4  N   UNL     1      33.404 -22.447 -17.021  0.00  0.00    -0.215 N 
ATOM      5  N   UNL     1      33.941 -23.390 -14.896  0.00  0.00    -0.215 N 
ATOM      6  C   UNL     1      34.409 -22.800 -16.092  0.00  0.00    +0.319 C 
ATOM      7  C   UNL     1      31.631 -22.758 -15.372  0.00  0.00    +0.229 C 
ATOM      8  C   UNL     1      32.025 -22.566 -16.815  0.00  0.00    +0.250 C 
ATOM      9  C   UNL     1      32.599 -23.566 -14.543  0.00  0.00    +0.250 C 
ENDROOT
BRANCH   4  10
ATOM     10  C   UNL     1      33.855 -22.015 -18.323  0.00  0.00    +0.084 C 
ATOM     11  C   UNL     1      35.258 -21.410 -18.231  0.00  0.00    +0.020 C 
ATOM     12  C   UNL     1      32.861 -21.028 -18.939  0.00  0.00    +0.020 C 
ATOM     13  C   UNL     1      33.345 -20.516 -20.295  0.00  0.00    +0.002 C 
ATOM     14  C   UNL     1      35.738 -20.896 -19.586  0.00  0.00    +0.002 C 
ATOM     15  C   UNL     1      34.744 -19.915 -20.201  0.00  0.00    +0.000 C 
ENDBRANCH   4  10
BRANCH   5  16
ATOM     16  C   UNL     1      34.947 -23.928 -14.011  0.00  0.00    +0.084 C 
ATOM     17  C   UNL     1      35.709 -25.071 -14.688  0.00  0.00    +0.020 C 
ATOM     18  C   UNL     1      35.897 -22.824 -13.545  0.00  0.00    +0.020 C 
ATOM     19  C   UNL     1      37.004 -23.374 -12.649  0.00  0.00    +0.002 C 
ATOM     20  C   UNL     1      36.815 -25.619 -13.789  0.00  0.00    +0.002 C 
ATOM     21  C   UNL     1      37.760 -24.516 -13.324  0.00  0.00    +0.000 C 
ENDBRANCH   5  16
BRANCH   7  24
ATOM     22  O   UNL     1      29.977 -24.458 -15.077  0.00  0.00    -0.274 OA
ATOM     23  N   UNL     1      29.288 -22.251 -15.354  0.00  0.00    -0.294 N 
ATOM     24  C   UNL     1      30.223 -23.265 -15.243  0.00  0.00    +0.240 C 
ATOM     25  H   UNL     1      29.609 -21.330 -15.486  0.00  0.00    +0.150 HD
BRANCH  23  26
ATOM     26  C   UNL     1      27.862 -22.479 -15.288  0.00  0.00    +0.200 C 
BRANCH  26  28
ATOM     27  O   UNL     1      26.722 -21.116 -16.911  0.00  0.00    -0.248 OA
ATOM     28  C   UNL     1      27.164 -22.214 -16.597  0.00  0.00    +0.334 C 
BRANCH  28  29
ATOM     29  O   UNL     1      27.072 -23.306 -17.392  0.00  0.00    -0.479 OA
ATOM     30  H   UNL     1      26.370 -23.915 -17.271  0.00  0.00    +0.295 HD
ENDBRANCH  28  29
ENDBRANCH  26  28
ENDBRANCH  23  26
ENDBRANCH   7  24
TORSDOF 6
ENDMDL
MODEL 2
REMARK VINA RESULT:     -12.1      1.728      6.913
REMARK  Name = 91617630
REMARK  6 active torsions:
REMARK  status: ('A' for Active; 'I' for Inactive)
REMARK    1  A    between atoms: N_4  and  C_10
REMARK    2  A    between atoms: N_5  and  C_16
REMARK    3  A    between atoms: C_7  and  C_24
REMARK    4  A    between atoms: N_23  and  C_26
REMARK    5  A    between atoms: C_26  and  C_28
REMARK    6  A    between atoms: C_28  and  O_29
REMARK                            x       y       z     vdW  Elec       q    Type
REMARK                         _______ _______ _______ _____ _____    ______ ____
ROOT
ATOM      1  O   UNL     1      31.206 -22.095 -17.201  0.00  0.00    -0.252 OA
ATOM      2  O   UNL     1      32.534 -23.911 -13.135  0.00  0.00    -0.273 OA
ATOM      3  O   UNL     1      35.698 -22.872 -16.291  0.00  0.00    -0.273 OA
ATOM      4  N   UNL     1      31.823 -22.912 -15.117  0.00  0.00    -0.215 N 
ATOM      5  N   UNL     1      33.469 -22.381 -16.762  0.00  0.00    -0.215 N 
ATOM      6  C   UNL     1      32.100 -22.420 -16.413  0.00  0.00    +0.319 C 
ATOM      7  C   UNL     1      34.170 -22.770 -14.455  0.00  0.00    +0.229 C 
ATOM      8  C   UNL     1      32.780 -23.278 -14.163  0.00  0.00    +0.250 C 
ATOM      9  C   UNL     1      34.537 -22.705 -15.917  0.00  0.00    +0.250 C 
ENDROOT
BRANCH   4  10
ATOM     10  C   UNL     1      30.434 -23.138 -14.797  0.00  0.00    +0.084 C 
ATOM     11  C   UNL     1      29.957 -24.465 -15.391  0.00  0.00    +0.020 C 
ATOM     12  C   UNL     1      29.571 -21.969 -15.279  0.00  0.00    +0.020 C 
ATOM     13  C   UNL     1      28.090 -22.213 -14.999  0.00  0.00    +0.002 C 
ATOM     14  C   UNL     1      28.475 -24.705 -15.113  0.00  0.00    +0.002 C 
ATOM     15  C   UNL     1      27.616 -23.537 -15.590  0.00  0.00    +0.000 C 
ENDBRANCH   4  10
BRANCH   5  16
ATOM     16  C   UNL     1      33.771 -22.060 -18.137  0.00  0.00    +0.084 C 
ATOM     17  C   UNL     1      32.703 -21.132 -18.723  0.00  0.00    +0.020 C 
ATOM     18  C   UNL     1      35.167 -21.444 -18.249  0.00  0.00    +0.020 C 
ATOM     19  C   UNL     1      35.492 -21.045 -19.686  0.00  0.00    +0.002 C 
ATOM     20  C   UNL     1      33.032 -20.736 -20.160  0.00  0.00    +0.002 C 
ATOM     21  C   UNL     1      34.425 -20.124 -20.270  0.00  0.00    +0.000 C 
ENDBRANCH   5  16
BRANCH   7  24
ATOM     22  O   UNL     1      35.842 -22.938 -12.756  0.00  0.00    -0.274 OA
ATOM     23  N   UNL     1      35.357 -24.812 -14.049  0.00  0.00    -0.294 N 
ATOM     24  C   UNL     1      35.208 -23.495 -13.648  0.00  0.00    +0.240 C 
ATOM     25  H   UNL     1      34.789 -25.147 -14.780  0.00  0.00    +0.150 HD
BRANCH  23  26
ATOM     26  C   UNL     1      36.309 -25.719 -13.449  0.00  0.00    +0.200 C 
BRANCH  26  28
ATOM     27  O   UNL     1      38.428 -26.593 -14.183  0.00  0.00    -0.248 OA
ATOM     28  C   UNL     1      37.265 -26.313 -14.450  0.00  0.00    +0.334 C 
BRANCH  28  29
ATOM     29  O   UNL     1      36.719 -26.507 -15.673  0.00  0.00    -0.479 OA
ATOM     30  H   UNL     1      37.267 -26.716 -16.403  0.00  0.00    +0.295 HD
ENDBRANCH  28  29
ENDBRANCH  26  28
ENDBRANCH  23  26
ENDBRANCH   7  24
TORSDOF 6
ENDMDL
MODEL 3
REMARK VINA RESULT:     -11.9      1.795      6.757
REMARK  Name = 91617630
REMARK  6 active torsions:
REMARK  status: ('A' for Active; 'I' for Inactive)
REMARK    1  A    between atoms: N_4  and  C_10
REMARK    2  A    between atoms: N_5  and  C_16
REMARK    3  A    between atoms: C_7  and  C_24
REMARK    4  A    between atoms: N_23  and  C_26
REMARK    5  A    between atoms: C_26  and  C_28
REMARK    6  A    between atoms: C_28  and  O_29
REMARK                            x       y       z     vdW  Elec       q    Type
REMARK                         _______ _______ _______ _____ _____    ______ ____
ROOT
ATOM      1  O   UNL     1      31.112 -22.031 -17.470  0.00  0.00    -0.252 OA
ATOM      2  O   UNL     1      32.261 -23.888 -13.368  0.00  0.00    -0.273 OA
ATOM      3  O   UNL     1      35.561 -22.816 -16.371  0.00  0.00    -0.273 OA
ATOM      4  N   UNL     1      31.638 -22.869 -15.369  0.00  0.00    -0.215 N 
ATOM      5  N   UNL     1      33.354 -22.321 -16.935  0.00  0.00    -0.215 N 
ATOM      6  C   UNL     1      31.971 -22.364 -16.646  0.00  0.00    +0.319 C 
ATOM      7  C   UNL     1      33.953 -22.733 -14.603  0.00  0.00    +0.229 C 
ATOM      8  C   UNL     1      32.552 -23.245 -14.377  0.00  0.00    +0.250 C 
ATOM      9  C   UNL     1      34.383 -22.653 -16.047  0.00  0.00    +0.250 C 
ENDROOT
BRANCH   4  10
ATOM     10  C   UNL     1      30.236 -23.099 -15.113  0.00  0.00    +0.084 C 
ATOM     11  C   UNL     1      29.685 -24.162 -16.066  0.00  0.00    +0.020 C 
ATOM     12  C   UNL     1      29.446 -21.793 -15.218  0.00  0.00    +0.020 C 
ATOM     13  C   UNL     1      27.951 -22.022 -15.004  0.00  0.00    +0.002 C 
ATOM     14  C   UNL     1      28.189 -24.387 -15.853  0.00  0.00    +0.002 C 
ATOM     15  C   UNL     1      27.404 -23.083 -15.953  0.00  0.00    +0.000 C 
ENDBRANCH   4  10
BRANCH   5  16
ATOM     16  C   UNL     1      33.716 -21.986 -18.291  0.00  0.00    +0.084 C 
ATOM     17  C   UNL     1      32.721 -20.985 -18.886  0.00  0.00    +0.020 C 
ATOM     18  C   UNL     1      35.147 -21.448 -18.347  0.00  0.00    +0.020 C 
ATOM     19  C   UNL     1      35.539 -21.035 -19.763  0.00  0.00    +0.002 C 
ATOM     20  C   UNL     1      33.115 -20.575 -20.302  0.00  0.00    +0.002 C 
ATOM     21  C   UNL     1      34.544 -20.041 -20.356  0.00  0.00    +0.000 C 
ENDBRANCH   5  16
BRANCH   7  24
ATOM     22  O   UNL     1      35.328 -24.603 -14.038  0.00  0.00    -0.274 OA
ATOM     23  N   UNL     1      35.362 -22.724 -12.664  0.00  0.00    -0.294 N 
ATOM     24  C   UNL     1      34.955 -23.467 -13.759  0.00  0.00    +0.240 C 
ATOM     25  H   UNL     1      34.991 -21.820 -12.546  0.00  0.00    +0.150 HD
BRANCH  23  26
ATOM     26  C   UNL     1      36.304 -23.212 -11.683  0.00  0.00    +0.200 C 
BRANCH  26  28
ATOM     27  O   UNL     1      35.953 -23.723  -9.357  0.00  0.00    -0.248 OA
ATOM     28  C   UNL     1      35.638 -23.911 -10.526  0.00  0.00    +0.334 C 
BRANCH  28  29
ATOM     29  O   UNL     1      34.659 -24.768 -10.901  0.00  0.00    -0.479 OA
ATOM     30  H   UNL     1      34.403 -25.465 -10.330  0.00  0.00    +0.295 HD
ENDBRANCH  28  29
ENDBRANCH  26  28
ENDBRANCH  23  26
ENDBRANCH   7  24
TORSDOF 6
ENDMDL
MODEL 4
REMARK VINA RESULT:     -11.8      1.878      6.265
REMARK  Name = 91617630
REMARK  6 active torsions:
REMARK  status: ('A' for Active; 'I' for Inactive)
REMARK    1  A    between atoms: N_4  and  C_10
REMARK    2  A    between atoms: N_5  and  C_16
REMARK    3  A    between atoms: C_7  and  C_24
REMARK    4  A    between atoms: N_23  and  C_26
REMARK    5  A    between atoms: C_26  and  C_28
REMARK    6  A    between atoms: C_28  and  O_29
REMARK                            x       y       z     vdW  Elec       q    Type
REMARK                         _______ _______ _______ _____ _____    ______ ____
ROOT
ATOM      1  O   UNL     1      31.280 -22.556 -17.577  0.00  0.00    -0.252 OA
ATOM      2  O   UNL     1      35.822 -22.395 -16.610  0.00  0.00    -0.273 OA
ATOM      3  O   UNL     1      32.841 -23.496 -13.300  0.00  0.00    -0.273 OA
ATOM      4  N   UNL     1      33.567 -22.557 -17.172  0.00  0.00    -0.215 N 
ATOM      5  N   UNL     1      32.016 -23.120 -15.447  0.00  0.00    -0.215 N 
ATOM      6  C   UNL     1      32.218 -22.749 -16.796  0.00  0.00    +0.319 C 
ATOM      7  C   UNL     1      34.389 -23.598 -15.121  0.00  0.00    +0.229 C 
ATOM      8  C   UNL     1      34.680 -22.776 -16.352  0.00  0.00    +0.250 C 
ATOM      9  C   UNL     1      33.024 -23.384 -14.513  0.00  0.00    +0.250 C 
ENDROOT
BRANCH   4  10
ATOM     10  C   UNL     1      33.797 -22.001 -18.483  0.00  0.00    +0.084 C 
ATOM     11  C   UNL     1      35.174 -21.336 -18.549  0.00  0.00    +0.020 C 
ATOM     12  C   UNL     1      32.685 -21.018 -18.857  0.00  0.00    +0.020 C 
ATOM     13  C   UNL     1      32.937 -20.376 -20.220  0.00  0.00    +0.002 C 
ATOM     14  C   UNL     1      35.423 -20.692 -19.911  0.00  0.00    +0.002 C 
ATOM     15  C   UNL     1      34.311 -19.715 -20.284  0.00  0.00    +0.000 C 
ENDBRANCH   4  10
BRANCH   5  16
ATOM     16  C   UNL     1      30.648 -23.143 -14.986  0.00  0.00    +0.084 C 
ATOM     17  C   UNL     1      29.832 -22.034 -15.659  0.00  0.00    +0.020 C 
ATOM     18  C   UNL     1      30.024 -24.518 -15.227  0.00  0.00    +0.020 C 
ATOM     19  C   UNL     1      28.559 -24.555 -14.798  0.00  0.00    +0.002 C 
ATOM     20  C   UNL     1      28.368 -22.074 -15.227  0.00  0.00    +0.002 C 
ATOM     21  C   UNL     1      27.748 -23.448 -15.465  0.00  0.00    +0.000 C 
ENDBRANCH   5  16
BRANCH   7  24
ATOM     22  O   UNL     1      35.593 -22.483 -13.384  0.00  0.00    -0.274 OA
ATOM     23  N   UNL     1      36.320 -24.578 -14.093  0.00  0.00    -0.294 N 
ATOM     24  C   UNL     1      35.482 -23.476 -14.099  0.00  0.00    +0.240 C 
ATOM     25  H   UNL     1      36.128 -25.316 -14.716  0.00  0.00    +0.150 HD
BRANCH  23  26
ATOM     26  C   UNL     1      37.464 -24.697 -13.218  0.00  0.00    +0.200 C 
BRANCH  26  28
ATOM     27  O   UNL     1      36.751 -26.194 -11.473  0.00  0.00    -0.248 OA
ATOM     28  C   UNL     1      37.088 -25.064 -11.806  0.00  0.00    +0.334 C 
BRANCH  28  29
ATOM     29  O   UNL     1      37.155 -24.025 -10.940  0.00  0.00    -0.479 OA
ATOM     30  H   UNL     1      36.986 -23.153 -11.241  0.00  0.00    +0.295 HD
ENDBRANCH  28  29
ENDBRANCH  26  28
ENDBRANCH  23  26
ENDBRANCH   7  24
TORSDOF 6
ENDMDL
MODEL 5
REMARK VINA RESULT:     -11.7      0.839      4.958
REMARK  Name = 91617630
REMARK  6 active torsions:
REMARK  status: ('A' for Active; 'I' for Inactive)
REMARK    1  A    between atoms: N_4  and  C_10
REMARK    2  A    between atoms: N_5  and  C_16
REMARK    3  A    between atoms: C_7  and  C_24
REMARK    4  A    between atoms: N_23  and  C_26
REMARK    5  A    between atoms: C_26  and  C_28
REMARK    6  A    between atoms: C_28  and  O_29
REMARK                            x       y       z     vdW  Elec       q    Type
REMARK                         _______ _______ _______ _____ _____    ______ ____
ROOT
ATOM      1  O   UNL     1      35.730 -23.223 -16.020  0.00  0.00    -0.252 OA
ATOM      2  O   UNL     1      32.185 -23.363 -13.018  0.00  0.00    -0.273 OA
ATOM      3  O   UNL     1      31.429 -22.068 -17.355  0.00  0.00    -0.273 OA
ATOM      4  N   UNL     1      33.978 -23.405 -14.507  0.00  0.00    -0.215 N 
ATOM      5  N   UNL     1      33.585 -22.721 -16.759  0.00  0.00    -0.215 N 
ATOM      6  C   UNL     1      34.519 -23.141 -15.785  0.00  0.00    +0.319 C 
ATOM      7  C   UNL     1      31.689 -23.359 -15.358  0.00  0.00    +0.229 C 
ATOM      8  C   UNL     1      32.620 -23.355 -14.170  0.00  0.00    +0.250 C 
ATOM      9  C   UNL     1      32.201 -22.632 -16.578  0.00  0.00    +0.250 C 
ENDROOT
BRANCH   4  10
ATOM     10  C   UNL     1      34.924 -23.655 -13.446  0.00  0.00    +0.084 C 
ATOM     11  C   UNL     1      35.879 -22.469 -13.289  0.00  0.00    +0.020 C 
ATOM     12  C   UNL     1      35.688 -24.956 -13.698  0.00  0.00    +0.020 C 
ATOM     13  C   UNL     1      36.734 -25.213 -12.615  0.00  0.00    +0.002 C 
ATOM     14  C   UNL     1      36.925 -22.729 -12.208  0.00  0.00    +0.002 C 
ATOM     15  C   UNL     1      37.684 -24.029 -12.459  0.00  0.00    +0.000 C 
ENDBRANCH   4  10
BRANCH   5  16
ATOM     16  C   UNL     1      34.131 -22.268 -18.017  0.00  0.00    +0.084 C 
ATOM     17  C   UNL     1      33.087 -21.469 -18.804  0.00  0.00    +0.020 C 
ATOM     18  C   UNL     1      35.401 -21.448 -17.786  0.00  0.00    +0.020 C 
ATOM     19  C   UNL     1      35.970 -20.911 -19.097  0.00  0.00    +0.002 C 
ATOM     20  C   UNL     1      33.659 -20.934 -20.113  0.00  0.00    +0.002 C 
ATOM     21  C   UNL     1      34.928 -20.119 -19.881  0.00  0.00    +0.000 C 
ENDBRANCH   5  16
BRANCH   7  24
ATOM     22  O   UNL     1      30.111 -22.057 -14.123  0.00  0.00    -0.274 OA
ATOM     23  N   UNL     1      29.327 -23.591 -15.688  0.00  0.00    -0.294 N 
ATOM     24  C   UNL     1      30.305 -22.914 -14.981  0.00  0.00    +0.240 C 
ATOM     25  H   UNL     1      29.607 -24.260 -16.354  0.00  0.00    +0.150 HD
BRANCH  23  26
ATOM     26  C   UNL     1      27.912 -23.366 -15.495  0.00  0.00    +0.200 C 
BRANCH  26  28
ATOM     27  O   UNL     1      27.111 -21.266 -16.355  0.00  0.00    -0.248 OA
ATOM     28  C   UNL     1      27.314 -22.460 -16.540  0.00  0.00    +0.334 C 
BRANCH  28  29
ATOM     29  O   UNL     1      27.022 -23.091 -17.701  0.00  0.00    -0.479 OA
ATOM     30  H   UNL     1      27.711 -23.457 -18.221  0.00  0.00    +0.295 HD
ENDBRANCH  28  29
ENDBRANCH  26  28
ENDBRANCH  23  26
ENDBRANCH   7  24
TORSDOF 6
ENDMDL
MODEL 6
REMARK VINA RESULT:     -11.3      1.766      2.252
REMARK  Name = 91617630
REMARK  6 active torsions:
REMARK  status: ('A' for Active; 'I' for Inactive)
REMARK    1  A    between atoms: N_4  and  C_10
REMARK    2  A    between atoms: N_5  and  C_16
REMARK    3  A    between atoms: C_7  and  C_24
REMARK    4  A    between atoms: N_23  and  C_26
REMARK    5  A    between atoms: C_26  and  C_28
REMARK    6  A    between atoms: C_28  and  O_29
REMARK                            x       y       z     vdW  Elec       q    Type
REMARK                         _______ _______ _______ _____ _____    ______ ____
ROOT
ATOM      1  O   UNL     1      36.236 -22.544 -16.644  0.00  0.00    -0.252 OA
ATOM      2  O   UNL     1      31.592 -22.520 -16.501  0.00  0.00    -0.273 OA
ATOM      3  O   UNL     1      33.961 -23.940 -12.837  0.00  0.00    -0.273 OA
ATOM      4  N   UNL     1      33.918 -22.419 -16.590  0.00  0.00    -0.215 N 
ATOM      5  N   UNL     1      35.150 -23.168 -14.688  0.00  0.00    -0.215 N 
ATOM      6  C   UNL     1      35.182 -22.682 -16.014  0.00  0.00    +0.319 C 
ATOM      7  C   UNL     1      32.789 -22.597 -14.432  0.00  0.00    +0.229 C 
ATOM      8  C   UNL     1      32.686 -22.530 -15.936  0.00  0.00    +0.250 C 
ATOM      9  C   UNL     1      34.002 -23.322 -13.903  0.00  0.00    +0.250 C 
ENDROOT
BRANCH   4  10
ATOM     10  C   UNL     1      33.906 -22.100 -17.997  0.00  0.00    +0.084 C 
ATOM     11  C   UNL     1      35.149 -21.292 -18.375  0.00  0.00    +0.020 C 
ATOM     12  C   UNL     1      32.622 -21.356 -18.372  0.00  0.00    +0.020 C 
ATOM     13  C   UNL     1      32.613 -20.960 -19.847  0.00  0.00    +0.002 C 
ATOM     14  C   UNL     1      35.136 -20.894 -19.849  0.00  0.00    +0.002 C 
ATOM     15  C   UNL     1      33.854 -20.156 -20.222  0.00  0.00    +0.000 C 
ENDBRANCH   4  10
BRANCH   5  16
ATOM     16  C   UNL     1      36.407 -23.618 -14.139  0.00  0.00    +0.084 C 
ATOM     17  C   UNL     1      36.539 -23.197 -12.672  0.00  0.00    +0.020 C 
ATOM     18  C   UNL     1      36.549 -25.133 -14.298  0.00  0.00    +0.020 C 
ATOM     19  C   UNL     1      37.846 -25.645 -13.678  0.00  0.00    +0.002 C 
ATOM     20  C   UNL     1      37.838 -23.711 -12.056  0.00  0.00    +0.002 C 
ATOM     21  C   UNL     1      37.979 -25.221 -12.219  0.00  0.00    +0.000 C 
ENDBRANCH   5  16
BRANCH   7  24
ATOM     22  O   UNL     1      30.785 -22.370 -13.150  0.00  0.00    -0.274 OA
ATOM     23  N   UNL     1      31.314 -24.449 -14.055  0.00  0.00    -0.294 N 
ATOM     24  C   UNL     1      31.519 -23.102 -13.810  0.00  0.00    +0.240 C 
ATOM     25  H   UNL     1      31.976 -24.932 -14.601  0.00  0.00    +0.150 HD
BRANCH  23  26
ATOM     26  C   UNL     1      30.177 -25.182 -13.547  0.00  0.00    +0.200 C 
BRANCH  26  28
ATOM     27  O   UNL     1      28.972 -24.512 -15.520  0.00  0.00    -0.248 OA
ATOM     28  C   UNL     1      28.955 -25.046 -14.418  0.00  0.00    +0.334 C 
BRANCH  28  29
ATOM     29  O   UNL     1      27.835 -25.569 -13.865  0.00  0.00    -0.479 OA
ATOM     30  H   UNL     1      27.242 -25.015 -13.396  0.00  0.00    +0.295 HD
ENDBRANCH  28  29
ENDBRANCH  26  28
ENDBRANCH  23  26
ENDBRANCH   7  24
TORSDOF 6
ENDMDL
MODEL 7
REMARK VINA RESULT:     -11.2      1.933      5.070
REMARK  Name = 91617630
REMARK  6 active torsions:
REMARK  status: ('A' for Active; 'I' for Inactive)
REMARK    1  A    between atoms: N_4  and  C_10
REMARK    2  A    between atoms: N_5  and  C_16
REMARK    3  A    between atoms: C_7  and  C_24
REMARK    4  A    between atoms: N_23  and  C_26
REMARK    5  A    between atoms: C_26  and  C_28
REMARK    6  A    between atoms: C_28  and  O_29
REMARK                            x       y       z     vdW  Elec       q    Type
REMARK                         _______ _______ _______ _____ _____    ______ ____
ROOT
ATOM      1  O   UNL     1      32.310 -24.434 -12.779  0.00  0.00    -0.252 OA
ATOM      2  O   UNL     1      31.738 -22.230 -16.830  0.00  0.00    -0.273 OA
ATOM      3  O   UNL     1      35.975 -22.947 -15.222  0.00  0.00    -0.273 OA
ATOM      4  N   UNL     1      31.972 -23.426 -14.844  0.00  0.00    -0.215 N 
ATOM      5  N   UNL     1      34.176 -23.790 -14.003  0.00  0.00    -0.215 N 
ATOM      6  C   UNL     1      32.785 -23.938 -13.807  0.00  0.00    +0.319 C 
ATOM      7  C   UNL     1      33.879 -23.181 -16.350  0.00  0.00    +0.229 C 
ATOM      8  C   UNL     1      32.435 -22.872 -16.043  0.00  0.00    +0.250 C 
ATOM      9  C   UNL     1      34.788 -23.266 -15.148  0.00  0.00    +0.250 C 
ENDROOT
BRANCH   4  10
ATOM     10  C   UNL     1      30.552 -23.394 -14.593  0.00  0.00    +0.084 C 
ATOM     11  C   UNL     1      29.843 -24.499 -15.380  0.00  0.00    +0.020 C 
ATOM     12  C   UNL     1      29.974 -22.016 -14.923  0.00  0.00    +0.020 C 
ATOM     13  C   UNL     1      28.461 -21.977 -14.716  0.00  0.00    +0.002 C 
ATOM     14  C   UNL     1      28.331 -24.456 -15.175  0.00  0.00    +0.002 C 
ATOM     15  C   UNL     1      27.757 -23.080 -15.501  0.00  0.00    +0.000 C 
ENDBRANCH   4  10
BRANCH   5  16
ATOM     16  C   UNL     1      35.022 -24.133 -12.885  0.00  0.00    +0.084 C 
ATOM     17  C   UNL     1      36.091 -25.147 -13.305  0.00  0.00    +0.020 C 
ATOM     18  C   UNL     1      35.653 -22.876 -12.284  0.00  0.00    +0.020 C 
ATOM     19  C   UNL     1      36.596 -23.214 -11.132  0.00  0.00    +0.002 C 
ATOM     20  C   UNL     1      37.031 -25.483 -12.150  0.00  0.00    +0.002 C 
ATOM     21  C   UNL     1      37.657 -24.227 -11.551  0.00  0.00    +0.000 C 
ENDBRANCH   5  16
BRANCH   7  24
ATOM     22  O   UNL     1      35.367 -21.504 -17.177  0.00  0.00    -0.274 OA
ATOM     23  N   UNL     1      33.755 -22.386 -18.608  0.00  0.00    -0.294 N 
ATOM     24  C   UNL     1      34.431 -22.267 -17.406  0.00  0.00    +0.240 C 
ATOM     25  H   UNL     1      33.018 -23.036 -18.669  0.00  0.00    +0.150 HD
BRANCH  23  26
ATOM     26  C   UNL     1      34.076 -21.599 -19.777  0.00  0.00    +0.200 C 
BRANCH  26  28
ATOM     27  O   UNL     1      33.551 -19.377 -20.540  0.00  0.00    -0.248 OA
ATOM     28  C   UNL     1      33.208 -20.375 -19.917  0.00  0.00    +0.334 C 
BRANCH  28  29
ATOM     29  O   UNL     1      32.014 -20.483 -19.290  0.00  0.00    -0.479 OA
ATOM     30  H   UNL     1      31.300 -19.931 -19.543  0.00  0.00    +0.295 HD
ENDBRANCH  28  29
ENDBRANCH  26  28
ENDBRANCH  23  26
ENDBRANCH   7  24
TORSDOF 6
ENDMDL
MODEL 8
REMARK VINA RESULT:     -10.6      1.777      5.478
REMARK  Name = 91617630
REMARK  6 active torsions:
REMARK  status: ('A' for Active; 'I' for Inactive)
REMARK    1  A    between atoms: N_4  and  C_10
REMARK    2  A    between atoms: N_5  and  C_16
REMARK    3  A    between atoms: C_7  and  C_24
REMARK    4  A    between atoms: N_23  and  C_26
REMARK    5  A    between atoms: C_26  and  C_28
REMARK    6  A    between atoms: C_28  and  O_29
REMARK                            x       y       z     vdW  Elec       q    Type
REMARK                         _______ _______ _______ _____ _____    ______ ____
ROOT
ATOM      1  O   UNL     1      36.189 -22.193 -17.485  0.00  0.00    -0.252 OA
ATOM      2  O   UNL     1      33.376 -23.182 -13.922  0.00  0.00    -0.273 OA
ATOM      3  O   UNL     1      31.573 -21.856 -17.928  0.00  0.00    -0.273 OA
ATOM      4  N   UNL     1      34.825 -22.793 -15.704  0.00  0.00    -0.215 N 
ATOM      5  N   UNL     1      33.887 -22.093 -17.785  0.00  0.00    -0.215 N 
ATOM      6  C   UNL     1      35.052 -22.365 -17.032  0.00  0.00    +0.319 C 
ATOM      7  C   UNL     1      32.448 -23.163 -16.126  0.00  0.00    +0.229 C 
ATOM      8  C   UNL     1      33.572 -23.031 -15.128  0.00  0.00    +0.250 C 
ATOM      9  C   UNL     1      32.571 -22.291 -17.351  0.00  0.00    +0.250 C 
ENDROOT
BRANCH   4  10
ATOM     10  C   UNL     1      35.987 -22.900 -14.855  0.00  0.00    +0.084 C 
ATOM     11  C   UNL     1      36.551 -24.323 -14.896  0.00  0.00    +0.020 C 
ATOM     12  C   UNL     1      35.652 -22.475 -13.424  0.00  0.00    +0.020 C 
ATOM     13  C   UNL     1      36.854 -22.633 -12.495  0.00  0.00    +0.002 C 
ATOM     14  C   UNL     1      37.750 -24.479 -13.964  0.00  0.00    +0.002 C 
ATOM     15  C   UNL     1      37.416 -24.051 -12.539  0.00  0.00    +0.000 C 
ENDBRANCH   4  10
BRANCH   5  16
ATOM     16  C   UNL     1      34.087 -21.481 -19.077  0.00  0.00    +0.084 C 
ATOM     17  C   UNL     1      32.911 -20.564 -19.428  0.00  0.00    +0.020 C 
ATOM     18  C   UNL     1      35.414 -20.722 -19.111  0.00  0.00    +0.020 C 
ATOM     19  C   UNL     1      35.627 -20.019 -20.449  0.00  0.00    +0.002 C 
ATOM     20  C   UNL     1      33.127 -19.863 -20.767  0.00  0.00    +0.002 C 
ATOM     21  C   UNL     1      34.453 -19.109 -20.800  0.00  0.00    +0.000 C 
ENDBRANCH   5  16
BRANCH   7  24
ATOM     22  O   UNL     1      30.833 -22.069 -14.746  0.00  0.00    -0.274 OA
ATOM     23  N   UNL     1      30.262 -24.080 -15.771  0.00  0.00    -0.294 N 
ATOM     24  C   UNL     1      31.104 -23.023 -15.472  0.00  0.00    +0.240 C 
ATOM     25  H   UNL     1      30.594 -24.789 -16.368  0.00  0.00    +0.150 HD
BRANCH  23  26
ATOM     26  C   UNL     1      28.920 -24.195 -15.247  0.00  0.00    +0.200 C 
BRANCH  26  28
ATOM     27  O   UNL     1      29.705 -24.763 -13.044  0.00  0.00    -0.248 OA
ATOM     28  C   UNL     1      28.866 -24.914 -13.924  0.00  0.00    +0.334 C 
BRANCH  28  29
ATOM     29  O   UNL     1      27.803 -25.742 -13.800  0.00  0.00    -0.479 OA
ATOM     30  H   UNL     1      27.139 -25.754 -14.461  0.00  0.00    +0.295 HD
ENDBRANCH  28  29
ENDBRANCH  26  28
ENDBRANCH  23  26
ENDBRANCH   7  24
TORSDOF 6
ENDMDL
MODEL 9
REMARK VINA RESULT:     -10.3      1.828      5.764
REMARK  Name = 91617630
REMARK  6 active torsions:
REMARK  status: ('A' for Active; 'I' for Inactive)
REMARK    1  A    between atoms: N_4  and  C_10
REMARK    2  A    between atoms: N_5  and  C_16
REMARK    3  A    between atoms: C_7  and  C_24
REMARK    4  A    between atoms: N_23  and  C_26
REMARK    5  A    between atoms: C_26  and  C_28
REMARK    6  A    between atoms: C_28  and  O_29
REMARK                            x       y       z     vdW  Elec       q    Type
REMARK                         _______ _______ _______ _____ _____    ______ ____
ROOT
ATOM      1  O   UNL     1      32.771 -24.134 -14.077  0.00  0.00    -0.252 OA
ATOM      2  O   UNL     1      30.959 -21.697 -17.594  0.00  0.00    -0.273 OA
ATOM      3  O   UNL     1      35.517 -22.028 -17.181  0.00  0.00    -0.273 OA
ATOM      4  N   UNL     1      31.815 -23.012 -15.870  0.00  0.00    -0.215 N 
ATOM      5  N   UNL     1      34.185 -23.175 -15.650  0.00  0.00    -0.215 N 
ATOM      6  C   UNL     1      32.913 -23.504 -15.130  0.00  0.00    +0.319 C 
ATOM      7  C   UNL     1      33.232 -22.420 -17.769  0.00  0.00    +0.229 C 
ATOM      8  C   UNL     1      31.895 -22.311 -17.080  0.00  0.00    +0.250 C 
ATOM      9  C   UNL     1      34.426 -22.492 -16.848  0.00  0.00    +0.250 C 
ENDROOT
BRANCH   4  10
ATOM     10  C   UNL     1      30.512 -23.170 -15.271  0.00  0.00    +0.084 C 
ATOM     11  C   UNL     1      29.729 -24.282 -15.975  0.00  0.00    +0.020 C 
ATOM     12  C   UNL     1      29.742 -21.848 -15.291  0.00  0.00    +0.020 C 
ATOM     13  C   UNL     1      28.338 -22.006 -14.710  0.00  0.00    +0.002 C 
ATOM     14  C   UNL     1      28.325 -24.436 -15.395  0.00  0.00    +0.002 C 
ATOM     15  C   UNL     1      27.561 -23.115 -15.412  0.00  0.00    +0.000 C 
ENDBRANCH   4  10
BRANCH   5  16
ATOM     16  C   UNL     1      35.321 -23.503 -14.822  0.00  0.00    +0.084 C 
ATOM     17  C   UNL     1      35.189 -22.856 -13.440  0.00  0.00    +0.020 C 
ATOM     18  C   UNL     1      35.485 -25.020 -14.713  0.00  0.00    +0.020 C 
ATOM     19  C   UNL     1      36.647 -25.397 -13.798  0.00  0.00    +0.002 C 
ATOM     20  C   UNL     1      36.354 -23.235 -12.529  0.00  0.00    +0.002 C 
ATOM     21  C   UNL     1      36.516 -24.748 -12.423  0.00  0.00    +0.000 C 
ENDBRANCH   5  16
BRANCH   7  24
ATOM     22  O   UNL     1      32.484 -20.612 -19.140  0.00  0.00    -0.274 OA
ATOM     23  N   UNL     1      34.670 -21.376 -19.377  0.00  0.00    -0.294 N 
ATOM     24  C   UNL     1      33.402 -21.365 -18.824  0.00  0.00    +0.240 C 
ATOM     25  H   UNL     1      35.324 -22.029 -19.038  0.00  0.00    +0.150 HD
BRANCH  23  26
ATOM     26  C   UNL     1      35.082 -20.475 -20.429  0.00  0.00    +0.200 C 
BRANCH  26  28
ATOM     27  O   UNL     1      36.393 -18.466 -20.624  0.00  0.00    -0.248 OA
ATOM     28  C   UNL     1      36.088 -19.453 -19.966  0.00  0.00    +0.334 C 
BRANCH  28  29
ATOM     29  O   UNL     1      36.625 -19.730 -18.754  0.00  0.00    -0.479 OA
ATOM     30  H   UNL     1      36.126 -19.578 -17.976  0.00  0.00    +0.295 HD
ENDBRANCH  28  29
ENDBRANCH  26  28
ENDBRANCH  23  26
ENDBRANCH   7  24
TORSDOF 6
ENDMDL
