MODEL 1
REMARK VINA RESULT:      -9.8      0.000      0.000
REMARK  Name = 5288011
REMARK  9 active torsions:
REMARK  status: ('A' for Active; 'I' for Inactive)
REMARK    1  A    between atoms: C_5  and  O_19
REMARK    2  A    between atoms: C_5  and  C_22
REMARK    3  A    between atoms: C_8  and  C_31
REMARK    4  A    between atoms: C_10  and  C_11
REMARK    5  A    between atoms: C_16  and  O_17
REMARK    6  A    between atoms: O_19  and  O_20
REMARK    7  A    between atoms: C_22  and  C_23
REMARK    8  A    between atoms: C_28  and  O_29
REMARK    9  A    between atoms: C_31  and  C_32
REMARK                            x       y       z     vdW  Elec       q    Type
REMARK                         _______ _______ _______ _____ _____    ______ ____
ROOT
ATOM      1  O   UNL     1      38.244 -20.727 -16.206  0.00  0.00    -0.270 OA
ATOM      2  N   UNL     1      36.175 -21.460 -17.001  0.00  0.00    -0.232 N 
ATOM      3  N   UNL     1      35.605 -23.019 -15.464  0.00  0.00    -0.220 NA
ATOM      4  N   UNL     1      33.874 -21.911 -18.459  0.00  0.00    -0.406 NA
ATOM      5  C   UNL     1      36.919 -22.436 -15.055  0.00  0.00    +0.282 C 
ATOM      6  C   UNL     1      35.311 -22.388 -16.551  0.00  0.00    +0.162 C 
ATOM      7  C   UNL     1      37.235 -21.411 -16.145  0.00  0.00    +0.281 C 
ATOM      8  C   UNL     1      34.084 -22.595 -17.374  0.00  0.00    +0.144 C 
ATOM      9  C   UNL     1      35.953 -20.749 -18.139  0.00  0.00    +0.159 C 
ATOM     10  C   UNL     1      34.822 -20.974 -18.837  0.00  0.00    +0.129 C 
ENDROOT
BRANCH  10  11
ATOM     11  C   UNL     1      34.568 -20.218 -20.084  0.00  0.00    +0.027 C 
ATOM     12  C   UNL     1      33.272 -20.121 -20.591  0.00  0.00    +0.005 C 
ATOM     13  C   UNL     1      35.626 -19.603 -20.755  0.00  0.00    +0.005 C 
ATOM     14  C   UNL     1      33.033 -19.409 -21.766  0.00  0.00    +0.037 C 
ATOM     15  C   UNL     1      35.387 -18.891 -21.931  0.00  0.00    +0.037 C 
ATOM     16  C   UNL     1      34.091 -18.793 -22.436  0.00  0.00    +0.134 C 
BRANCH  16  17
ATOM     17  O   UNL     1      33.858 -18.100 -23.583  0.00  0.00    -0.506 OA
ATOM     18  H   UNL     1      33.236 -18.421 -24.207  0.00  0.00    +0.292 HD
ENDBRANCH  16  17
ENDBRANCH  10  11
BRANCH   5  19
ATOM     19  O   UNL     1      38.012 -23.340 -14.995  0.00  0.00    -0.196 OA
BRANCH  19  20
ATOM     20  O   UNL     1      37.420 -24.663 -15.100  0.00  0.00    -0.247 OA
ATOM     21  H   UNL     1      37.952 -25.297 -14.594  0.00  0.00    +0.253 HD
ENDBRANCH  19  20
ENDBRANCH   5  19
BRANCH   5  22
ATOM     22  C   UNL     1      36.744 -21.750 -13.705  0.00  0.00    +0.090 C 
BRANCH  22  23
ATOM     23  C   UNL     1      36.247 -22.707 -12.655  0.00  0.00    -0.017 C 
ATOM     24  C   UNL     1      34.920 -23.114 -12.675  0.00  0.00    -0.001 C 
ATOM     25  C   UNL     1      37.122 -23.168 -11.682  0.00  0.00    -0.001 C 
ATOM     26  C   UNL     1      34.459 -24.000 -11.701  0.00  0.00    +0.036 C 
ATOM     27  C   UNL     1      36.660 -24.054 -10.708  0.00  0.00    +0.036 C 
ATOM     28  C   UNL     1      35.329 -24.470 -10.717  0.00  0.00    +0.134 C 
BRANCH  28  29
ATOM     29  O   UNL     1      34.878 -25.335  -9.768  0.00  0.00    -0.506 OA
ATOM     30  H   UNL     1      35.468 -25.671  -9.123  0.00  0.00    +0.292 HD
ENDBRANCH  28  29
ENDBRANCH  22  23
ENDBRANCH   5  22
BRANCH   8  31
ATOM     31  C   UNL     1      33.099 -23.624 -16.906  0.00  0.00    +0.088 C 
BRANCH  31  32
ATOM     32  C   UNL     1      32.023 -22.996 -16.071  0.00  0.00    -0.015 C 
ATOM     33  C   UNL     1      32.223 -22.825 -14.705  0.00  0.00    -0.004 C 
ATOM     34  C   UNL     1      30.835 -22.592 -16.670  0.00  0.00    -0.004 C 
ATOM     35  C   UNL     1      31.221 -22.242 -13.928  0.00  0.00    -0.000 C 
ATOM     36  C   UNL     1      29.833 -22.010 -15.892  0.00  0.00    -0.000 C 
ATOM     37  C   UNL     1      30.027 -21.834 -14.522  0.00  0.00    -0.000 C 
ENDBRANCH  31  32
ENDBRANCH   8  31
TORSDOF 9
ENDMDL
MODEL 2
REMARK VINA RESULT:      -9.6      3.239      7.774
REMARK  Name = 5288011
REMARK  9 active torsions:
REMARK  status: ('A' for Active; 'I' for Inactive)
REMARK    1  A    between atoms: C_5  and  O_19
REMARK    2  A    between atoms: C_5  and  C_22
REMARK    3  A    between atoms: C_8  and  C_31
REMARK    4  A    between atoms: C_10  and  C_11
REMARK    5  A    between atoms: C_16  and  O_17
REMARK    6  A    between atoms: O_19  and  O_20
REMARK    7  A    between atoms: C_22  and  C_23
REMARK    8  A    between atoms: C_28  and  O_29
REMARK    9  A    between atoms: C_31  and  C_32
REMARK                            x       y       z     vdW  Elec       q    Type
REMARK                         _______ _______ _______ _____ _____    ______ ____
ROOT
ATOM      1  O   UNL     1      31.699 -24.572 -12.448  0.00  0.00    -0.270 OA
ATOM      2  N   UNL     1      32.814 -23.924 -14.394  0.00  0.00    -0.232 N 
ATOM      3  N   UNL     1      31.097 -23.521 -15.810  0.00  0.00    -0.220 NA
ATOM      4  N   UNL     1      34.685 -23.314 -16.332  0.00  0.00    -0.406 NA
ATOM      5  C   UNL     1      30.516 -23.924 -14.493  0.00  0.00    +0.282 C 
ATOM      6  C   UNL     1      32.372 -23.562 -15.612  0.00  0.00    +0.162 C 
ATOM      7  C   UNL     1      31.734 -24.188 -13.606  0.00  0.00    +0.281 C 
ATOM      8  C   UNL     1      33.421 -23.244 -16.624  0.00  0.00    +0.144 C 
ATOM      9  C   UNL     1      34.139 -24.000 -14.094  0.00  0.00    +0.159 C 
ATOM     10  C   UNL     1      35.041 -23.692 -15.047  0.00  0.00    +0.129 C 
ENDROOT
BRANCH  10  11
ATOM     11  C   UNL     1      36.487 -23.780 -14.743  0.00  0.00    +0.027 C 
ATOM     12  C   UNL     1      36.929 -24.538 -13.658  0.00  0.00    +0.005 C 
ATOM     13  C   UNL     1      37.410 -23.104 -15.541  0.00  0.00    +0.005 C 
ATOM     14  C   UNL     1      38.292 -24.620 -13.372  0.00  0.00    +0.037 C 
ATOM     15  C   UNL     1      38.774 -23.186 -15.255  0.00  0.00    +0.037 C 
ATOM     16  C   UNL     1      39.214 -23.944 -14.171  0.00  0.00    +0.134 C 
BRANCH  16  17
ATOM     17  O   UNL     1      40.543 -24.023 -13.891  0.00  0.00    -0.506 OA
ATOM     18  H   UNL     1      40.846 -24.596 -13.213  0.00  0.00    +0.292 HD
ENDBRANCH  16  17
ENDBRANCH  10  11
BRANCH   5  19
ATOM     19  O   UNL     1      29.727 -25.104 -14.492  0.00  0.00    -0.196 OA
BRANCH  19  20
ATOM     20  O   UNL     1      29.080 -25.130 -13.190  0.00  0.00    -0.247 OA
ATOM     21  H   UNL     1      29.699 -24.810 -12.515  0.00  0.00    +0.253 HD
ENDBRANCH  19  20
ENDBRANCH   5  19
BRANCH   5  22
ATOM     22  C   UNL     1      29.698 -22.759 -13.949  0.00  0.00    +0.090 C 
BRANCH  22  23
ATOM     23  C   UNL     1      28.596 -22.364 -14.896  0.00  0.00    -0.017 C 
ATOM     24  C   UNL     1      28.826 -22.392 -16.263  0.00  0.00    -0.001 C 
ATOM     25  C   UNL     1      27.365 -21.974 -14.386  0.00  0.00    -0.001 C 
ATOM     26  C   UNL     1      27.806 -22.025 -17.141  0.00  0.00    +0.036 C 
ATOM     27  C   UNL     1      26.344 -21.606 -15.263  0.00  0.00    +0.036 C 
ATOM     28  C   UNL     1      26.565 -21.632 -16.640  0.00  0.00    +0.134 C 
BRANCH  28  29
ATOM     29  O   UNL     1      25.569 -21.275 -17.497  0.00  0.00    -0.506 OA
ATOM     30  H   UNL     1      24.895 -21.887 -17.711  0.00  0.00    +0.292 HD
ENDBRANCH  28  29
ENDBRANCH  22  23
ENDBRANCH   5  22
BRANCH   8  31
ATOM     31  C   UNL     1      32.966 -22.841 -17.993  0.00  0.00    +0.088 C 
BRANCH  31  32
ATOM     32  C   UNL     1      33.922 -21.864 -18.611  0.00  0.00    -0.015 C 
ATOM     33  C   UNL     1      35.217 -21.760 -18.114  0.00  0.00    -0.004 C 
ATOM     34  C   UNL     1      33.505 -21.070 -19.674  0.00  0.00    -0.004 C 
ATOM     35  C   UNL     1      36.106 -20.851 -18.688  0.00  0.00    -0.000 C 
ATOM     36  C   UNL     1      34.394 -20.161 -20.247  0.00  0.00    -0.000 C 
ATOM     37  C   UNL     1      35.695 -20.051 -19.755  0.00  0.00    -0.000 C 
ENDBRANCH  31  32
ENDBRANCH   8  31
TORSDOF 9
ENDMDL
MODEL 3
REMARK VINA RESULT:      -8.7      2.421      8.415
REMARK  Name = 5288011
REMARK  9 active torsions:
REMARK  status: ('A' for Active; 'I' for Inactive)
REMARK    1  A    between atoms: C_5  and  O_19
REMARK    2  A    between atoms: C_5  and  C_22
REMARK    3  A    between atoms: C_8  and  C_31
REMARK    4  A    between atoms: C_10  and  C_11
REMARK    5  A    between atoms: C_16  and  O_17
REMARK    6  A    between atoms: O_19  and  O_20
REMARK    7  A    between atoms: C_22  and  C_23
REMARK    8  A    between atoms: C_28  and  O_29
REMARK    9  A    between atoms: C_31  and  C_32
REMARK                            x       y       z     vdW  Elec       q    Type
REMARK                         _______ _______ _______ _____ _____    ______ ____
ROOT
ATOM      1  O   UNL     1      32.995 -21.128 -19.769  0.00  0.00    -0.270 OA
ATOM      2  N   UNL     1      33.986 -21.853 -17.784  0.00  0.00    -0.232 N 
ATOM      3  N   UNL     1      36.171 -21.396 -18.154  0.00  0.00    -0.220 NA
ATOM      4  N   UNL     1      34.527 -22.916 -15.293  0.00  0.00    -0.406 NA
ATOM      5  C   UNL     1      35.402 -20.948 -19.355  0.00  0.00    +0.282 C 
ATOM      6  C   UNL     1      35.265 -21.873 -17.367  0.00  0.00    +0.162 C 
ATOM      7  C   UNL     1      33.950 -21.302 -19.030  0.00  0.00    +0.281 C 
ATOM      8  C   UNL     1      35.505 -22.457 -16.016  0.00  0.00    +0.144 C 
ATOM      9  C   UNL     1      32.965 -22.336 -17.026  0.00  0.00    +0.159 C 
ATOM     10  C   UNL     1      33.242 -22.846 -15.809  0.00  0.00    +0.129 C 
ENDROOT
BRANCH  10  11
ATOM     11  C   UNL     1      32.147 -23.388 -14.975  0.00  0.00    +0.027 C 
ATOM     12  C   UNL     1      32.440 -24.120 -13.825  0.00  0.00    +0.005 C 
ATOM     13  C   UNL     1      30.818 -23.166 -15.339  0.00  0.00    +0.005 C 
ATOM     14  C   UNL     1      31.407 -24.631 -13.039  0.00  0.00    +0.037 C 
ATOM     15  C   UNL     1      29.784 -23.677 -14.553  0.00  0.00    +0.037 C 
ATOM     16  C   UNL     1      30.079 -24.409 -13.403  0.00  0.00    +0.134 C 
BRANCH  16  17
ATOM     17  O   UNL     1      29.071 -24.908 -12.637  0.00  0.00    -0.506 OA
ATOM     18  H   UNL     1      28.236 -25.089 -13.021  0.00  0.00    +0.292 HD
ENDBRANCH  16  17
ENDBRANCH  10  11
BRANCH   5  19
ATOM     19  O   UNL     1      35.730 -21.585 -20.580  0.00  0.00    -0.196 OA
BRANCH  19  20
ATOM     20  O   UNL     1      34.986 -22.834 -20.572  0.00  0.00    -0.247 OA
ATOM     21  H   UNL     1      34.468 -22.897 -19.754  0.00  0.00    +0.253 HD
ENDBRANCH  19  20
ENDBRANCH   5  19
BRANCH   5  22
ATOM     22  C   UNL     1      35.569 -19.440 -19.500  0.00  0.00    +0.090 C 
BRANCH  22  23
ATOM     23  C   UNL     1      35.106 -18.956 -20.848  0.00  0.00    -0.017 C 
ATOM     24  C   UNL     1      35.856 -18.007 -21.528  0.00  0.00    -0.001 C 
ATOM     25  C   UNL     1      33.935 -19.465 -21.391  0.00  0.00    -0.001 C 
ATOM     26  C   UNL     1      35.428 -17.558 -22.777  0.00  0.00    +0.036 C 
ATOM     27  C   UNL     1      33.506 -19.016 -22.641  0.00  0.00    +0.036 C 
ATOM     28  C   UNL     1      34.252 -18.062 -23.333  0.00  0.00    +0.134 C 
BRANCH  28  29
ATOM     29  O   UNL     1      33.835 -17.624 -24.552  0.00  0.00    -0.506 OA
ATOM     30  H   UNL     1      34.435 -17.596 -25.270  0.00  0.00    +0.292 HD
ENDBRANCH  28  29
ENDBRANCH  22  23
ENDBRANCH   5  22
BRANCH   8  31
ATOM     31  C   UNL     1      36.918 -22.501 -15.519  0.00  0.00    +0.088 C 
BRANCH  31  32
ATOM     32  C   UNL     1      37.039 -23.401 -14.324  0.00  0.00    -0.015 C 
ATOM     33  C   UNL     1      37.220 -24.768 -14.506  0.00  0.00    -0.004 C 
ATOM     34  C   UNL     1      36.969 -22.860 -13.045  0.00  0.00    -0.004 C 
ATOM     35  C   UNL     1      37.332 -25.604 -13.395  0.00  0.00    -0.000 C 
ATOM     36  C   UNL     1      37.080 -23.696 -11.934  0.00  0.00    -0.000 C 
ATOM     37  C   UNL     1      37.262 -25.068 -12.109  0.00  0.00    -0.000 C 
ENDBRANCH  31  32
ENDBRANCH   8  31
TORSDOF 9
ENDMDL
MODEL 4
REMARK VINA RESULT:      -8.4      2.560      8.582
REMARK  Name = 5288011
REMARK  9 active torsions:
REMARK  status: ('A' for Active; 'I' for Inactive)
REMARK    1  A    between atoms: C_5  and  O_19
REMARK    2  A    between atoms: C_5  and  C_22
REMARK    3  A    between atoms: C_8  and  C_31
REMARK    4  A    between atoms: C_10  and  C_11
REMARK    5  A    between atoms: C_16  and  O_17
REMARK    6  A    between atoms: O_19  and  O_20
REMARK    7  A    between atoms: C_22  and  C_23
REMARK    8  A    between atoms: C_28  and  O_29
REMARK    9  A    between atoms: C_31  and  C_32
REMARK                            x       y       z     vdW  Elec       q    Type
REMARK                         _______ _______ _______ _____ _____    ______ ____
ROOT
ATOM      1  O   UNL     1      32.624 -20.619 -20.223  0.00  0.00    -0.270 OA
ATOM      2  N   UNL     1      33.787 -21.434 -18.369  0.00  0.00    -0.232 N 
ATOM      3  N   UNL     1      35.918 -20.853 -18.857  0.00  0.00    -0.220 NA
ATOM      4  N   UNL     1      34.551 -22.642 -16.007  0.00  0.00    -0.406 NA
ATOM      5  C   UNL     1      35.046 -20.358 -19.966  0.00  0.00    +0.282 C 
ATOM      6  C   UNL     1      35.093 -21.424 -18.045  0.00  0.00    +0.162 C 
ATOM      7  C   UNL     1      33.638 -20.800 -19.567  0.00  0.00    +0.281 C 
ATOM      8  C   UNL     1      35.455 -22.090 -16.760  0.00  0.00    +0.144 C 
ATOM      9  C   UNL     1      32.845 -22.015 -17.578  0.00  0.00    +0.159 C 
ATOM     10  C   UNL     1      33.231 -22.595 -16.425  0.00  0.00    +0.129 C 
ENDROOT
BRANCH  10  11
ATOM     11  C   UNL     1      32.222 -23.243 -15.557  0.00  0.00    +0.027 C 
ATOM     12  C   UNL     1      32.609 -23.826 -14.350  0.00  0.00    +0.005 C 
ATOM     13  C   UNL     1      30.882 -23.272 -15.946  0.00  0.00    +0.005 C 
ATOM     14  C   UNL     1      31.657 -24.437 -13.533  0.00  0.00    +0.037 C 
ATOM     15  C   UNL     1      29.930 -23.883 -15.129  0.00  0.00    +0.037 C 
ATOM     16  C   UNL     1      30.318 -24.465 -13.922  0.00  0.00    +0.134 C 
BRANCH  16  17
ATOM     17  O   UNL     1      29.390 -25.062 -13.125  0.00  0.00    -0.506 OA
ATOM     18  H   UNL     1      29.559 -25.169 -12.210  0.00  0.00    +0.292 HD
ENDBRANCH  16  17
ENDBRANCH  10  11
BRANCH   5  19
ATOM     19  O   UNL     1      35.309 -20.894 -21.254  0.00  0.00    -0.196 OA
BRANCH  19  20
ATOM     20  O   UNL     1      35.444 -22.327 -21.052  0.00  0.00    -0.247 OA
ATOM     21  H   UNL     1      35.230 -22.545 -20.132  0.00  0.00    +0.253 HD
ENDBRANCH  19  20
ENDBRANCH   5  19
BRANCH   5  22
ATOM     22  C   UNL     1      35.141 -18.838 -20.012  0.00  0.00    +0.090 C 
BRANCH  22  23
ATOM     23  C   UNL     1      34.743 -18.297 -21.359  0.00  0.00    -0.017 C 
ATOM     24  C   UNL     1      34.244 -19.161 -22.323  0.00  0.00    -0.001 C 
ATOM     25  C   UNL     1      34.882 -16.941 -21.618  0.00  0.00    -0.001 C 
ATOM     26  C   UNL     1      33.877 -18.660 -23.572  0.00  0.00    +0.036 C 
ATOM     27  C   UNL     1      34.515 -16.439 -22.868  0.00  0.00    +0.036 C 
ATOM     28  C   UNL     1      34.013 -17.299 -23.844  0.00  0.00    +0.134 C 
BRANCH  28  29
ATOM     29  O   UNL     1      33.653 -16.810 -25.062  0.00  0.00    -0.506 OA
ATOM     30  H   UNL     1      32.995 -16.147 -25.125  0.00  0.00    +0.292 HD
ENDBRANCH  28  29
ENDBRANCH  22  23
ENDBRANCH   5  22
BRANCH   8  31
ATOM     31  C   UNL     1      36.901 -22.104 -16.368  0.00  0.00    +0.088 C 
BRANCH  31  32
ATOM     32  C   UNL     1      37.096 -22.810 -15.059  0.00  0.00    -0.015 C 
ATOM     33  C   UNL     1      38.151 -23.703 -14.907  0.00  0.00    -0.004 C 
ATOM     34  C   UNL     1      36.218 -22.566 -14.008  0.00  0.00    -0.004 C 
ATOM     35  C   UNL     1      38.331 -24.359 -13.690  0.00  0.00    -0.000 C 
ATOM     36  C   UNL     1      36.398 -23.223 -12.791  0.00  0.00    -0.000 C 
ATOM     37  C   UNL     1      37.455 -24.120 -12.632  0.00  0.00    -0.000 C 
ENDBRANCH  31  32
ENDBRANCH   8  31
TORSDOF 9
ENDMDL
MODEL 5
REMARK VINA RESULT:      -8.3      3.331      6.548
REMARK  Name = 5288011
REMARK  9 active torsions:
REMARK  status: ('A' for Active; 'I' for Inactive)
REMARK    1  A    between atoms: C_5  and  O_19
REMARK    2  A    between atoms: C_5  and  C_22
REMARK    3  A    between atoms: C_8  and  C_31
REMARK    4  A    between atoms: C_10  and  C_11
REMARK    5  A    between atoms: C_16  and  O_17
REMARK    6  A    between atoms: O_19  and  O_20
REMARK    7  A    between atoms: C_22  and  C_23
REMARK    8  A    between atoms: C_28  and  O_29
REMARK    9  A    between atoms: C_31  and  C_32
REMARK                            x       y       z     vdW  Elec       q    Type
REMARK                         _______ _______ _______ _____ _____    ______ ____
ROOT
ATOM      1  O   UNL     1      30.212 -21.706 -14.400  0.00  0.00    -0.270 OA
ATOM      2  N   UNL     1      32.180 -22.830 -14.962  0.00  0.00    -0.232 N 
ATOM      3  N   UNL     1      32.201 -24.522 -13.461  0.00  0.00    -0.220 NA
ATOM      4  N   UNL     1      34.578 -23.644 -16.064  0.00  0.00    -0.406 NA
ATOM      5  C   UNL     1      30.958 -23.724 -13.230  0.00  0.00    +0.282 C 
ATOM      6  C   UNL     1      32.778 -23.918 -14.445  0.00  0.00    +0.162 C 
ATOM      7  C   UNL     1      31.028 -22.604 -14.269  0.00  0.00    +0.281 C 
ATOM      8  C   UNL     1      34.071 -24.317 -15.074  0.00  0.00    +0.144 C 
ATOM      9  C   UNL     1      32.715 -22.127 -15.997  0.00  0.00    +0.159 C 
ATOM     10  C   UNL     1      33.882 -22.540 -16.530  0.00  0.00    +0.129 C 
ENDROOT
BRANCH  10  11
ATOM     11  C   UNL     1      34.486 -21.781 -17.648  0.00  0.00    +0.027 C 
ATOM     12  C   UNL     1      35.827 -21.403 -17.593  0.00  0.00    +0.005 C 
ATOM     13  C   UNL     1      33.712 -21.442 -18.759  0.00  0.00    +0.005 C 
ATOM     14  C   UNL     1      36.395 -20.687 -18.647  0.00  0.00    +0.037 C 
ATOM     15  C   UNL     1      34.280 -20.727 -19.814  0.00  0.00    +0.037 C 
ATOM     16  C   UNL     1      35.622 -20.350 -19.758  0.00  0.00    +0.134 C 
BRANCH  16  17
ATOM     17  O   UNL     1      36.176 -19.651 -20.786  0.00  0.00    -0.506 OA
ATOM     18  H   UNL     1      37.005 -19.228 -20.671  0.00  0.00    +0.292 HD
ENDBRANCH  16  17
ENDBRANCH  10  11
BRANCH   5  19
ATOM     19  O   UNL     1      30.836 -23.113 -11.955  0.00  0.00    -0.196 OA
BRANCH  19  20
ATOM     20  O   UNL     1      31.863 -22.085 -11.924  0.00  0.00    -0.247 OA
ATOM     21  H   UNL     1      32.457 -22.244 -11.173  0.00  0.00    +0.253 HD
ENDBRANCH  19  20
ENDBRANCH   5  19
BRANCH   5  22
ATOM     22  C   UNL     1      29.754 -24.622 -13.488  0.00  0.00    +0.090 C 
BRANCH  22  23
ATOM     23  C   UNL     1      28.908 -24.107 -14.621  0.00  0.00    -0.017 C 
ATOM     24  C   UNL     1      29.043 -24.667 -15.884  0.00  0.00    -0.001 C 
ATOM     25  C   UNL     1      28.007 -23.078 -14.388  0.00  0.00    -0.001 C 
ATOM     26  C   UNL     1      28.260 -24.189 -16.935  0.00  0.00    +0.036 C 
ATOM     27  C   UNL     1      27.224 -22.600 -15.439  0.00  0.00    +0.036 C 
ATOM     28  C   UNL     1      27.351 -23.155 -16.712  0.00  0.00    +0.134 C 
BRANCH  28  29
ATOM     29  O   UNL     1      26.586 -22.690 -17.738  0.00  0.00    -0.506 OA
ATOM     30  H   UNL     1      26.981 -22.200 -18.431  0.00  0.00    +0.292 HD
ENDBRANCH  28  29
ENDBRANCH  22  23
ENDBRANCH   5  22
BRANCH   8  31
ATOM     31  C   UNL     1      34.771 -25.521 -14.521  0.00  0.00    +0.088 C 
BRANCH  31  32
ATOM     32  C   UNL     1      36.103 -25.149 -13.941  0.00  0.00    -0.015 C 
ATOM     33  C   UNL     1      36.160 -24.396 -12.773  0.00  0.00    -0.004 C 
ATOM     34  C   UNL     1      37.270 -25.561 -14.576  0.00  0.00    -0.004 C 
ATOM     35  C   UNL     1      37.399 -24.050 -12.234  0.00  0.00    -0.000 C 
ATOM     36  C   UNL     1      38.509 -25.213 -14.037  0.00  0.00    -0.000 C 
ATOM     37  C   UNL     1      38.573 -24.458 -12.866  0.00  0.00    -0.000 C 
ENDBRANCH  31  32
ENDBRANCH   8  31
TORSDOF 9
ENDMDL
MODEL 6
REMARK VINA RESULT:      -7.4     10.780     15.947
REMARK  Name = 5288011
REMARK  9 active torsions:
REMARK  status: ('A' for Active; 'I' for Inactive)
REMARK    1  A    between atoms: C_5  and  O_19
REMARK    2  A    between atoms: C_5  and  C_22
REMARK    3  A    between atoms: C_8  and  C_31
REMARK    4  A    between atoms: C_10  and  C_11
REMARK    5  A    between atoms: C_16  and  O_17
REMARK    6  A    between atoms: O_19  and  O_20
REMARK    7  A    between atoms: C_22  and  C_23
REMARK    8  A    between atoms: C_28  and  O_29
REMARK    9  A    between atoms: C_31  and  C_32
REMARK                            x       y       z     vdW  Elec       q    Type
REMARK                         _______ _______ _______ _____ _____    ______ ____
ROOT
ATOM      1  O   UNL     1      35.699  -8.879 -24.646  0.00  0.00    -0.270 OA
ATOM      2  N   UNL     1      33.854  -9.952 -23.699  0.00  0.00    -0.232 N 
ATOM      3  N   UNL     1      32.604  -8.204 -22.992  0.00  0.00    -0.220 NA
ATOM      4  N   UNL     1      32.031 -11.781 -22.722  0.00  0.00    -0.406 NA
ATOM      5  C   UNL     1      33.824  -7.652 -23.656  0.00  0.00    +0.282 C 
ATOM      6  C   UNL     1      32.751  -9.483 -23.089  0.00  0.00    +0.162 C 
ATOM      7  C   UNL     1      34.613  -8.889 -24.089  0.00  0.00    +0.281 C 
ATOM      8  C   UNL     1      31.797 -10.511 -22.578  0.00  0.00    +0.144 C 
ATOM      9  C   UNL     1      34.097 -11.283 -23.845  0.00  0.00    +0.159 C 
ATOM     10  C   UNL     1      33.195 -12.165 -23.369  0.00  0.00    +0.129 C 
ENDROOT
BRANCH  10  11
ATOM     11  C   UNL     1      33.446 -13.616 -23.508  0.00  0.00    +0.027 C 
ATOM     12  C   UNL     1      33.086 -14.280 -24.681  0.00  0.00    +0.005 C 
ATOM     13  C   UNL     1      34.043 -14.324 -22.463  0.00  0.00    +0.005 C 
ATOM     14  C   UNL     1      33.323 -15.648 -24.810  0.00  0.00    +0.037 C 
ATOM     15  C   UNL     1      34.280 -15.693 -22.593  0.00  0.00    +0.037 C 
ATOM     16  C   UNL     1      33.920 -16.355 -23.767  0.00  0.00    +0.134 C 
BRANCH  16  17
ATOM     17  O   UNL     1      34.150 -17.690 -23.893  0.00  0.00    -0.506 OA
ATOM     18  H   UNL     1      34.096 -18.247 -23.141  0.00  0.00    +0.292 HD
ENDBRANCH  16  17
ENDBRANCH  10  11
BRANCH   5  19
ATOM     19  O   UNL     1      34.680  -6.868 -22.839  0.00  0.00    -0.196 OA
BRANCH  19  20
ATOM     20  O   UNL     1      33.873  -6.493 -21.689  0.00  0.00    -0.247 OA
ATOM     21  H   UNL     1      34.081  -5.582 -21.432  0.00  0.00    +0.253 HD
ENDBRANCH  19  20
ENDBRANCH   5  19
BRANCH   5  22
ATOM     22  C   UNL     1      33.387  -6.841 -24.870  0.00  0.00    +0.090 C 
BRANCH  22  23
ATOM     23  C   UNL     1      32.486  -5.699 -24.480  0.00  0.00    -0.017 C 
ATOM     24  C   UNL     1      33.000  -4.412 -24.419  0.00  0.00    -0.001 C 
ATOM     25  C   UNL     1      31.153  -5.952 -24.187  0.00  0.00    -0.001 C 
ATOM     26  C   UNL     1      32.166  -3.355 -24.058  0.00  0.00    +0.036 C 
ATOM     27  C   UNL     1      30.318  -4.894 -23.825  0.00  0.00    +0.036 C 
ATOM     28  C   UNL     1      30.824  -3.596 -23.760  0.00  0.00    +0.134 C 
BRANCH  28  29
ATOM     29  O   UNL     1      30.010  -2.564 -23.408  0.00  0.00    -0.506 OA
ATOM     30  H   UNL     1      30.379  -1.736 -23.173  0.00  0.00    +0.292 HD
ENDBRANCH  28  29
ENDBRANCH  22  23
ENDBRANCH   5  22
BRANCH   8  31
ATOM     31  C   UNL     1      30.558 -10.027 -21.888  0.00  0.00    +0.088 C 
BRANCH  31  32
ATOM     32  C   UNL     1      30.896  -9.328 -20.604  0.00  0.00    -0.015 C 
ATOM     33  C   UNL     1      30.949  -7.939 -20.569  0.00  0.00    -0.004 C 
ATOM     34  C   UNL     1      31.155 -10.077 -19.461  0.00  0.00    -0.004 C 
ATOM     35  C   UNL     1      31.264  -7.290 -19.375  0.00  0.00    -0.000 C 
ATOM     36  C   UNL     1      31.471  -9.428 -18.268  0.00  0.00    -0.000 C 
ATOM     37  C   UNL     1      31.525  -8.035 -18.224  0.00  0.00    -0.000 C 
ENDBRANCH  31  32
ENDBRANCH   8  31
TORSDOF 9
ENDMDL
MODEL 7
REMARK VINA RESULT:      -7.2      1.730      2.522
REMARK  Name = 5288011
REMARK  9 active torsions:
REMARK  status: ('A' for Active; 'I' for Inactive)
REMARK    1  A    between atoms: C_5  and  O_19
REMARK    2  A    between atoms: C_5  and  C_22
REMARK    3  A    between atoms: C_8  and  C_31
REMARK    4  A    between atoms: C_10  and  C_11
REMARK    5  A    between atoms: C_16  and  O_17
REMARK    6  A    between atoms: O_19  and  O_20
REMARK    7  A    between atoms: C_22  and  C_23
REMARK    8  A    between atoms: C_28  and  O_29
REMARK    9  A    between atoms: C_31  and  C_32
REMARK                            x       y       z     vdW  Elec       q    Type
REMARK                         _______ _______ _______ _____ _____    ______ ____
ROOT
ATOM      1  O   UNL     1      36.432 -23.596 -15.355  0.00  0.00    -0.270 OA
ATOM      2  N   UNL     1      34.417 -22.987 -16.366  0.00  0.00    -0.232 N 
ATOM      3  N   UNL     1      32.904 -24.116 -15.119  0.00  0.00    -0.220 NA
ATOM      4  N   UNL     1      32.446 -21.950 -17.999  0.00  0.00    -0.406 NA
ATOM      5  C   UNL     1      34.259 -24.397 -14.555  0.00  0.00    +0.282 C 
ATOM      6  C   UNL     1      33.140 -23.325 -16.111  0.00  0.00    +0.162 C 
ATOM      7  C   UNL     1      35.215 -23.613 -15.455  0.00  0.00    +0.281 C 
ATOM      8  C   UNL     1      32.112 -22.740 -17.021  0.00  0.00    +0.144 C 
ATOM      9  C   UNL     1      34.762 -22.163 -17.392  0.00  0.00    +0.159 C 
ATOM     10  C   UNL     1      33.789 -21.658 -18.176  0.00  0.00    +0.129 C 
ENDROOT
BRANCH  10  11
ATOM     11  C   UNL     1      34.145 -20.769 -19.305  0.00  0.00    +0.027 C 
ATOM     12  C   UNL     1      33.143 -20.214 -20.101  0.00  0.00    +0.005 C 
ATOM     13  C   UNL     1      35.485 -20.487 -19.573  0.00  0.00    +0.005 C 
ATOM     14  C   UNL     1      33.480 -19.377 -21.164  0.00  0.00    +0.037 C 
ATOM     15  C   UNL     1      35.822 -19.649 -20.637  0.00  0.00    +0.037 C 
ATOM     16  C   UNL     1      34.820 -19.093 -21.433  0.00  0.00    +0.134 C 
BRANCH  16  17
ATOM     17  O   UNL     1      35.148 -18.277 -22.470  0.00  0.00    -0.506 OA
ATOM     18  H   UNL     1      34.520 -18.099 -23.143  0.00  0.00    +0.292 HD
ENDBRANCH  16  17
ENDBRANCH  10  11
BRANCH   5  19
ATOM     19  O   UNL     1      34.676 -25.754 -14.574  0.00  0.00    -0.196 OA
BRANCH  19  20
ATOM     20  O   UNL     1      35.576 -25.861 -15.711  0.00  0.00    -0.247 OA
ATOM     21  H   UNL     1      36.316 -25.246 -15.596  0.00  0.00    +0.253 HD
ENDBRANCH  19  20
ENDBRANCH   5  19
BRANCH   5  22
ATOM     22  C   UNL     1      34.308 -23.865 -13.127  0.00  0.00    +0.090 C 
BRANCH  22  23
ATOM     23  C   UNL     1      35.723 -23.653 -12.660  0.00  0.00    -0.017 C 
ATOM     24  C   UNL     1      36.190 -22.363 -12.455  0.00  0.00    -0.001 C 
ATOM     25  C   UNL     1      36.542 -24.753 -12.442  0.00  0.00    -0.001 C 
ATOM     26  C   UNL     1      37.501 -22.166 -12.023  0.00  0.00    +0.036 C 
ATOM     27  C   UNL     1      37.854 -24.556 -12.011  0.00  0.00    +0.036 C 
ATOM     28  C   UNL     1      38.333 -23.264 -11.801  0.00  0.00    +0.134 C 
BRANCH  28  29
ATOM     29  O   UNL     1      39.613 -23.071 -11.379  0.00  0.00    -0.506 OA
ATOM     30  H   UNL     1      40.146 -22.416 -11.782  0.00  0.00    +0.292 HD
ENDBRANCH  28  29
ENDBRANCH  22  23
ENDBRANCH   5  22
BRANCH   8  31
ATOM     31  C   UNL     1      30.679 -23.097 -16.772  0.00  0.00    +0.088 C 
BRANCH  31  32
ATOM     32  C   UNL     1      30.434 -23.345 -15.313  0.00  0.00    -0.015 C 
ATOM     33  C   UNL     1      30.736 -22.354 -14.384  0.00  0.00    -0.004 C 
ATOM     34  C   UNL     1      29.906 -24.564 -14.901  0.00  0.00    -0.004 C 
ATOM     35  C   UNL     1      30.509 -22.586 -13.028  0.00  0.00    -0.000 C 
ATOM     36  C   UNL     1      29.680 -24.796 -13.544  0.00  0.00    -0.000 C 
ATOM     37  C   UNL     1      29.981 -23.807 -12.608  0.00  0.00    -0.000 C 
ENDBRANCH  31  32
ENDBRANCH   8  31
TORSDOF 9
ENDMDL
