MODEL 1
REMARK VINA RESULT:     -14.7      0.000      0.000
REMARK  Name = 25049750
REMARK  7 active torsions:
REMARK  status: ('A' for Active; 'I' for Inactive)
REMARK    1  A    between atoms: C_1  and  C_14
REMARK    2  A    between atoms: C_6  and  O_20
REMARK    3  A    between atoms: C_10  and  C_17
REMARK    4  A    between atoms: C_17  and  O_18
REMARK    5  A    between atoms: O_20  and  C_21
REMARK    6  A    between atoms: C_21  and  C_23
REMARK    7  A    between atoms: C_27  and  C_32
REMARK                            x       y       z     vdW  Elec       q    Type
REMARK                         _______ _______ _______ _____ _____    ______ ____
ROOT
ATOM      1  C   UNL     1      34.438 -19.587 -21.320  0.00  0.00    -0.004 C 
ATOM      2  C   UNL     1      33.050 -19.554 -21.175  0.00  0.00    +0.000 C 
ATOM      3  C   UNL     1      35.219 -20.274 -20.391  0.00  0.00    +0.000 C 
ATOM      4  C   UNL     1      32.446 -20.208 -20.101  0.00  0.00    +0.037 C 
ATOM      5  C   UNL     1      34.614 -20.927 -19.318  0.00  0.00    +0.037 C 
ATOM      6  C   UNL     1      33.227 -20.895 -19.173  0.00  0.00    +0.139 C 
ENDROOT
BRANCH   1  14
ATOM      7  O   UNL     1      33.068 -17.128 -24.823  0.00  0.00    -0.275 OA
ATOM      8  N   UNL     1      34.206 -18.794 -23.634  0.00  0.00    -0.302 N 
ATOM      9  C   UNL     1      34.514 -16.636 -22.999  0.00  0.00    +0.081 C 
ATOM     10  C   UNL     1      33.760 -15.528 -22.349  0.00  0.00    +0.108 C 
ATOM     11  C   UNL     1      34.840 -15.230 -23.356  0.00  0.00    +0.021 C 
ATOM     12  C   UNL     1      35.481 -17.416 -22.185  0.00  0.00    +0.033 C 
ATOM     13  C   UNL     1      33.826 -17.501 -23.941  0.00  0.00    +0.222 C 
ATOM     14  C   UNL     1      35.093 -18.879 -22.485  0.00  0.00    +0.095 C 
ATOM     15  H   UNL     1      33.905 -19.580 -24.144  0.00  0.00    +0.150 HD
BRANCH  10  17
ATOM     16  O   UNL     1      34.047 -13.941 -20.646  0.00  0.00    -0.250 OA
ATOM     17  C   UNL     1      34.082 -15.111 -21.001  0.00  0.00    +0.314 C 
BRANCH  17  18
ATOM     18  O   UNL     1      34.417 -16.150 -20.198  0.00  0.00    -0.480 OA
ATOM     19  H   UNL     1      35.264 -16.181 -19.800  0.00  0.00    +0.295 HD
ENDBRANCH  17  18
ENDBRANCH  10  17
ENDBRANCH   1  14
BRANCH   6  20
ATOM     20  O   UNL     1      32.633 -21.537 -18.118  0.00  0.00    -0.471 OA
BRANCH  20  21
ATOM     21  C   UNL     1      33.129 -22.829 -17.792  0.00  0.00    +0.229 C 
BRANCH  21  23
ATOM     22  N   UNL     1      33.292 -23.294 -13.542  0.00  0.00    -0.406 NA
ATOM     23  C   UNL     1      33.149 -22.987 -16.304  0.00  0.00    +0.012 C 
ATOM     24  C   UNL     1      31.980 -22.939 -15.532  0.00  0.00    +0.096 C 
ATOM     25  C   UNL     1      34.380 -23.189 -15.696  0.00  0.00    +0.028 C 
ATOM     26  C   UNL     1      32.100 -23.099 -14.135  0.00  0.00    +0.117 C 
ATOM     27  C   UNL     1      34.396 -23.335 -14.323  0.00  0.00    +0.130 C 
ATOM     28  C   UNL     1      30.719 -22.737 -16.118  0.00  0.00    -0.015 C 
ATOM     29  C   UNL     1      30.939 -23.050 -13.370  0.00  0.00    +0.028 C 
ATOM     30  C   UNL     1      29.574 -22.693 -15.328  0.00  0.00    -0.004 C 
ATOM     31  C   UNL     1      29.685 -22.850 -13.952  0.00  0.00    +0.002 C 
BRANCH  27  32
ATOM     32  C   UNL     1      35.635 -23.547 -13.613  0.00  0.00    +0.030 C 
ATOM     33  C   UNL     1      36.596 -24.415 -14.131  0.00  0.00    +0.003 C 
ATOM     34  C   UNL     1      35.871 -22.884 -12.409  0.00  0.00    +0.003 C 
ATOM     35  C   UNL     1      37.794 -24.620 -13.445  0.00  0.00    +0.000 C 
ATOM     36  C   UNL     1      37.069 -23.088 -11.723  0.00  0.00    +0.000 C 
ATOM     37  C   UNL     1      38.029 -23.957 -12.241  0.00  0.00    +0.000 C 
ENDBRANCH  27  32
ENDBRANCH  21  23
ENDBRANCH  20  21
ENDBRANCH   6  20
TORSDOF 7
ENDMDL
MODEL 2
REMARK VINA RESULT:     -14.2      1.060      4.122
REMARK  Name = 25049750
REMARK  7 active torsions:
REMARK  status: ('A' for Active; 'I' for Inactive)
REMARK    1  A    between atoms: C_1  and  C_14
REMARK    2  A    between atoms: C_6  and  O_20
REMARK    3  A    between atoms: C_10  and  C_17
REMARK    4  A    between atoms: C_17  and  O_18
REMARK    5  A    between atoms: O_20  and  C_21
REMARK    6  A    between atoms: C_21  and  C_23
REMARK    7  A    between atoms: C_27  and  C_32
REMARK                            x       y       z     vdW  Elec       q    Type
REMARK                         _______ _______ _______ _____ _____    ______ ____
ROOT
ATOM      1  C   UNL     1      34.809 -19.075 -21.690  0.00  0.00    -0.004 C 
ATOM      2  C   UNL     1      33.455 -19.341 -21.482  0.00  0.00    +0.000 C 
ATOM      3  C   UNL     1      35.764 -19.604 -20.822  0.00  0.00    +0.000 C 
ATOM      4  C   UNL     1      33.057 -20.135 -20.407  0.00  0.00    +0.037 C 
ATOM      5  C   UNL     1      35.366 -20.398 -19.747  0.00  0.00    +0.037 C 
ATOM      6  C   UNL     1      34.012 -20.665 -19.539  0.00  0.00    +0.139 C 
ENDROOT
BRANCH   1  14
ATOM      7  O   UNL     1      32.771 -16.615 -24.849  0.00  0.00    -0.275 OA
ATOM      8  N   UNL     1      34.233 -18.180 -23.904  0.00  0.00    -0.302 N 
ATOM      9  C   UNL     1      34.327 -16.043 -23.142  0.00  0.00    +0.081 C 
ATOM     10  C   UNL     1      33.509 -15.089 -22.341  0.00  0.00    +0.108 C 
ATOM     11  C   UNL     1      34.429 -14.586 -23.423  0.00  0.00    +0.021 C 
ATOM     12  C   UNL     1      35.466 -16.733 -22.486  0.00  0.00    +0.033 C 
ATOM     13  C   UNL     1      33.660 -16.934 -24.076  0.00  0.00    +0.222 C 
ATOM     14  C   UNL     1      35.240 -18.215 -22.856  0.00  0.00    +0.095 C 
ATOM     15  H   UNL     1      33.984 -18.967 -24.440  0.00  0.00    +0.150 HD
BRANCH  10  17
ATOM     16  O   UNL     1      34.234 -15.538 -20.157  0.00  0.00    -0.250 OA
ATOM     17  C   UNL     1      33.916 -14.716 -21.003  0.00  0.00    +0.314 C 
BRANCH  17  18
ATOM     18  O   UNL     1      33.902 -13.375 -20.808  0.00  0.00    -0.480 OA
ATOM     19  H   UNL     1      34.523 -12.979 -20.229  0.00  0.00    +0.295 HD
ENDBRANCH  17  18
ENDBRANCH  10  17
ENDBRANCH   1  14
BRANCH   6  20
ATOM     20  O   UNL     1      33.621 -21.445 -18.483  0.00  0.00    -0.471 OA
BRANCH  20  21
ATOM     21  C   UNL     1      34.650 -21.940 -17.637  0.00  0.00    +0.229 C 
BRANCH  21  23
ATOM     22  N   UNL     1      32.791 -23.640 -14.178  0.00  0.00    -0.406 NA
ATOM     23  C   UNL     1      34.033 -22.536 -16.410  0.00  0.00    +0.012 C 
ATOM     24  C   UNL     1      34.791 -22.866 -15.278  0.00  0.00    +0.096 C 
ATOM     25  C   UNL     1      32.663 -22.757 -16.422  0.00  0.00    +0.028 C 
ATOM     26  C   UNL     1      34.120 -23.424 -14.169  0.00  0.00    +0.117 C 
ATOM     27  C   UNL     1      32.096 -23.307 -15.289  0.00  0.00    +0.130 C 
ATOM     28  C   UNL     1      36.180 -22.654 -15.235  0.00  0.00    -0.015 C 
ATOM     29  C   UNL     1      34.874 -23.752 -13.046  0.00  0.00    +0.028 C 
ATOM     30  C   UNL     1      36.908 -22.991 -14.099  0.00  0.00    -0.004 C 
ATOM     31  C   UNL     1      36.254 -23.541 -13.002  0.00  0.00    +0.002 C 
BRANCH  27  32
ATOM     32  C   UNL     1      30.679 -23.570 -15.220  0.00  0.00    +0.030 C 
ATOM     33  C   UNL     1      30.201 -24.619 -14.433  0.00  0.00    +0.003 C 
ATOM     34  C   UNL     1      29.786 -22.776 -15.939  0.00  0.00    +0.003 C 
ATOM     35  C   UNL     1      28.831 -24.872 -14.366  0.00  0.00    +0.000 C 
ATOM     36  C   UNL     1      28.416 -23.029 -15.871  0.00  0.00    +0.000 C 
ATOM     37  C   UNL     1      27.939 -24.078 -15.085  0.00  0.00    +0.000 C 
ENDBRANCH  27  32
ENDBRANCH  21  23
ENDBRANCH  20  21
ENDBRANCH   6  20
TORSDOF 7
ENDMDL
MODEL 3
REMARK VINA RESULT:     -13.2      5.821     10.756
REMARK  Name = 25049750
REMARK  7 active torsions:
REMARK  status: ('A' for Active; 'I' for Inactive)
REMARK    1  A    between atoms: C_1  and  C_14
REMARK    2  A    between atoms: C_6  and  O_20
REMARK    3  A    between atoms: C_10  and  C_17
REMARK    4  A    between atoms: C_17  and  O_18
REMARK    5  A    between atoms: O_20  and  C_21
REMARK    6  A    between atoms: C_21  and  C_23
REMARK    7  A    between atoms: C_27  and  C_32
REMARK                            x       y       z     vdW  Elec       q    Type
REMARK                         _______ _______ _______ _____ _____    ______ ____
ROOT
ATOM      1  C   UNL     1      31.132  -9.098 -21.374  0.00  0.00    -0.004 C 
ATOM      2  C   UNL     1      31.165  -9.558 -20.057  0.00  0.00    +0.000 C 
ATOM      3  C   UNL     1      31.487  -9.951 -22.419  0.00  0.00    +0.000 C 
ATOM      4  C   UNL     1      31.554 -10.870 -19.786  0.00  0.00    +0.037 C 
ATOM      5  C   UNL     1      31.875 -11.263 -22.147  0.00  0.00    +0.037 C 
ATOM      6  C   UNL     1      31.908 -11.723 -20.831  0.00  0.00    +0.139 C 
ENDROOT
BRANCH   1  14
ATOM      7  O   UNL     1      32.513  -4.985 -20.205  0.00  0.00    -0.275 OA
ATOM      8  N   UNL     1      31.050  -6.775 -20.579  0.00  0.00    -0.302 N 
ATOM      9  C   UNL     1      32.322  -6.060 -22.319  0.00  0.00    +0.081 C 
ATOM     10  C   UNL     1      33.747  -6.055 -22.753  0.00  0.00    +0.108 C 
ATOM     11  C   UNL     1      32.816  -4.948 -23.172  0.00  0.00    +0.021 C 
ATOM     12  C   UNL     1      31.400  -7.066 -22.906  0.00  0.00    +0.033 C 
ATOM     13  C   UNL     1      32.009  -5.839 -20.917  0.00  0.00    +0.222 C 
ATOM     14  C   UNL     1      30.710  -7.676 -21.668  0.00  0.00    +0.095 C 
ATOM     15  H   UNL     1      30.637  -6.825 -19.687  0.00  0.00    +0.150 HD
BRANCH  10  17
ATOM     16  O   UNL     1      34.193  -6.522 -25.007  0.00  0.00    -0.250 OA
ATOM     17  C   UNL     1      34.187  -6.898 -23.844  0.00  0.00    +0.314 C 
BRANCH  17  18
ATOM     18  O   UNL     1      34.583  -8.126 -23.428  0.00  0.00    -0.480 OA
ATOM     19  H   UNL     1      34.545  -8.348 -22.519  0.00  0.00    +0.295 HD
ENDBRANCH  17  18
ENDBRANCH  10  17
ENDBRANCH   1  14
BRANCH   6  20
ATOM     20  O   UNL     1      32.289 -13.012 -20.564  0.00  0.00    -0.471 OA
BRANCH  20  21
ATOM     21  C   UNL     1      33.674 -13.307 -20.681  0.00  0.00    +0.229 C 
BRANCH  21  23
ATOM     22  N   UNL     1      34.196 -16.859 -23.009  0.00  0.00    -0.406 NA
ATOM     23  C   UNL     1      33.847 -14.531 -21.526  0.00  0.00    +0.012 C 
ATOM     24  C   UNL     1      33.636 -14.517 -22.911  0.00  0.00    +0.096 C 
ATOM     25  C   UNL     1      34.232 -15.702 -20.889  0.00  0.00    +0.028 C 
ATOM     26  C   UNL     1      33.824 -15.720 -23.624  0.00  0.00    +0.117 C 
ATOM     27  C   UNL     1      34.391 -16.829 -21.671  0.00  0.00    +0.130 C 
ATOM     28  C   UNL     1      33.247 -13.346 -23.585  0.00  0.00    -0.015 C 
ATOM     29  C   UNL     1      33.613 -15.706 -24.999  0.00  0.00    +0.028 C 
ATOM     30  C   UNL     1      33.043 -13.361 -24.961  0.00  0.00    -0.004 C 
ATOM     31  C   UNL     1      33.227 -14.542 -25.669  0.00  0.00    +0.002 C 
BRANCH  27  32
ATOM     32  C   UNL     1      34.788 -18.088 -21.087  0.00  0.00    +0.030 C 
ATOM     33  C   UNL     1      33.825 -19.052 -20.785  0.00  0.00    +0.003 C 
ATOM     34  C   UNL     1      36.134 -18.342 -20.825  0.00  0.00    +0.003 C 
ATOM     35  C   UNL     1      34.208 -20.269 -20.222  0.00  0.00    +0.000 C 
ATOM     36  C   UNL     1      36.517 -19.560 -20.261  0.00  0.00    +0.000 C 
ATOM     37  C   UNL     1      35.554 -20.522 -19.959  0.00  0.00    +0.000 C 
ENDBRANCH  27  32
ENDBRANCH  21  23
ENDBRANCH  20  21
ENDBRANCH   6  20
TORSDOF 7
ENDMDL
MODEL 4
REMARK VINA RESULT:     -12.3      6.582     13.539
REMARK  Name = 25049750
REMARK  7 active torsions:
REMARK  status: ('A' for Active; 'I' for Inactive)
REMARK    1  A    between atoms: C_1  and  C_14
REMARK    2  A    between atoms: C_6  and  O_20
REMARK    3  A    between atoms: C_10  and  C_17
REMARK    4  A    between atoms: C_17  and  O_18
REMARK    5  A    between atoms: O_20  and  C_21
REMARK    6  A    between atoms: C_21  and  C_23
REMARK    7  A    between atoms: C_27  and  C_32
REMARK                            x       y       z     vdW  Elec       q    Type
REMARK                         _______ _______ _______ _____ _____    ______ ____
ROOT
ATOM      1  C   UNL     1      34.141 -14.947 -21.835  0.00  0.00    -0.004 C 
ATOM      2  C   UNL     1      33.610 -14.533 -20.612  0.00  0.00    +0.000 C 
ATOM      3  C   UNL     1      33.817 -14.259 -23.004  0.00  0.00    +0.000 C 
ATOM      4  C   UNL     1      32.756 -13.432 -20.560  0.00  0.00    +0.037 C 
ATOM      5  C   UNL     1      32.962 -13.158 -22.951  0.00  0.00    +0.037 C 
ATOM      6  C   UNL     1      32.432 -12.743 -21.730  0.00  0.00    +0.139 C 
ENDROOT
BRANCH   1  14
ATOM      7  O   UNL     1      33.962 -19.270 -20.622  0.00  0.00    -0.275 OA
ATOM      8  N   UNL     1      34.792 -17.090 -20.825  0.00  0.00    -0.302 N 
ATOM      9  C   UNL     1      34.293 -18.219 -22.731  0.00  0.00    +0.081 C 
ATOM     10  C   UNL     1      33.101 -18.720 -23.471  0.00  0.00    +0.108 C 
ATOM     11  C   UNL     1      34.418 -19.444 -23.564  0.00  0.00    +0.021 C 
ATOM     12  C   UNL     1      34.942 -16.965 -23.189  0.00  0.00    +0.033 C 
ATOM     13  C   UNL     1      34.310 -18.302 -21.281  0.00  0.00    +0.222 C 
ATOM     14  C   UNL     1      35.068 -16.140 -21.890  0.00  0.00    +0.095 C 
ATOM     15  H   UNL     1      34.936 -16.890 -19.872  0.00  0.00    +0.150 HD
BRANCH  10  17
ATOM     16  O   UNL     1      33.213 -17.080 -25.143  0.00  0.00    -0.250 OA
ATOM     17  C   UNL     1      32.685 -18.093 -24.707  0.00  0.00    +0.314 C 
BRANCH  17  18
ATOM     18  O   UNL     1      31.666 -18.751 -25.310  0.00  0.00    -0.480 OA
ATOM     19  H   UNL     1      31.747 -19.664 -25.505  0.00  0.00    +0.295 HD
ENDBRANCH  17  18
ENDBRANCH  10  17
ENDBRANCH   1  14
BRANCH   6  20
ATOM     20  O   UNL     1      31.592 -11.662 -21.678  0.00  0.00    -0.471 OA
BRANCH  20  21
ATOM     21  C   UNL     1      31.485 -10.877 -22.858  0.00  0.00    +0.229 C 
BRANCH  21  23
ATOM     22  N   UNL     1      32.162  -6.745 -21.976  0.00  0.00    -0.406 NA
ATOM     23  C   UNL     1      31.712  -9.438 -22.514  0.00  0.00    +0.012 C 
ATOM     24  C   UNL     1      31.528  -8.942 -21.216  0.00  0.00    +0.096 C 
ATOM     25  C   UNL     1      32.120  -8.590 -23.534  0.00  0.00    +0.028 C 
ATOM     26  C   UNL     1      31.767  -7.570 -20.988  0.00  0.00    +0.117 C 
ATOM     27  C   UNL     1      32.329  -7.263 -23.214  0.00  0.00    +0.130 C 
ATOM     28  C   UNL     1      31.117  -9.776 -20.161  0.00  0.00    -0.015 C 
ATOM     29  C   UNL     1      31.583  -7.079 -19.699  0.00  0.00    +0.028 C 
ATOM     30  C   UNL     1      30.940  -9.258 -18.882  0.00  0.00    -0.004 C 
ATOM     31  C   UNL     1      31.174  -7.907 -18.651  0.00  0.00    +0.002 C 
BRANCH  27  32
ATOM     32  C   UNL     1      32.753  -6.315 -24.217  0.00  0.00    +0.030 C 
ATOM     33  C   UNL     1      33.841  -5.477 -23.969  0.00  0.00    +0.003 C 
ATOM     34  C   UNL     1      32.075  -6.235 -25.433  0.00  0.00    +0.003 C 
ATOM     35  C   UNL     1      34.251  -4.561 -24.938  0.00  0.00    +0.000 C 
ATOM     36  C   UNL     1      32.485  -5.319 -26.402  0.00  0.00    +0.000 C 
ATOM     37  C   UNL     1      33.573  -4.482 -26.154  0.00  0.00    +0.000 C 
ENDBRANCH  27  32
ENDBRANCH  21  23
ENDBRANCH  20  21
ENDBRANCH   6  20
TORSDOF 7
ENDMDL
MODEL 5
REMARK VINA RESULT:     -11.9      3.428     11.012
REMARK  Name = 25049750
REMARK  7 active torsions:
REMARK  status: ('A' for Active; 'I' for Inactive)
REMARK    1  A    between atoms: C_1  and  C_14
REMARK    2  A    between atoms: C_6  and  O_20
REMARK    3  A    between atoms: C_10  and  C_17
REMARK    4  A    between atoms: C_17  and  O_18
REMARK    5  A    between atoms: O_20  and  C_21
REMARK    6  A    between atoms: C_21  and  C_23
REMARK    7  A    between atoms: C_27  and  C_32
REMARK                            x       y       z     vdW  Elec       q    Type
REMARK                         _______ _______ _______ _____ _____    ______ ____
ROOT
ATOM      1  C   UNL     1      35.204 -20.145 -20.101  0.00  0.00    -0.004 C 
ATOM      2  C   UNL     1      36.275 -19.267 -20.276  0.00  0.00    +0.000 C 
ATOM      3  C   UNL     1      33.916 -19.755 -20.468  0.00  0.00    +0.000 C 
ATOM      4  C   UNL     1      36.057 -18.000 -20.816  0.00  0.00    +0.037 C 
ATOM      5  C   UNL     1      33.699 -18.488 -21.009  0.00  0.00    +0.037 C 
ATOM      6  C   UNL     1      34.769 -17.610 -21.184  0.00  0.00    +0.139 C 
ENDROOT
BRANCH   1  14
ATOM      7  O   UNL     1      35.710 -21.890 -15.992  0.00  0.00    -0.275 OA
ATOM      8  N   UNL     1      36.151 -21.453 -18.249  0.00  0.00    -0.302 N 
ATOM      9  C   UNL     1      34.112 -22.294 -17.708  0.00  0.00    +0.081 C 
ATOM     10  C   UNL     1      32.862 -21.875 -17.016  0.00  0.00    +0.108 C 
ATOM     11  C   UNL     1      33.295 -23.317 -17.005  0.00  0.00    +0.021 C 
ATOM     12  C   UNL     1      34.142 -22.290 -19.193  0.00  0.00    +0.033 C 
ATOM     13  C   UNL     1      35.394 -21.870 -17.171  0.00  0.00    +0.222 C 
ATOM     14  C   UNL     1      35.441 -21.519 -19.516  0.00  0.00    +0.095 C 
ATOM     15  H   UNL     1      37.081 -21.142 -18.167  0.00  0.00    +0.150 HD
BRANCH  10  17
ATOM     16  O   UNL     1      31.620 -20.902 -18.751  0.00  0.00    -0.250 OA
ATOM     17  C   UNL     1      31.651 -21.630 -17.769  0.00  0.00    +0.314 C 
BRANCH  17  18
ATOM     18  O   UNL     1      30.580 -22.291 -17.266  0.00  0.00    -0.480 OA
ATOM     19  H   UNL     1      30.583 -23.227 -17.227  0.00  0.00    +0.295 HD
ENDBRANCH  17  18
ENDBRANCH  10  17
ENDBRANCH   1  14
BRANCH   6  20
ATOM     20  O   UNL     1      34.555 -16.365 -21.716  0.00  0.00    -0.471 OA
BRANCH  20  21
ATOM     21  C   UNL     1      34.122 -15.352 -20.819  0.00  0.00    +0.229 C 
BRANCH  21  23
ATOM     22  N   UNL     1      32.300 -12.125 -22.958  0.00  0.00    -0.406 NA
ATOM     23  C   UNL     1      33.491 -14.241 -21.600  0.00  0.00    +0.012 C 
ATOM     24  C   UNL     1      33.382 -14.278 -22.997  0.00  0.00    +0.096 C 
ATOM     25  C   UNL     1      33.006 -13.152 -20.890  0.00  0.00    +0.028 C 
ATOM     26  C   UNL     1      32.771 -13.184 -23.644  0.00  0.00    +0.117 C 
ATOM     27  C   UNL     1      32.425 -12.128 -21.612  0.00  0.00    +0.130 C 
ATOM     28  C   UNL     1      33.862 -15.368 -23.743  0.00  0.00    -0.015 C 
ATOM     29  C   UNL     1      32.664 -13.221 -25.031  0.00  0.00    +0.028 C 
ATOM     30  C   UNL     1      33.742 -15.378 -25.129  0.00  0.00    -0.004 C 
ATOM     31  C   UNL     1      33.141 -14.304 -25.774  0.00  0.00    +0.002 C 
BRANCH  27  32
ATOM     32  C   UNL     1      31.897 -10.959 -20.950  0.00  0.00    +0.030 C 
ATOM     33  C   UNL     1      31.458  -9.870 -21.704  0.00  0.00    +0.003 C 
ATOM     34  C   UNL     1      31.825 -10.918 -19.558  0.00  0.00    +0.003 C 
ATOM     35  C   UNL     1      30.946  -8.740 -21.065  0.00  0.00    +0.000 C 
ATOM     36  C   UNL     1      31.313  -9.788 -18.919  0.00  0.00    +0.000 C 
ATOM     37  C   UNL     1      30.875  -8.699 -19.673  0.00  0.00    +0.000 C 
ENDBRANCH  27  32
ENDBRANCH  21  23
ENDBRANCH  20  21
ENDBRANCH   6  20
TORSDOF 7
ENDMDL
MODEL 6
REMARK VINA RESULT:     -11.7      4.736      9.121
REMARK  Name = 25049750
REMARK  7 active torsions:
REMARK  status: ('A' for Active; 'I' for Inactive)
REMARK    1  A    between atoms: C_1  and  C_14
REMARK    2  A    between atoms: C_6  and  O_20
REMARK    3  A    between atoms: C_10  and  C_17
REMARK    4  A    between atoms: C_17  and  O_18
REMARK    5  A    between atoms: O_20  and  C_21
REMARK    6  A    between atoms: C_21  and  C_23
REMARK    7  A    between atoms: C_27  and  C_32
REMARK                            x       y       z     vdW  Elec       q    Type
REMARK                         _______ _______ _______ _____ _____    ______ ____
ROOT
ATOM      1  C   UNL     1      31.619 -11.279 -21.583  0.00  0.00    -0.004 C 
ATOM      2  C   UNL     1      31.774 -12.295 -20.639  0.00  0.00    +0.000 C 
ATOM      3  C   UNL     1      32.332 -11.326 -22.781  0.00  0.00    +0.000 C 
ATOM      4  C   UNL     1      32.643 -13.356 -20.894  0.00  0.00    +0.037 C 
ATOM      5  C   UNL     1      33.201 -12.387 -23.035  0.00  0.00    +0.037 C 
ATOM      6  C   UNL     1      33.356 -13.403 -22.092  0.00  0.00    +0.139 C 
ENDROOT
BRANCH   1  14
ATOM      7  O   UNL     1      31.695  -7.528 -19.111  0.00  0.00    -0.275 OA
ATOM      8  N   UNL     1      30.903  -9.546 -19.995  0.00  0.00    -0.302 N 
ATOM      9  C   UNL     1      31.448  -7.890 -21.450  0.00  0.00    +0.081 C 
ATOM     10  C   UNL     1      32.656  -7.183 -21.960  0.00  0.00    +0.108 C 
ATOM     11  C   UNL     1      31.332  -6.470 -21.876  0.00  0.00    +0.021 C 
ATOM     12  C   UNL     1      30.832  -8.948 -22.289  0.00  0.00    +0.033 C 
ATOM     13  C   UNL     1      31.382  -8.251 -20.044  0.00  0.00    +0.222 C 
ATOM     14  C   UNL     1      30.676 -10.130 -21.307  0.00  0.00    +0.095 C 
ATOM     15  H   UNL     1      30.732 -10.027 -19.153  0.00  0.00    +0.150 HD
BRANCH  10  17
ATOM     16  O   UNL     1      32.681  -6.783 -24.270  0.00  0.00    -0.250 OA
ATOM     17  C   UNL     1      33.120  -7.403 -23.313  0.00  0.00    +0.314 C 
BRANCH  17  18
ATOM     18  O   UNL     1      34.081  -8.357 -23.387  0.00  0.00    -0.480 OA
ATOM     19  H   UNL     1      34.805  -8.340 -22.793  0.00  0.00    +0.295 HD
ENDBRANCH  17  18
ENDBRANCH  10  17
ENDBRANCH   1  14
BRANCH   6  20
ATOM     20  O   UNL     1      34.209 -14.446 -22.342  0.00  0.00    -0.471 OA
BRANCH  20  21
ATOM     21  C   UNL     1      34.566 -15.261 -21.235  0.00  0.00    +0.229 C 
BRANCH  21  23
ATOM     22  N   UNL     1      33.980 -19.398 -22.158  0.00  0.00    -0.406 NA
ATOM     23  C   UNL     1      34.352 -16.699 -21.592  0.00  0.00    +0.012 C 
ATOM     24  C   UNL     1      33.959 -17.098 -22.877  0.00  0.00    +0.096 C 
ATOM     25  C   UNL     1      34.557 -17.646 -20.599  0.00  0.00    +0.028 C 
ATOM     26  C   UNL     1      33.782 -18.477 -23.119  0.00  0.00    +0.117 C 
ATOM     27  C   UNL     1      34.359 -18.971 -20.931  0.00  0.00    +0.130 C 
ATOM     28  C   UNL     1      33.743 -16.163 -23.904  0.00  0.00    -0.015 C 
ATOM     29  C   UNL     1      33.391 -18.872 -24.395  0.00  0.00    +0.028 C 
ATOM     30  C   UNL     1      33.353 -16.587 -25.171  0.00  0.00    -0.004 C 
ATOM     31  C   UNL     1      33.177 -17.943 -25.417  0.00  0.00    +0.002 C 
BRANCH  27  32
ATOM     32  C   UNL     1      34.550 -20.019 -19.957  0.00  0.00    +0.030 C 
ATOM     33  C   UNL     1      35.825 -20.277 -19.452  0.00  0.00    +0.003 C 
ATOM     34  C   UNL     1      33.461 -20.773 -19.519  0.00  0.00    +0.003 C 
ATOM     35  C   UNL     1      36.010 -21.289 -18.509  0.00  0.00    +0.000 C 
ATOM     36  C   UNL     1      33.647 -21.784 -18.577  0.00  0.00    +0.000 C 
ATOM     37  C   UNL     1      34.921 -22.043 -18.073  0.00  0.00    +0.000 C 
ENDBRANCH  27  32
ENDBRANCH  21  23
ENDBRANCH  20  21
ENDBRANCH   6  20
TORSDOF 7
ENDMDL
