MODEL 1
REMARK VINA RESULT:     -12.7      0.000      0.000
REMARK  Name = 10200651
REMARK  5 active torsions:
REMARK  status: ('A' for Active; 'I' for Inactive)
REMARK    1  A    between atoms: C_1  and  C_7
REMARK    2  A    between atoms: C_4  and  C_22
REMARK    3  A    between atoms: C_10  and  C_17
REMARK    4  A    between atoms: N_21  and  C_24
REMARK    5  A    between atoms: C_27  and  C_31
REMARK                            x       y       z     vdW  Elec       q    Type
REMARK                         _______ _______ _______ _____ _____    ______ ____
ROOT
ATOM      1  C   UNL     1      34.396 -19.055 -21.097  0.00  0.00    -0.000 C 
ATOM      2  C   UNL     1      33.252 -19.662 -20.578  0.00  0.00    +0.000 C 
ATOM      3  C   UNL     1      35.653 -19.389 -20.595  0.00  0.00    +0.000 C 
ATOM      4  C   UNL     1      34.622 -20.917 -19.077  0.00  0.00    +0.054 C 
ATOM      5  C   UNL     1      33.366 -20.604 -19.556  0.00  0.00    +0.005 C 
ATOM      6  C   UNL     1      35.767 -20.331 -19.573  0.00  0.00    +0.005 C 
ENDROOT
BRANCH   1   7
ATOM      7  C   UNL     1      34.277 -18.077 -22.158  0.00  0.00    -0.004 C 
ATOM      8  C   UNL     1      34.293 -18.462 -23.500  0.00  0.00    -0.022 C 
ATOM      9  C   UNL     1      34.145 -16.728 -21.824  0.00  0.00    +0.004 C 
ATOM     10  C   UNL     1      34.030 -15.766 -22.828  0.00  0.00    +0.055 C 
ATOM     11  C   UNL     1      34.179 -17.501 -24.504  0.00  0.00    -0.004 C 
ATOM     12  C   UNL     1      34.046 -16.154 -24.169  0.00  0.00    +0.004 C 
ATOM     13  C   UNL     1      34.433 -19.896 -23.897  0.00  0.00    +0.031 C 
BRANCH  10  17
ATOM     14  O   UNL     1      33.605 -13.537 -23.512  0.00  0.00    -0.420 OA
ATOM     15  N   UNL     1      34.007 -13.777 -21.325  0.00  0.00    -0.107 NA
ATOM     16  N   UNL     1      33.780 -12.436 -21.572  0.00  0.00    -0.111 NA
ATOM     17  C   UNL     1      33.894 -14.373 -22.482  0.00  0.00    +0.250 A 
ATOM     18  C   UNL     1      33.551 -12.342 -22.861  0.00  0.00    +0.227 A 
ATOM     19  C   UNL     1      33.250 -11.159 -23.675  0.00  0.00    +0.097 C 
ENDBRANCH  10  17
ENDBRANCH   1   7
BRANCH   4  22
ATOM     20  O   UNL     1      34.003 -22.897 -18.026  0.00  0.00    -0.270 OA
ATOM     21  N   UNL     1      35.724 -21.648 -17.025  0.00  0.00    -0.280 N 
ATOM     22  C   UNL     1      34.743 -21.920 -17.987  0.00  0.00    +0.249 C 
ATOM     23  H   UNL     1      36.230 -20.811 -17.149  0.00  0.00    +0.155 HD
BRANCH  21  24
ATOM     24  C   UNL     1      36.076 -22.416 -15.914  0.00  0.00    +0.051 C 
ATOM     25  C   UNL     1      37.387 -22.867 -15.765  0.00  0.00    +0.025 C 
ATOM     26  C   UNL     1      35.116 -22.732 -14.953  0.00  0.00    +0.015 C 
ATOM     27  C   UNL     1      37.739 -23.635 -14.654  0.00  0.00    +0.070 C 
ATOM     28  C   UNL     1      35.467 -23.500 -13.843  0.00  0.00    +0.002 C 
ATOM     29  C   UNL     1      36.778 -23.951 -13.694  0.00  0.00    +0.010 C 
BRANCH  27  31
ATOM     30  N   UNL     1      40.174 -24.473 -14.375  0.00  0.00    -0.191 NA
ATOM     31  C   UNL     1      39.082 -24.097 -14.501  0.00  0.00    +0.100 C 
ENDBRANCH  27  31
ENDBRANCH  21  24
ENDBRANCH   4  22
TORSDOF 5
ENDMDL
MODEL 2
REMARK VINA RESULT:     -12.6      1.110      1.956
REMARK  Name = 10200651
REMARK  5 active torsions:
REMARK  status: ('A' for Active; 'I' for Inactive)
REMARK    1  A    between atoms: C_1  and  C_7
REMARK    2  A    between atoms: C_4  and  C_22
REMARK    3  A    between atoms: C_10  and  C_17
REMARK    4  A    between atoms: N_21  and  C_24
REMARK    5  A    between atoms: C_27  and  C_31
REMARK                            x       y       z     vdW  Elec       q    Type
REMARK                         _______ _______ _______ _____ _____    ______ ____
ROOT
ATOM      1  C   UNL     1      34.441 -18.991 -21.136  0.00  0.00    -0.000 C 
ATOM      2  C   UNL     1      35.709 -19.284 -20.636  0.00  0.00    +0.000 C 
ATOM      3  C   UNL     1      33.319 -19.636 -20.618  0.00  0.00    +0.000 C 
ATOM      4  C   UNL     1      34.729 -20.848 -19.120  0.00  0.00    +0.054 C 
ATOM      5  C   UNL     1      35.855 -20.224 -19.616  0.00  0.00    +0.005 C 
ATOM      6  C   UNL     1      33.465 -20.576 -19.598  0.00  0.00    +0.005 C 
ENDROOT
BRANCH   1   7
ATOM      7  C   UNL     1      34.290 -18.015 -22.195  0.00  0.00    -0.004 C 
ATOM      8  C   UNL     1      34.276 -18.402 -23.536  0.00  0.00    -0.022 C 
ATOM      9  C   UNL     1      34.156 -16.666 -21.860  0.00  0.00    +0.004 C 
ATOM     10  C   UNL     1      34.011 -15.707 -22.863  0.00  0.00    +0.055 C 
ATOM     11  C   UNL     1      34.130 -17.443 -24.539  0.00  0.00    -0.004 C 
ATOM     12  C   UNL     1      33.996 -16.097 -24.203  0.00  0.00    +0.004 C 
ATOM     13  C   UNL     1      34.416 -19.835 -23.936  0.00  0.00    +0.031 C 
BRANCH  10  17
ATOM     14  O   UNL     1      33.589 -13.477 -23.545  0.00  0.00    -0.420 OA
ATOM     15  N   UNL     1      33.981 -13.719 -21.357  0.00  0.00    -0.107 NA
ATOM     16  N   UNL     1      33.756 -12.378 -21.604  0.00  0.00    -0.111 NA
ATOM     17  C   UNL     1      33.873 -14.314 -22.515  0.00  0.00    +0.250 A 
ATOM     18  C   UNL     1      33.532 -12.283 -22.893  0.00  0.00    +0.227 A 
ATOM     19  C   UNL     1      33.236 -11.098 -23.707  0.00  0.00    +0.097 C 
ENDBRANCH  10  17
ENDBRANCH   1   7
BRANCH   4  22
ATOM     20  O   UNL     1      34.198 -22.865 -18.089  0.00  0.00    -0.270 OA
ATOM     21  N   UNL     1      35.835 -21.533 -17.054  0.00  0.00    -0.280 N 
ATOM     22  C   UNL     1      34.885 -21.851 -18.034  0.00  0.00    +0.249 C 
ATOM     23  H   UNL     1      36.298 -20.670 -17.166  0.00  0.00    +0.155 HD
BRANCH  21  24
ATOM     24  C   UNL     1      36.209 -22.288 -15.942  0.00  0.00    +0.051 C 
ATOM     25  C   UNL     1      35.267 -22.603 -14.964  0.00  0.00    +0.025 C 
ATOM     26  C   UNL     1      37.526 -22.728 -15.809  0.00  0.00    +0.015 C 
ATOM     27  C   UNL     1      35.640 -23.358 -13.851  0.00  0.00    +0.070 C 
ATOM     28  C   UNL     1      37.901 -23.483 -14.697  0.00  0.00    +0.002 C 
ATOM     29  C   UNL     1      36.958 -23.797 -13.719  0.00  0.00    +0.010 C 
BRANCH  27  31
ATOM     30  N   UNL     1      33.890 -23.943 -12.034  0.00  0.00    -0.191 NA
ATOM     31  C   UNL     1      34.675 -23.680 -12.849  0.00  0.00    +0.100 C 
ENDBRANCH  27  31
ENDBRANCH  21  24
ENDBRANCH   4  22
TORSDOF 5
ENDMDL
MODEL 3
REMARK VINA RESULT:     -12.5      4.180     12.450
REMARK  Name = 10200651
REMARK  5 active torsions:
REMARK  status: ('A' for Active; 'I' for Inactive)
REMARK    1  A    between atoms: C_1  and  C_7
REMARK    2  A    between atoms: C_4  and  C_22
REMARK    3  A    between atoms: C_10  and  C_17
REMARK    4  A    between atoms: N_21  and  C_24
REMARK    5  A    between atoms: C_27  and  C_31
REMARK                            x       y       z     vdW  Elec       q    Type
REMARK                         _______ _______ _______ _____ _____    ______ ____
ROOT
ATOM      1  C   UNL     1      33.057 -13.632 -22.455  0.00  0.00    -0.000 C 
ATOM      2  C   UNL     1      32.407 -13.551 -21.223  0.00  0.00    +0.000 C 
ATOM      3  C   UNL     1      33.201 -12.491 -23.245  0.00  0.00    +0.000 C 
ATOM      4  C   UNL     1      32.058 -11.215 -21.581  0.00  0.00    +0.054 C 
ATOM      5  C   UNL     1      31.902 -12.328 -20.781  0.00  0.00    +0.005 C 
ATOM      6  C   UNL     1      32.696 -11.269 -22.802  0.00  0.00    +0.005 C 
ENDROOT
BRANCH   1   7
ATOM      7  C   UNL     1      33.580 -14.900 -22.914  0.00  0.00    -0.004 C 
ATOM      8  C   UNL     1      33.542 -15.251 -24.265  0.00  0.00    -0.022 C 
ATOM      9  C   UNL     1      34.132 -15.783 -21.983  0.00  0.00    +0.004 C 
ATOM     10  C   UNL     1      34.642 -17.012 -22.401  0.00  0.00    +0.055 C 
ATOM     11  C   UNL     1      34.052 -16.480 -24.682  0.00  0.00    -0.004 C 
ATOM     12  C   UNL     1      34.603 -17.360 -23.751  0.00  0.00    +0.004 C 
ATOM     13  C   UNL     1      32.961 -14.335 -25.292  0.00  0.00    +0.031 C 
BRANCH  10  17
ATOM     14  O   UNL     1      34.454 -19.010 -21.138  0.00  0.00    -0.420 OA
ATOM     15  N   UNL     1      36.348 -17.870 -20.796  0.00  0.00    -0.107 NA
ATOM     16  N   UNL     1      36.379 -19.000 -19.999  0.00  0.00    -0.111 NA
ATOM     17  C   UNL     1      35.210 -17.923 -21.438  0.00  0.00    +0.250 A 
ATOM     18  C   UNL     1      35.254 -19.634 -20.231  0.00  0.00    +0.227 A 
ATOM     19  C   UNL     1      34.754 -20.891 -19.662  0.00  0.00    +0.097 C 
ENDBRANCH  10  17
ENDBRANCH   1   7
BRANCH   4  22
ATOM     20  O   UNL     1      30.627  -9.935 -20.268  0.00  0.00    -0.270 OA
ATOM     21  N   UNL     1      32.115  -8.776 -21.671  0.00  0.00    -0.280 N 
ATOM     22  C   UNL     1      31.519  -9.913 -21.109  0.00  0.00    +0.249 C 
ATOM     23  H   UNL     1      32.822  -8.944 -22.337  0.00  0.00    +0.155 HD
BRANCH  21  24
ATOM     24  C   UNL     1      31.834  -7.436 -21.403  0.00  0.00    +0.051 C 
ATOM     25  C   UNL     1      31.324  -6.615 -22.408  0.00  0.00    +0.025 C 
ATOM     26  C   UNL     1      32.063  -6.918 -20.129  0.00  0.00    +0.015 C 
ATOM     27  C   UNL     1      31.042  -5.275 -22.139  0.00  0.00    +0.070 C 
ATOM     28  C   UNL     1      31.783  -5.578 -19.859  0.00  0.00    +0.002 C 
ATOM     29  C   UNL     1      31.273  -4.757 -20.865  0.00  0.00    +0.010 C 
BRANCH  27  31
ATOM     30  N   UNL     1      30.095  -3.749 -24.006  0.00  0.00    -0.191 NA
ATOM     31  C   UNL     1      30.520  -4.434 -23.169  0.00  0.00    +0.100 C 
ENDBRANCH  27  31
ENDBRANCH  21  24
ENDBRANCH   4  22
TORSDOF 5
ENDMDL
MODEL 4
REMARK VINA RESULT:     -12.1      2.119     10.719
REMARK  Name = 10200651
REMARK  5 active torsions:
REMARK  status: ('A' for Active; 'I' for Inactive)
REMARK    1  A    between atoms: C_1  and  C_7
REMARK    2  A    between atoms: C_4  and  C_22
REMARK    3  A    between atoms: C_10  and  C_17
REMARK    4  A    between atoms: N_21  and  C_24
REMARK    5  A    between atoms: C_27  and  C_31
REMARK                            x       y       z     vdW  Elec       q    Type
REMARK                         _______ _______ _______ _____ _____    ______ ____
ROOT
ATOM      1  C   UNL     1      34.521 -21.725 -17.771  0.00  0.00    -0.000 C 
ATOM      2  C   UNL     1      33.312 -21.418 -18.397  0.00  0.00    +0.000 C 
ATOM      3  C   UNL     1      35.722 -21.265 -18.309  0.00  0.00    +0.000 C 
ATOM      4  C   UNL     1      34.508 -20.206 -20.072  0.00  0.00    +0.054 C 
ATOM      5  C   UNL     1      33.305 -20.649 -19.560  0.00  0.00    +0.005 C 
ATOM      6  C   UNL     1      35.715 -20.496 -19.473  0.00  0.00    +0.005 C 
ENDROOT
BRANCH   1   7
ATOM      7  C   UNL     1      34.527 -22.523 -16.564  0.00  0.00    -0.004 C 
ATOM      8  C   UNL     1      33.346 -23.052 -16.041  0.00  0.00    -0.022 C 
ATOM      9  C   UNL     1      35.741 -22.764 -15.917  0.00  0.00    +0.004 C 
ATOM     10  C   UNL     1      35.773 -23.528 -14.750  0.00  0.00    +0.055 C 
ATOM     11  C   UNL     1      33.378 -23.817 -14.875  0.00  0.00    -0.004 C 
ATOM     12  C   UNL     1      34.591 -24.056 -14.230  0.00  0.00    +0.004 C 
ATOM     13  C   UNL     1      32.027 -22.817 -16.704  0.00  0.00    +0.031 C 
BRANCH  10  17
ATOM     14  O   UNL     1      37.845 -24.679 -14.682  0.00  0.00    -0.420 OA
ATOM     15  N   UNL     1      37.512 -23.266 -12.981  0.00  0.00    -0.107 NA
ATOM     16  N   UNL     1      38.748 -23.859 -12.808  0.00  0.00    -0.111 NA
ATOM     17  C   UNL     1      37.028 -23.775 -14.083  0.00  0.00    +0.250 A 
ATOM     18  C   UNL     1      38.900 -24.677 -13.823  0.00  0.00    +0.227 A 
ATOM     19  C   UNL     1      40.022 -25.564 -14.150  0.00  0.00    +0.097 C 
ENDBRANCH  10  17
ENDBRANCH   1   7
BRANCH   4  22
ATOM     20  O   UNL     1      34.625 -19.972 -22.383  0.00  0.00    -0.270 OA
ATOM     21  N   UNL     1      34.326 -18.010 -21.123  0.00  0.00    -0.280 N 
ATOM     22  C   UNL     1      34.500 -19.388 -21.312  0.00  0.00    +0.249 C 
ATOM     23  H   UNL     1      34.243 -17.710 -20.188  0.00  0.00    +0.155 HD
BRANCH  21  24
ATOM     24  C   UNL     1      34.254 -17.011 -22.095  0.00  0.00    +0.051 C 
ATOM     25  C   UNL     1      34.092 -15.679 -21.715  0.00  0.00    +0.025 C 
ATOM     26  C   UNL     1      34.344 -17.345 -23.446  0.00  0.00    +0.015 C 
ATOM     27  C   UNL     1      34.020 -14.680 -22.687  0.00  0.00    +0.070 C 
ATOM     28  C   UNL     1      34.272 -16.348 -24.418  0.00  0.00    +0.002 C 
ATOM     29  C   UNL     1      34.110 -15.016 -24.038  0.00  0.00    +0.010 C 
BRANCH  27  31
ATOM     30  N   UNL     1      33.719 -12.206 -21.983  0.00  0.00    -0.191 NA
ATOM     31  C   UNL     1      33.854 -13.316 -22.299  0.00  0.00    +0.100 C 
ENDBRANCH  27  31
ENDBRANCH  21  24
ENDBRANCH   4  22
TORSDOF 5
ENDMDL
MODEL 5
REMARK VINA RESULT:     -11.7      5.410     10.682
REMARK  Name = 10200651
REMARK  5 active torsions:
REMARK  status: ('A' for Active; 'I' for Inactive)
REMARK    1  A    between atoms: C_1  and  C_7
REMARK    2  A    between atoms: C_4  and  C_22
REMARK    3  A    between atoms: C_10  and  C_17
REMARK    4  A    between atoms: N_21  and  C_24
REMARK    5  A    between atoms: C_27  and  C_31
REMARK                            x       y       z     vdW  Elec       q    Type
REMARK                         _______ _______ _______ _____ _____    ______ ____
ROOT
ATOM      1  C   UNL     1      31.952  -9.168 -22.138  0.00  0.00    -0.000 C 
ATOM      2  C   UNL     1      32.968  -9.310 -23.083  0.00  0.00    +0.000 C 
ATOM      3  C   UNL     1      31.249 -10.287 -21.694  0.00  0.00    +0.000 C 
ATOM      4  C   UNL     1      32.570 -11.664 -23.130  0.00  0.00    +0.054 C 
ATOM      5  C   UNL     1      33.281 -10.573 -23.585  0.00  0.00    +0.005 C 
ATOM      6  C   UNL     1      31.562 -11.550 -22.196  0.00  0.00    +0.005 C 
ENDROOT
BRANCH   1   7
ATOM      7  C   UNL     1      31.628  -7.857 -21.617  0.00  0.00    -0.004 C 
ATOM      8  C   UNL     1      31.565  -7.621 -20.242  0.00  0.00    -0.022 C 
ATOM      9  C   UNL     1      31.376  -6.815 -22.512  0.00  0.00    +0.004 C 
ATOM     10  C   UNL     1      31.060  -5.543 -22.035  0.00  0.00    +0.055 C 
ATOM     11  C   UNL     1      31.249  -6.349 -19.765  0.00  0.00    -0.004 C 
ATOM     12  C   UNL     1      30.998  -5.310 -20.660  0.00  0.00    +0.004 C 
ATOM     13  C   UNL     1      31.828  -8.709 -19.252  0.00  0.00    +0.031 C 
BRANCH  10  17
ATOM     14  O   UNL     1      31.483  -4.524 -24.133  0.00  0.00    -0.420 OA
ATOM     15  N   UNL     1      30.005  -3.437 -22.853  0.00  0.00    -0.107 NA
ATOM     16  N   UNL     1      30.149  -2.731 -24.033  0.00  0.00    -0.111 NA
ATOM     17  C   UNL     1      30.799  -4.468 -22.960  0.00  0.00    +0.250 A 
ATOM     18  C   UNL     1      31.021  -3.401 -24.748  0.00  0.00    +0.227 A 
ATOM     19  C   UNL     1      31.552  -3.114 -26.086  0.00  0.00    +0.097 C 
ENDBRANCH  10  17
ENDBRANCH   1   7
BRANCH   4  22
ATOM     20  O   UNL     1      32.736 -13.204 -24.865  0.00  0.00    -0.270 OA
ATOM     21  N   UNL     1      33.401 -13.924 -22.728  0.00  0.00    -0.280 N 
ATOM     22  C   UNL     1      32.903 -13.010 -23.666  0.00  0.00    +0.249 C 
ATOM     23  H   UNL     1      33.469 -13.598 -21.801  0.00  0.00    +0.155 HD
BRANCH  21  24
ATOM     24  C   UNL     1      33.816 -15.239 -22.946  0.00  0.00    +0.051 C 
ATOM     25  C   UNL     1      34.579 -15.898 -21.983  0.00  0.00    +0.025 C 
ATOM     26  C   UNL     1      33.468 -15.893 -24.127  0.00  0.00    +0.015 C 
ATOM     27  C   UNL     1      34.994 -17.213 -22.200  0.00  0.00    +0.070 C 
ATOM     28  C   UNL     1      33.882 -17.207 -24.346  0.00  0.00    +0.002 C 
ATOM     29  C   UNL     1      34.646 -17.866 -23.383  0.00  0.00    +0.010 C 
BRANCH  27  31
ATOM     30  N   UNL     1      36.412 -18.438 -20.412  0.00  0.00    -0.191 NA
ATOM     31  C   UNL     1      35.776 -17.888 -21.214  0.00  0.00    +0.100 C 
ENDBRANCH  27  31
ENDBRANCH  21  24
ENDBRANCH   4  22
TORSDOF 5
ENDMDL
MODEL 6
REMARK VINA RESULT:     -11.6      2.978     10.603
REMARK  Name = 10200651
REMARK  5 active torsions:
REMARK  status: ('A' for Active; 'I' for Inactive)
REMARK    1  A    between atoms: C_1  and  C_7
REMARK    2  A    between atoms: C_4  and  C_22
REMARK    3  A    between atoms: C_10  and  C_17
REMARK    4  A    between atoms: N_21  and  C_24
REMARK    5  A    between atoms: C_27  and  C_31
REMARK                            x       y       z     vdW  Elec       q    Type
REMARK                         _______ _______ _______ _____ _____    ______ ____
ROOT
ATOM      1  C   UNL     1      35.230 -21.831 -17.127  0.00  0.00    -0.000 C 
ATOM      2  C   UNL     1      36.330 -20.988 -17.282  0.00  0.00    +0.000 C 
ATOM      3  C   UNL     1      34.253 -21.894 -18.119  0.00  0.00    +0.000 C 
ATOM      4  C   UNL     1      35.472 -20.287 -19.398  0.00  0.00    +0.054 C 
ATOM      5  C   UNL     1      36.453 -20.207 -18.431  0.00  0.00    +0.005 C 
ATOM      6  C   UNL     1      34.375 -21.113 -19.268  0.00  0.00    +0.005 C 
ENDROOT
BRANCH   1   7
ATOM      7  C   UNL     1      35.104 -22.642 -15.934  0.00  0.00    -0.004 C 
ATOM      8  C   UNL     1      36.231 -23.088 -15.242  0.00  0.00    -0.022 C 
ATOM      9  C   UNL     1      33.828 -22.978 -15.475  0.00  0.00    +0.004 C 
ATOM     10  C   UNL     1      33.680 -23.759 -14.329  0.00  0.00    +0.055 C 
ATOM     11  C   UNL     1      36.083 -23.869 -14.095  0.00  0.00    -0.004 C 
ATOM     12  C   UNL     1      34.808 -24.204 -13.639  0.00  0.00    +0.004 C 
ATOM     13  C   UNL     1      37.612 -22.750 -15.701  0.00  0.00    +0.031 C 
BRANCH  10  17
ATOM     14  O   UNL     1      31.356 -23.948 -14.755  0.00  0.00    -0.420 OA
ATOM     15  N   UNL     1      31.974 -24.551 -12.691  0.00  0.00    -0.107 NA
ATOM     16  N   UNL     1      30.605 -24.712 -12.791  0.00  0.00    -0.111 NA
ATOM     17  C   UNL     1      32.363 -24.106 -13.857  0.00  0.00    +0.250 A 
ATOM     18  C   UNL     1      30.288 -24.348 -14.011  0.00  0.00    +0.227 A 
ATOM     19  C   UNL     1      28.976 -24.313 -14.667  0.00  0.00    +0.097 C 
ENDBRANCH  10  17
ENDBRANCH   1   7
BRANCH   4  22
ATOM     20  O   UNL     1      36.709 -19.375 -21.143  0.00  0.00    -0.270 OA
ATOM     21  N   UNL     1      34.417 -18.854 -21.070  0.00  0.00    -0.280 N 
ATOM     22  C   UNL     1      35.602 -19.454 -20.622  0.00  0.00    +0.249 C 
ATOM     23  H   UNL     1      33.614 -19.025 -20.525  0.00  0.00    +0.155 HD
BRANCH  21  24
ATOM     24  C   UNL     1      34.234 -18.047 -22.193  0.00  0.00    +0.051 C 
ATOM     25  C   UNL     1      34.256 -16.659 -22.066  0.00  0.00    +0.025 C 
ATOM     26  C   UNL     1      34.028 -18.630 -23.444  0.00  0.00    +0.015 C 
ATOM     27  C   UNL     1      34.073 -15.852 -23.190  0.00  0.00    +0.070 C 
ATOM     28  C   UNL     1      33.845 -17.824 -24.567  0.00  0.00    +0.002 C 
ATOM     29  C   UNL     1      33.866 -16.435 -24.440  0.00  0.00    +0.010 C 
BRANCH  27  31
ATOM     30  N   UNL     1      34.113 -13.273 -22.955  0.00  0.00    -0.191 NA
ATOM     31  C   UNL     1      34.095 -14.430 -23.060  0.00  0.00    +0.100 C 
ENDBRANCH  27  31
ENDBRANCH  21  24
ENDBRANCH   4  22
TORSDOF 5
ENDMDL
MODEL 7
REMARK VINA RESULT:     -11.6      2.348     10.953
REMARK  Name = 10200651
REMARK  5 active torsions:
REMARK  status: ('A' for Active; 'I' for Inactive)
REMARK    1  A    between atoms: C_1  and  C_7
REMARK    2  A    between atoms: C_4  and  C_22
REMARK    3  A    between atoms: C_10  and  C_17
REMARK    4  A    between atoms: N_21  and  C_24
REMARK    5  A    between atoms: C_27  and  C_31
REMARK                            x       y       z     vdW  Elec       q    Type
REMARK                         _______ _______ _______ _____ _____    ______ ____
ROOT
ATOM      1  C   UNL     1      33.945 -22.423 -16.837  0.00  0.00    -0.000 C 
ATOM      2  C   UNL     1      34.958 -21.759 -17.528  0.00  0.00    +0.000 C 
ATOM      3  C   UNL     1      32.630 -22.360 -17.296  0.00  0.00    +0.000 C 
ATOM      4  C   UNL     1      33.347 -20.986 -19.112  0.00  0.00    +0.054 C 
ATOM      5  C   UNL     1      34.656 -21.032 -18.679  0.00  0.00    +0.005 C 
ATOM      6  C   UNL     1      32.327 -21.633 -18.447  0.00  0.00    +0.005 C 
ENDROOT
BRANCH   1   7
ATOM      7  C   UNL     1      34.259 -23.177 -15.642  0.00  0.00    -0.004 C 
ATOM      8  C   UNL     1      33.363 -23.243 -14.574  0.00  0.00    -0.022 C 
ATOM      9  C   UNL     1      35.481 -23.847 -15.565  0.00  0.00    +0.004 C 
ATOM     10  C   UNL     1      35.808 -24.580 -14.424  0.00  0.00    +0.055 C 
ATOM     11  C   UNL     1      33.689 -23.976 -13.432  0.00  0.00    -0.004 C 
ATOM     12  C   UNL     1      34.910 -24.645 -13.357  0.00  0.00    +0.004 C 
ATOM     13  C   UNL     1      32.045 -22.540 -14.617  0.00  0.00    +0.031 C 
BRANCH  10  17
ATOM     14  O   UNL     1      38.172 -24.478 -14.286  0.00  0.00    -0.420 OA
ATOM     15  N   UNL     1      37.332 -26.551 -14.326  0.00  0.00    -0.107 NA
ATOM     16  N   UNL     1      38.709 -26.650 -14.246  0.00  0.00    -0.111 NA
ATOM     17  C   UNL     1      37.071 -25.271 -14.346  0.00  0.00    +0.250 A 
ATOM     18  C   UNL     1      39.157 -25.416 -14.227  0.00  0.00    +0.227 A 
ATOM     19  C   UNL     1      40.536 -24.923 -14.150  0.00  0.00    +0.097 C 
ENDBRANCH  10  17
ENDBRANCH   1   7
BRANCH   4  22
ATOM     20  O   UNL     1      31.871 -20.247 -20.751  0.00  0.00    -0.270 OA
ATOM     21  N   UNL     1      34.091 -19.488 -20.891  0.00  0.00    -0.280 N 
ATOM     22  C   UNL     1      33.025 -20.210 -20.339  0.00  0.00    +0.249 C 
ATOM     23  H   UNL     1      34.957 -19.574 -20.427  0.00  0.00    +0.155 HD
BRANCH  21  24
ATOM     24  C   UNL     1      34.079 -18.660 -22.014  0.00  0.00    +0.051 C 
ATOM     25  C   UNL     1      34.160 -17.276 -21.861  0.00  0.00    +0.025 C 
ATOM     26  C   UNL     1      33.985 -19.217 -23.289  0.00  0.00    +0.015 C 
ATOM     27  C   UNL     1      34.148 -16.448 -22.985  0.00  0.00    +0.070 C 
ATOM     28  C   UNL     1      33.972 -18.390 -24.412  0.00  0.00    +0.002 C 
ATOM     29  C   UNL     1      34.053 -17.006 -24.260  0.00  0.00    +0.010 C 
BRANCH  27  31
ATOM     30  N   UNL     1      34.299 -13.878 -22.703  0.00  0.00    -0.191 NA
ATOM     31  C   UNL     1      34.231 -15.031 -22.829  0.00  0.00    +0.100 C 
ENDBRANCH  27  31
ENDBRANCH  21  24
ENDBRANCH   4  22
TORSDOF 5
ENDMDL
MODEL 8
REMARK VINA RESULT:     -11.4      2.356      2.918
REMARK  Name = 10200651
REMARK  5 active torsions:
REMARK  status: ('A' for Active; 'I' for Inactive)
REMARK    1  A    between atoms: C_1  and  C_7
REMARK    2  A    between atoms: C_4  and  C_22
REMARK    3  A    between atoms: C_10  and  C_17
REMARK    4  A    between atoms: N_21  and  C_24
REMARK    5  A    between atoms: C_27  and  C_31
REMARK                            x       y       z     vdW  Elec       q    Type
REMARK                         _______ _______ _______ _____ _____    ______ ____
ROOT
ATOM      1  C   UNL     1      33.795 -19.475 -20.857  0.00  0.00    -0.000 C 
ATOM      2  C   UNL     1      34.857 -20.143 -20.248  0.00  0.00    +0.000 C 
ATOM      3  C   UNL     1      32.481 -19.809 -20.531  0.00  0.00    +0.000 C 
ATOM      4  C   UNL     1      33.295 -21.457 -19.006  0.00  0.00    +0.054 C 
ATOM      5  C   UNL     1      34.604 -21.146 -19.311  0.00  0.00    +0.005 C 
ATOM      6  C   UNL     1      32.228 -20.811 -19.594  0.00  0.00    +0.005 C 
ENDROOT
BRANCH   1   7
ATOM      7  C   UNL     1      34.057 -18.435 -21.828  0.00  0.00    -0.004 C 
ATOM      8  C   UNL     1      34.457 -18.746 -23.129  0.00  0.00    -0.022 C 
ATOM      9  C   UNL     1      33.905 -17.099 -21.450  0.00  0.00    +0.004 C 
ATOM     10  C   UNL     1      34.153 -16.079 -22.368  0.00  0.00    +0.055 C 
ATOM     11  C   UNL     1      34.706 -17.725 -24.047  0.00  0.00    -0.004 C 
ATOM     12  C   UNL     1      34.553 -16.392 -23.667  0.00  0.00    +0.004 C 
ATOM     13  C   UNL     1      34.632 -20.162 -23.573  0.00  0.00    +0.031 C 
BRANCH  10  17
ATOM     14  O   UNL     1      33.723 -13.829 -22.980  0.00  0.00    -0.420 OA
ATOM     15  N   UNL     1      34.077 -14.145 -20.794  0.00  0.00    -0.107 NA
ATOM     16  N   UNL     1      33.843 -12.798 -20.999  0.00  0.00    -0.111 NA
ATOM     17  C   UNL     1      33.996 -14.700 -21.975  0.00  0.00    +0.250 A 
ATOM     18  C   UNL     1      33.643 -12.660 -22.289  0.00  0.00    +0.227 A 
ATOM     19  C   UNL     1      33.350 -11.450 -23.066  0.00  0.00    +0.097 C 
ENDBRANCH  10  17
ENDBRANCH   1   7
BRANCH   4  22
ATOM     20  O   UNL     1      33.316 -23.677 -18.315  0.00  0.00    -0.270 OA
ATOM     21  N   UNL     1      32.481 -22.091 -16.794  0.00  0.00    -0.280 N 
ATOM     22  C   UNL     1      33.027 -22.526 -18.009  0.00  0.00    +0.249 C 
ATOM     23  H   UNL     1      32.310 -21.124 -16.719  0.00  0.00    +0.155 HD
BRANCH  21  24
ATOM     24  C   UNL     1      32.152 -22.859 -15.676  0.00  0.00    +0.051 C 
ATOM     25  C   UNL     1      33.100 -23.079 -14.678  0.00  0.00    +0.025 C 
ATOM     26  C   UNL     1      30.874 -23.405 -15.558  0.00  0.00    +0.015 C 
ATOM     27  C   UNL     1      32.771 -23.846 -13.560  0.00  0.00    +0.070 C 
ATOM     28  C   UNL     1      30.544 -24.173 -14.441  0.00  0.00    +0.002 C 
ATOM     29  C   UNL     1      31.493 -24.393 -13.442  0.00  0.00    +0.010 C 
BRANCH  27  31
ATOM     30  N   UNL     1      34.531 -24.256 -11.705  0.00  0.00    -0.191 NA
ATOM     31  C   UNL     1      33.741 -24.073 -12.537  0.00  0.00    +0.100 C 
ENDBRANCH  27  31
ENDBRANCH  21  24
ENDBRANCH   4  22
TORSDOF 5
ENDMDL
MODEL 9
REMARK VINA RESULT:     -11.3      5.785     11.316
REMARK  Name = 10200651
REMARK  5 active torsions:
REMARK  status: ('A' for Active; 'I' for Inactive)
REMARK    1  A    between atoms: C_1  and  C_7
REMARK    2  A    between atoms: C_4  and  C_22
REMARK    3  A    between atoms: C_10  and  C_17
REMARK    4  A    between atoms: N_21  and  C_24
REMARK    5  A    between atoms: C_27  and  C_31
REMARK                            x       y       z     vdW  Elec       q    Type
REMARK                         _______ _______ _______ _____ _____    ______ ____
ROOT
ATOM      1  C   UNL     1      31.935  -8.215 -22.318  0.00  0.00    -0.000 C 
ATOM      2  C   UNL     1      31.103  -8.969 -21.490  0.00  0.00    +0.000 C 
ATOM      3  C   UNL     1      32.890  -8.849 -23.111  0.00  0.00    +0.000 C 
ATOM      4  C   UNL     1      32.180 -10.960 -22.252  0.00  0.00    +0.054 C 
ATOM      5  C   UNL     1      31.227 -10.358 -21.457  0.00  0.00    +0.005 C 
ATOM      6  C   UNL     1      33.014 -10.238 -23.078  0.00  0.00    +0.005 C 
ENDROOT
BRANCH   1   7
ATOM      7  C   UNL     1      31.807  -6.774 -22.352  0.00  0.00    -0.004 C 
ATOM      8  C   UNL     1      31.641  -6.036 -21.179  0.00  0.00    -0.022 C 
ATOM      9  C   UNL     1      31.851  -6.118 -23.584  0.00  0.00    +0.004 C 
ATOM     10  C   UNL     1      31.728  -4.730 -23.643  0.00  0.00    +0.055 C 
ATOM     11  C   UNL     1      31.518  -4.648 -21.238  0.00  0.00    -0.004 C 
ATOM     12  C   UNL     1      31.563  -3.995 -22.469  0.00  0.00    +0.004 C 
ATOM     13  C   UNL     1      31.589  -6.700 -19.841  0.00  0.00    +0.031 C 
BRANCH  10  17
ATOM     14  O   UNL     1      32.605  -4.600 -25.842  0.00  0.00    -0.420 OA
ATOM     15  N   UNL     1      31.139  -2.990 -25.330  0.00  0.00    -0.107 NA
ATOM     16  N   UNL     1      31.560  -2.785 -26.630  0.00  0.00    -0.111 NA
ATOM     17  C   UNL     1      31.773  -4.055 -24.917  0.00  0.00    +0.250 A 
ATOM     18  C   UNL     1      32.416  -3.747 -26.886  0.00  0.00    +0.227 A 
ATOM     19  C   UNL     1      33.175  -4.023 -28.111  0.00  0.00    +0.097 C 
ENDBRANCH  10  17
ENDBRANCH   1   7
BRANCH   4  22
ATOM     20  O   UNL     1      31.563 -13.062 -21.470  0.00  0.00    -0.270 OA
ATOM     21  N   UNL     1      33.282 -12.979 -23.071  0.00  0.00    -0.280 N 
ATOM     22  C   UNL     1      32.312 -12.440 -22.216  0.00  0.00    +0.249 C 
ATOM     23  H   UNL     1      33.798 -12.329 -23.602  0.00  0.00    +0.155 HD
BRANCH  21  24
ATOM     24  C   UNL     1      33.608 -14.322 -23.265  0.00  0.00    +0.051 C 
ATOM     25  C   UNL     1      34.234 -15.042 -22.248  0.00  0.00    +0.025 C 
ATOM     26  C   UNL     1      33.305 -14.945 -24.476  0.00  0.00    +0.015 C 
ATOM     27  C   UNL     1      34.559 -16.385 -22.442  0.00  0.00    +0.070 C 
ATOM     28  C   UNL     1      33.630 -16.287 -24.671  0.00  0.00    +0.002 C 
ATOM     29  C   UNL     1      34.257 -17.006 -23.654  0.00  0.00    +0.010 C 
BRANCH  27  31
ATOM     30  N   UNL     1      35.724 -17.723 -20.555  0.00  0.00    -0.191 NA
ATOM     31  C   UNL     1      35.201 -17.123 -21.401  0.00  0.00    +0.100 C 
ENDBRANCH  27  31
ENDBRANCH  21  24
ENDBRANCH   4  22
TORSDOF 5
ENDMDL
