MODEL 1
REMARK VINA RESULT:     -11.6      0.000      0.000
REMARK  Name = 16058637
REMARK  4 active torsions:
REMARK  status: ('A' for Active; 'I' for Inactive)
REMARK    1  A    between atoms: N_1  and  C_11
REMARK    2  A    between atoms: N_2  and  C_22
REMARK    3  A    between atoms: C_12  and  C_19
REMARK    4  A    between atoms: C_25  and  O_28
REMARK                            x       y       z     vdW  Elec       q    Type
REMARK                         _______ _______ _______ _____ _____    ______ ____
ROOT
ATOM      1  N   UNL     1      34.153 -23.131 -14.083  0.00  0.00    -0.287 N 
ATOM      2  N   UNL     1      31.724 -21.880 -17.941  0.00  0.00    -0.247 N 
ATOM      3  N   UNL     1      32.948 -22.492 -16.035  0.00  0.00    -0.322 NA
ATOM      4  N   UNL     1      30.593 -22.976 -16.203  0.00  0.00    -0.170 NA
ATOM      5  C   UNL     1      32.985 -23.074 -14.791  0.00  0.00    +0.198 C 
ATOM      6  C   UNL     1      31.756 -22.479 -16.663  0.00  0.00    +0.150 C 
ATOM      7  C   UNL     1      31.818 -23.619 -14.232  0.00  0.00    +0.070 C 
ATOM      8  C   UNL     1      30.661 -23.542 -14.979  0.00  0.00    +0.116 C 
ATOM      9  H   UNL     1      34.046 -23.224 -13.109  0.00  0.00    +0.155 HD
ATOM     10  H   UNL     1      30.832 -21.780 -18.345  0.00  0.00    +0.165 HD
ENDROOT
BRANCH   1  11
ATOM     11  C   UNL     1      35.491 -23.076 -14.534  0.00  0.00    +0.054 C 
ATOM     12  C   UNL     1      36.441 -23.988 -14.074  0.00  0.00    +0.067 C 
ATOM     13  C   UNL     1      35.856 -22.093 -15.454  0.00  0.00    +0.015 C 
ATOM     14  C   UNL     1      37.755 -23.916 -14.532  0.00  0.00    +0.006 C 
ATOM     15  C   UNL     1      37.171 -22.021 -15.913  0.00  0.00    +0.001 C 
ATOM     16  C   UNL     1      38.121 -22.933 -15.452  0.00  0.00    +0.000 C 
BRANCH  12  19
ATOM     17  O   UNL     1      35.489 -24.754 -12.060  0.00  0.00    -0.270 OA
ATOM     18  N   UNL     1      36.438 -26.336 -13.422  0.00  0.00    -0.325 N 
ATOM     19  C   UNL     1      36.091 -25.026 -13.112  0.00  0.00    +0.244 C 
ATOM     20  H   UNL     1      36.218 -27.064 -12.798  0.00  0.00    +0.145 HD
ATOM     21  H   UNL     1      36.903 -26.534 -14.266  0.00  0.00    +0.145 HD
ENDBRANCH  12  19
ENDBRANCH   1  11
BRANCH   2  22
ATOM     22  C   UNL     1      32.787 -21.414 -18.700  0.00  0.00    +0.061 C 
ATOM     23  C   UNL     1      32.582 -20.477 -19.730  0.00  0.00    +0.052 C 
ATOM     24  C   UNL     1      34.098 -21.865 -18.459  0.00  0.00    +0.015 C 
ATOM     25  C   UNL     1      33.653 -20.009 -20.493  0.00  0.00    +0.135 C 
ATOM     26  C   UNL     1      35.167 -21.396 -19.222  0.00  0.00    +0.004 C 
ATOM     27  C   UNL     1      34.944 -20.469 -20.239  0.00  0.00    +0.037 C 
BRANCH  25  28
ATOM     28  O   UNL     1      33.435 -19.105 -21.487  0.00  0.00    -0.505 OA
ATOM     29  H   UNL     1      33.640 -19.324 -22.374  0.00  0.00    +0.292 HD
ENDBRANCH  25  28
ENDBRANCH   2  22
TORSDOF 4
ENDMDL
MODEL 2
REMARK VINA RESULT:     -11.1      2.872      4.999
REMARK  Name = 16058637
REMARK  4 active torsions:
REMARK  status: ('A' for Active; 'I' for Inactive)
REMARK    1  A    between atoms: N_1  and  C_11
REMARK    2  A    between atoms: N_2  and  C_22
REMARK    3  A    between atoms: C_12  and  C_19
REMARK    4  A    between atoms: C_25  and  O_28
REMARK                            x       y       z     vdW  Elec       q    Type
REMARK                         _______ _______ _______ _____ _____    ______ ____
ROOT
ATOM      1  N   UNL     1      37.155 -23.015 -14.864  0.00  0.00    -0.287 N 
ATOM      2  N   UNL     1      32.887 -22.511 -16.834  0.00  0.00    -0.247 N 
ATOM      3  N   UNL     1      34.997 -22.774 -15.840  0.00  0.00    -0.322 NA
ATOM      4  N   UNL     1      34.737 -21.518 -17.881  0.00  0.00    -0.170 NA
ATOM      5  C   UNL     1      36.348 -22.527 -15.854  0.00  0.00    +0.198 C 
ATOM      6  C   UNL     1      34.276 -22.255 -16.853  0.00  0.00    +0.150 C 
ATOM      7  C   UNL     1      36.917 -21.766 -16.888  0.00  0.00    +0.070 C 
ATOM      8  C   UNL     1      36.067 -21.292 -17.867  0.00  0.00    +0.116 C 
ATOM      9  H   UNL     1      38.104 -23.110 -15.110  0.00  0.00    +0.155 HD
ATOM     10  H   UNL     1      32.387 -22.221 -17.630  0.00  0.00    +0.165 HD
ENDROOT
BRANCH   1  11
ATOM     11  C   UNL     1      36.838 -23.405 -13.544  0.00  0.00    +0.054 C 
ATOM     12  C   UNL     1      36.649 -24.748 -13.219  0.00  0.00    +0.067 C 
ATOM     13  C   UNL     1      36.715 -22.425 -12.559  0.00  0.00    +0.015 C 
ATOM     14  C   UNL     1      36.336 -25.111 -11.910  0.00  0.00    +0.006 C 
ATOM     15  C   UNL     1      36.403 -22.787 -11.249  0.00  0.00    +0.001 C 
ATOM     16  C   UNL     1      36.214 -24.131 -10.924  0.00  0.00    +0.000 C 
BRANCH  12  19
ATOM     17  O   UNL     1      37.880 -26.170 -14.636  0.00  0.00    -0.270 OA
ATOM     18  N   UNL     1      35.596 -26.374 -14.698  0.00  0.00    -0.325 N 
ATOM     19  C   UNL     1      36.769 -25.795 -14.226  0.00  0.00    +0.244 C 
ATOM     20  H   UNL     1      35.638 -27.084 -15.377  0.00  0.00    +0.145 HD
ATOM     21  H   UNL     1      34.726 -26.073 -14.351  0.00  0.00    +0.145 HD
ENDBRANCH  12  19
ENDBRANCH   1  11
BRANCH   2  22
ATOM     22  C   UNL     1      32.139 -23.121 -15.839  0.00  0.00    +0.061 C 
ATOM     23  C   UNL     1      32.750 -23.598 -14.666  0.00  0.00    +0.052 C 
ATOM     24  C   UNL     1      30.747 -23.277 -15.978  0.00  0.00    +0.015 C 
ATOM     25  C   UNL     1      31.996 -24.212 -13.665  0.00  0.00    +0.135 C 
ATOM     26  C   UNL     1      29.993 -23.890 -14.976  0.00  0.00    +0.004 C 
ATOM     27  C   UNL     1      30.618 -24.357 -13.821  0.00  0.00    +0.037 C 
BRANCH  25  28
ATOM     28  O   UNL     1      32.606 -24.670 -12.538  0.00  0.00    -0.505 OA
ATOM     29  H   UNL     1      32.603 -25.587 -12.342  0.00  0.00    +0.292 HD
ENDBRANCH  25  28
ENDBRANCH   2  22
TORSDOF 4
ENDMDL
MODEL 3
REMARK VINA RESULT:     -11.1      2.038      2.691
REMARK  Name = 16058637
REMARK  4 active torsions:
REMARK  status: ('A' for Active; 'I' for Inactive)
REMARK    1  A    between atoms: N_1  and  C_11
REMARK    2  A    between atoms: N_2  and  C_22
REMARK    3  A    between atoms: C_12  and  C_19
REMARK    4  A    between atoms: C_25  and  O_28
REMARK                            x       y       z     vdW  Elec       q    Type
REMARK                         _______ _______ _______ _____ _____    ______ ____
ROOT
ATOM      1  N   UNL     1      33.863 -24.332 -12.835  0.00  0.00    -0.287 N 
ATOM      2  N   UNL     1      32.231 -22.551 -16.898  0.00  0.00    -0.247 N 
ATOM      3  N   UNL     1      33.062 -23.428 -14.886  0.00  0.00    -0.322 NA
ATOM      4  N   UNL     1      30.731 -23.645 -15.463  0.00  0.00    -0.170 NA
ATOM      5  C   UNL     1      32.838 -24.099 -13.709  0.00  0.00    +0.198 C 
ATOM      6  C   UNL     1      31.996 -23.242 -15.689  0.00  0.00    +0.150 C 
ATOM      7  C   UNL     1      31.550 -24.557 -13.390  0.00  0.00    +0.070 C 
ATOM      8  C   UNL     1      30.543 -24.302 -14.300  0.00  0.00    +0.116 C 
ATOM      9  H   UNL     1      33.588 -24.484 -11.901  0.00  0.00    +0.155 HD
ATOM     10  H   UNL     1      31.431 -22.327 -17.426  0.00  0.00    +0.165 HD
ENDROOT
BRANCH   1  11
ATOM     11  C   UNL     1      35.256 -24.388 -13.063  0.00  0.00    +0.054 C 
ATOM     12  C   UNL     1      36.162 -24.211 -12.018  0.00  0.00    +0.067 C 
ATOM     13  C   UNL     1      35.721 -24.625 -14.357  0.00  0.00    +0.015 C 
ATOM     14  C   UNL     1      37.533 -24.269 -12.266  0.00  0.00    +0.006 C 
ATOM     15  C   UNL     1      37.092 -24.684 -14.606  0.00  0.00    +0.001 C 
ATOM     16  C   UNL     1      37.998 -24.506 -13.560  0.00  0.00    +0.000 C 
BRANCH  12  19
ATOM     17  O   UNL     1      34.943 -24.749 -10.077  0.00  0.00    -0.270 OA
ATOM     18  N   UNL     1      36.175 -22.816 -10.020  0.00  0.00    -0.325 N 
ATOM     19  C   UNL     1      35.708 -23.960 -10.656  0.00  0.00    +0.244 C 
ATOM     20  H   UNL     1      35.892 -22.614  -9.100  0.00  0.00    +0.145 HD
ATOM     21  H   UNL     1      36.792 -22.210 -10.490  0.00  0.00    +0.145 HD
ENDBRANCH  12  19
ENDBRANCH   1  11
BRANCH   2  22
ATOM     22  C   UNL     1      33.443 -22.146 -17.436  0.00  0.00    +0.061 C 
ATOM     23  C   UNL     1      34.611 -22.131 -16.652  0.00  0.00    +0.052 C 
ATOM     24  C   UNL     1      33.535 -21.741 -18.781  0.00  0.00    +0.015 C 
ATOM     25  C   UNL     1      35.831 -21.722 -17.195  0.00  0.00    +0.135 C 
ATOM     26  C   UNL     1      34.755 -21.334 -19.322  0.00  0.00    +0.004 C 
ATOM     27  C   UNL     1      35.902 -21.325 -18.529  0.00  0.00    +0.037 C 
BRANCH  25  28
ATOM     28  O   UNL     1      36.950 -21.712 -16.420  0.00  0.00    -0.505 OA
ATOM     29  H   UNL     1      37.778 -21.948 -16.789  0.00  0.00    +0.292 HD
ENDBRANCH  25  28
ENDBRANCH   2  22
TORSDOF 4
ENDMDL
MODEL 4
REMARK VINA RESULT:     -11.0      1.955      6.328
REMARK  Name = 16058637
REMARK  4 active torsions:
REMARK  status: ('A' for Active; 'I' for Inactive)
REMARK    1  A    between atoms: N_1  and  C_11
REMARK    2  A    between atoms: N_2  and  C_22
REMARK    3  A    between atoms: C_12  and  C_19
REMARK    4  A    between atoms: C_25  and  O_28
REMARK                            x       y       z     vdW  Elec       q    Type
REMARK                         _______ _______ _______ _____ _____    ______ ____
ROOT
ATOM      1  N   UNL     1      33.121 -22.871 -16.523  0.00  0.00    -0.287 N 
ATOM      2  N   UNL     1      33.959 -24.337 -12.107  0.00  0.00    -0.247 N 
ATOM      3  N   UNL     1      33.565 -23.607 -14.303  0.00  0.00    -0.322 NA
ATOM      4  N   UNL     1      31.738 -24.215 -12.853  0.00  0.00    -0.170 NA
ATOM      5  C   UNL     1      32.677 -23.316 -15.309  0.00  0.00    +0.198 C 
ATOM      6  C   UNL     1      33.041 -24.039 -13.138  0.00  0.00    +0.150 C 
ATOM      7  C   UNL     1      31.297 -23.470 -15.100  0.00  0.00    +0.070 C 
ATOM      8  C   UNL     1      30.890 -23.920 -13.860  0.00  0.00    +0.116 C 
ATOM      9  H   UNL     1      32.502 -23.021 -17.274  0.00  0.00    +0.155 HD
ATOM     10  H   UNL     1      33.576 -24.751 -11.300  0.00  0.00    +0.165 HD
ENDROOT
BRANCH   1  11
ATOM     11  C   UNL     1      34.333 -22.232 -16.867  0.00  0.00    +0.054 C 
ATOM     12  C   UNL     1      34.527 -21.702 -18.142  0.00  0.00    +0.067 C 
ATOM     13  C   UNL     1      35.343 -22.133 -15.909  0.00  0.00    +0.015 C 
ATOM     14  C   UNL     1      35.731 -21.075 -18.461  0.00  0.00    +0.006 C 
ATOM     15  C   UNL     1      36.546 -21.504 -16.227  0.00  0.00    +0.001 C 
ATOM     16  C   UNL     1      36.741 -20.975 -17.503  0.00  0.00    +0.000 C 
BRANCH  12  19
ATOM     17  O   UNL     1      33.077 -22.889 -19.568  0.00  0.00    -0.270 OA
ATOM     18  N   UNL     1      32.974 -20.600 -19.662  0.00  0.00    -0.325 N 
ATOM     19  C   UNL     1      33.492 -21.790 -19.165  0.00  0.00    +0.244 C 
ATOM     20  H   UNL     1      32.273 -20.620 -20.353  0.00  0.00    +0.145 HD
ATOM     21  H   UNL     1      33.306 -19.739 -19.321  0.00  0.00    +0.145 HD
ENDBRANCH  12  19
ENDBRANCH   1  11
BRANCH   2  22
ATOM     22  C   UNL     1      35.328 -24.123 -12.085  0.00  0.00    +0.061 C 
ATOM     23  C   UNL     1      36.222 -25.126 -12.501  0.00  0.00    +0.052 C 
ATOM     24  C   UNL     1      35.859 -22.895 -11.647  0.00  0.00    +0.015 C 
ATOM     25  C   UNL     1      37.601 -24.910 -12.478  0.00  0.00    +0.135 C 
ATOM     26  C   UNL     1      37.238 -22.680 -11.625  0.00  0.00    +0.004 C 
ATOM     27  C   UNL     1      38.108 -23.687 -12.041  0.00  0.00    +0.037 C 
BRANCH  25  28
ATOM     28  O   UNL     1      38.450 -25.894 -12.882  0.00  0.00    -0.505 OA
ATOM     29  H   UNL     1      38.361 -26.761 -12.539  0.00  0.00    +0.292 HD
ENDBRANCH  25  28
ENDBRANCH   2  22
TORSDOF 4
ENDMDL
MODEL 5
REMARK VINA RESULT:     -10.8      2.266      6.835
REMARK  Name = 16058637
REMARK  4 active torsions:
REMARK  status: ('A' for Active; 'I' for Inactive)
REMARK    1  A    between atoms: N_1  and  C_11
REMARK    2  A    between atoms: N_2  and  C_22
REMARK    3  A    between atoms: C_12  and  C_19
REMARK    4  A    between atoms: C_25  and  O_28
REMARK                            x       y       z     vdW  Elec       q    Type
REMARK                         _______ _______ _______ _____ _____    ______ ____
ROOT
ATOM      1  N   UNL     1      31.352 -22.394 -16.581  0.00  0.00    -0.287 N 
ATOM      2  N   UNL     1      36.047 -22.662 -16.095  0.00  0.00    -0.247 N 
ATOM      3  N   UNL     1      33.714 -22.536 -16.315  0.00  0.00    -0.322 NA
ATOM      4  N   UNL     1      35.165 -21.924 -18.139  0.00  0.00    -0.170 NA
ATOM      5  C   UNL     1      32.614 -22.242 -17.084  0.00  0.00    +0.198 C 
ATOM      6  C   UNL     1      34.920 -22.359 -16.889  0.00  0.00    +0.150 C 
ATOM      7  C   UNL     1      32.776 -21.783 -18.401  0.00  0.00    +0.070 C 
ATOM      8  C   UNL     1      34.066 -21.644 -18.870  0.00  0.00    +0.116 C 
ATOM      9  H   UNL     1      30.659 -21.853 -17.024  0.00  0.00    +0.155 HD
ATOM     10  H   UNL     1      36.920 -22.429 -16.484  0.00  0.00    +0.165 HD
ENDROOT
BRANCH   1  11
ATOM     11  C   UNL     1      30.889 -23.206 -15.522  0.00  0.00    +0.054 C 
ATOM     12  C   UNL     1      29.530 -23.480 -15.370  0.00  0.00    +0.067 C 
ATOM     13  C   UNL     1      31.813 -23.738 -14.622  0.00  0.00    +0.015 C 
ATOM     14  C   UNL     1      29.094 -24.285 -14.318  0.00  0.00    +0.006 C 
ATOM     15  C   UNL     1      31.378 -24.543 -13.570  0.00  0.00    +0.001 C 
ATOM     16  C   UNL     1      30.018 -24.817 -13.418  0.00  0.00    +0.000 C 
BRANCH  12  19
ATOM     17  O   UNL     1      28.557 -21.743 -16.628  0.00  0.00    -0.270 OA
ATOM     18  N   UNL     1      27.585 -23.813 -16.800  0.00  0.00    -0.325 N 
ATOM     19  C   UNL     1      28.540 -22.939 -16.293  0.00  0.00    +0.244 C 
ATOM     20  H   UNL     1      26.901 -23.484 -17.427  0.00  0.00    +0.145 HD
ATOM     21  H   UNL     1      27.595 -24.760 -16.534  0.00  0.00    +0.145 HD
ENDBRANCH  12  19
ENDBRANCH   1  11
BRANCH   2  22
ATOM     22  C   UNL     1      36.081 -23.245 -14.837  0.00  0.00    +0.061 C 
ATOM     23  C   UNL     1      36.264 -24.632 -14.689  0.00  0.00    +0.052 C 
ATOM     24  C   UNL     1      35.935 -22.463 -13.676  0.00  0.00    +0.015 C 
ATOM     25  C   UNL     1      36.297 -25.217 -13.423  0.00  0.00    +0.135 C 
ATOM     26  C   UNL     1      35.969 -23.049 -12.410  0.00  0.00    +0.004 C 
ATOM     27  C   UNL     1      36.150 -24.426 -12.284  0.00  0.00    +0.037 C 
BRANCH  25  28
ATOM     28  O   UNL     1      36.472 -26.561 -13.300  0.00  0.00    -0.505 OA
ATOM     29  H   UNL     1      36.216 -27.134 -13.996  0.00  0.00    +0.292 HD
ENDBRANCH  25  28
ENDBRANCH   2  22
TORSDOF 4
ENDMDL
MODEL 6
REMARK VINA RESULT:     -10.6      1.831      4.514
REMARK  Name = 16058637
REMARK  4 active torsions:
REMARK  status: ('A' for Active; 'I' for Inactive)
REMARK    1  A    between atoms: N_1  and  C_11
REMARK    2  A    between atoms: N_2  and  C_22
REMARK    3  A    between atoms: C_12  and  C_19
REMARK    4  A    between atoms: C_25  and  O_28
REMARK                            x       y       z     vdW  Elec       q    Type
REMARK                         _______ _______ _______ _____ _____    ______ ____
ROOT
ATOM      1  N   UNL     1      33.518 -23.616 -14.950  0.00  0.00    -0.287 N 
ATOM      2  N   UNL     1      36.218 -21.272 -18.043  0.00  0.00    -0.247 N 
ATOM      3  N   UNL     1      34.860 -22.433 -16.521  0.00  0.00    -0.322 NA
ATOM      4  N   UNL     1      37.209 -22.109 -16.089  0.00  0.00    -0.170 NA
ATOM      5  C   UNL     1      34.730 -23.115 -15.336  0.00  0.00    +0.198 C 
ATOM      6  C   UNL     1      36.090 -21.973 -16.824  0.00  0.00    +0.150 C 
ATOM      7  C   UNL     1      35.846 -23.305 -14.504  0.00  0.00    +0.070 C 
ATOM      8  C   UNL     1      37.050 -22.783 -14.930  0.00  0.00    +0.116 C 
ATOM      9  H   UNL     1      33.561 -24.364 -14.311  0.00  0.00    +0.155 HD
ATOM     10  H   UNL     1      37.136 -21.034 -18.306  0.00  0.00    +0.165 HD
ENDROOT
BRANCH   1  11
ATOM     11  C   UNL     1      32.214 -23.227 -15.327  0.00  0.00    +0.054 C 
ATOM     12  C   UNL     1      31.119 -23.497 -14.507  0.00  0.00    +0.067 C 
ATOM     13  C   UNL     1      32.029 -22.561 -16.539  0.00  0.00    +0.015 C 
ATOM     14  C   UNL     1      29.840 -23.104 -14.898  0.00  0.00    +0.006 C 
ATOM     15  C   UNL     1      30.750 -22.167 -16.931  0.00  0.00    +0.001 C 
ATOM     16  C   UNL     1      29.655 -22.438 -16.111  0.00  0.00    +0.000 C 
BRANCH  12  19
ATOM     17  O   UNL     1      32.389 -24.282 -12.685  0.00  0.00    -0.270 OA
ATOM     18  N   UNL     1      30.141 -24.734 -12.649  0.00  0.00    -0.325 N 
ATOM     19  C   UNL     1      31.279 -24.192 -13.235  0.00  0.00    +0.244 C 
ATOM     20  H   UNL     1      30.209 -25.209 -11.790  0.00  0.00    +0.145 HD
ATOM     21  H   UNL     1      29.267 -24.641 -13.093  0.00  0.00    +0.145 HD
ENDBRANCH  12  19
ENDBRANCH   1  11
BRANCH   2  22
ATOM     22  C   UNL     1      35.217 -20.878 -18.918  0.00  0.00    +0.061 C 
ATOM     23  C   UNL     1      35.482 -19.961 -19.951  0.00  0.00    +0.052 C 
ATOM     24  C   UNL     1      33.911 -21.386 -18.794  0.00  0.00    +0.015 C 
ATOM     25  C   UNL     1      34.474 -19.564 -20.831  0.00  0.00    +0.135 C 
ATOM     26  C   UNL     1      32.903 -20.989 -19.675  0.00  0.00    +0.004 C 
ATOM     27  C   UNL     1      33.185 -20.079 -20.692  0.00  0.00    +0.037 C 
BRANCH  25  28
ATOM     28  O   UNL     1      34.749 -18.674 -21.823  0.00  0.00    -0.505 OA
ATOM     29  H   UNL     1      35.620 -18.603 -22.162  0.00  0.00    +0.292 HD
ENDBRANCH  25  28
ENDBRANCH   2  22
TORSDOF 4
ENDMDL
MODEL 7
REMARK VINA RESULT:     -10.2      1.948      4.590
REMARK  Name = 16058637
REMARK  4 active torsions:
REMARK  status: ('A' for Active; 'I' for Inactive)
REMARK    1  A    between atoms: N_1  and  C_11
REMARK    2  A    between atoms: N_2  and  C_22
REMARK    3  A    between atoms: C_12  and  C_19
REMARK    4  A    between atoms: C_25  and  O_28
REMARK                            x       y       z     vdW  Elec       q    Type
REMARK                         _______ _______ _______ _____ _____    ______ ____
ROOT
ATOM      1  N   UNL     1      33.544 -23.601 -14.934  0.00  0.00    -0.287 N 
ATOM      2  N   UNL     1      36.393 -21.334 -17.950  0.00  0.00    -0.247 N 
ATOM      3  N   UNL     1      34.962 -22.456 -16.467  0.00  0.00    -0.322 NA
ATOM      4  N   UNL     1      37.309 -22.211 -15.976  0.00  0.00    -0.170 NA
ATOM      5  C   UNL     1      34.781 -23.138 -15.289  0.00  0.00    +0.198 C 
ATOM      6  C   UNL     1      36.213 -22.035 -16.738  0.00  0.00    +0.150 C 
ATOM      7  C   UNL     1      35.869 -23.367 -14.431  0.00  0.00    +0.070 C 
ATOM      8  C   UNL     1      37.100 -22.883 -14.825  0.00  0.00    +0.116 C 
ATOM      9  H   UNL     1      33.547 -24.353 -14.298  0.00  0.00    +0.155 HD
ATOM     10  H   UNL     1      37.324 -21.125 -18.190  0.00  0.00    +0.165 HD
ENDROOT
BRANCH   1  11
ATOM     11  C   UNL     1      32.263 -23.168 -15.341  0.00  0.00    +0.054 C 
ATOM     12  C   UNL     1      31.137 -23.425 -14.559  0.00  0.00    +0.067 C 
ATOM     13  C   UNL     1      32.133 -22.473 -16.544  0.00  0.00    +0.015 C 
ATOM     14  C   UNL     1      29.882 -22.988 -14.979  0.00  0.00    +0.006 C 
ATOM     15  C   UNL     1      30.877 -22.036 -16.964  0.00  0.00    +0.001 C 
ATOM     16  C   UNL     1      29.751 -22.293 -16.182  0.00  0.00    +0.000 C 
BRANCH  12  19
ATOM     17  O   UNL     1      32.332 -24.291 -12.724  0.00  0.00    -0.270 OA
ATOM     18  N   UNL     1      30.069 -24.661 -12.750  0.00  0.00    -0.325 N 
ATOM     19  C   UNL     1      31.240 -24.149 -13.298  0.00  0.00    +0.244 C 
ATOM     20  H   UNL     1      30.098 -25.154 -11.900  0.00  0.00    +0.145 HD
ATOM     21  H   UNL     1      29.211 -24.527 -13.213  0.00  0.00    +0.145 HD
ENDBRANCH  12  19
ENDBRANCH   1  11
BRANCH   2  22
ATOM     22  C   UNL     1      35.427 -20.904 -18.847  0.00  0.00    +0.061 C 
ATOM     23  C   UNL     1      34.147 -21.488 -18.865  0.00  0.00    +0.052 C 
ATOM     24  C   UNL     1      35.702 -19.872 -19.763  0.00  0.00    +0.015 C 
ATOM     25  C   UNL     1      33.176 -21.055 -19.768  0.00  0.00    +0.135 C 
ATOM     26  C   UNL     1      34.731 -19.439 -20.666  0.00  0.00    +0.004 C 
ATOM     27  C   UNL     1      33.468 -20.030 -20.668  0.00  0.00    +0.037 C 
BRANCH  25  28
ATOM     28  O   UNL     1      31.944 -21.634 -19.772  0.00  0.00    -0.505 OA
ATOM     29  H   UNL     1      31.227 -21.208 -20.199  0.00  0.00    +0.292 HD
ENDBRANCH  25  28
ENDBRANCH   2  22
TORSDOF 4
ENDMDL
MODEL 8
REMARK VINA RESULT:      -9.9      2.230      4.951
REMARK  Name = 16058637
REMARK  4 active torsions:
REMARK  status: ('A' for Active; 'I' for Inactive)
REMARK    1  A    between atoms: N_1  and  C_11
REMARK    2  A    between atoms: N_2  and  C_22
REMARK    3  A    between atoms: C_12  and  C_19
REMARK    4  A    between atoms: C_25  and  O_28
REMARK                            x       y       z     vdW  Elec       q    Type
REMARK                         _______ _______ _______ _____ _____    ______ ____
ROOT
ATOM      1  N   UNL     1      32.307 -23.856 -14.031  0.00  0.00    -0.287 N 
ATOM      2  N   UNL     1      36.141 -22.127 -16.189  0.00  0.00    -0.247 N 
ATOM      3  N   UNL     1      34.226 -22.982 -15.137  0.00  0.00    -0.322 NA
ATOM      4  N   UNL     1      36.330 -22.857 -13.968  0.00  0.00    -0.170 NA
ATOM      5  C   UNL     1      33.633 -23.523 -14.022  0.00  0.00    +0.198 C 
ATOM      6  C   UNL     1      35.537 -22.683 -15.041  0.00  0.00    +0.150 C 
ATOM      7  C   UNL     1      34.385 -23.739 -12.856  0.00  0.00    +0.070 C 
ATOM      8  C   UNL     1      35.719 -23.389 -12.888  0.00  0.00    +0.116 C 
ATOM      9  H   UNL     1      32.043 -24.536 -13.369  0.00  0.00    +0.155 HD
ATOM     10  H   UNL     1      37.118 -22.011 -16.145  0.00  0.00    +0.165 HD
ENDROOT
BRANCH   1  11
ATOM     11  C   UNL     1      31.257 -23.377 -14.845  0.00  0.00    +0.054 C 
ATOM     12  C   UNL     1      29.939 -23.777 -14.625  0.00  0.00    +0.067 C 
ATOM     13  C   UNL     1      31.553 -22.489 -15.881  0.00  0.00    +0.015 C 
ATOM     14  C   UNL     1      28.917 -23.291 -15.440  0.00  0.00    +0.006 C 
ATOM     15  C   UNL     1      30.531 -22.003 -16.696  0.00  0.00    +0.001 C 
ATOM     16  C   UNL     1      29.213 -22.404 -16.476  0.00  0.00    +0.000 C 
BRANCH  12  19
ATOM     17  O   UNL     1      30.119 -24.609 -12.430  0.00  0.00    -0.270 OA
ATOM     18  N   UNL     1      28.653 -25.686 -13.826  0.00  0.00    -0.325 N 
ATOM     19  C   UNL     1      29.597 -24.703 -13.553  0.00  0.00    +0.244 C 
ATOM     20  H   UNL     1      28.396 -26.329 -13.127  0.00  0.00    +0.145 HD
ATOM     21  H   UNL     1      28.241 -25.737 -14.718  0.00  0.00    +0.145 HD
ENDBRANCH  12  19
ENDBRANCH   1  11
BRANCH   2  22
ATOM     22  C   UNL     1      35.537 -21.724 -17.370  0.00  0.00    +0.061 C 
ATOM     23  C   UNL     1      34.218 -22.107 -17.673  0.00  0.00    +0.052 C 
ATOM     24  C   UNL     1      36.229 -20.921 -18.296  0.00  0.00    +0.015 C 
ATOM     25  C   UNL     1      33.611 -21.701 -18.862  0.00  0.00    +0.135 C 
ATOM     26  C   UNL     1      35.621 -20.515 -19.485  0.00  0.00    +0.004 C 
ATOM     27  C   UNL     1      34.313 -20.905 -19.767  0.00  0.00    +0.037 C 
BRANCH  25  28
ATOM     28  O   UNL     1      32.334 -22.083 -19.139  0.00  0.00    -0.505 OA
ATOM     29  H   UNL     1      31.873 -22.643 -18.545  0.00  0.00    +0.292 HD
ENDBRANCH  25  28
ENDBRANCH   2  22
TORSDOF 4
ENDMDL
MODEL 9
REMARK VINA RESULT:      -9.8      2.697      5.355
REMARK  Name = 16058637
REMARK  4 active torsions:
REMARK  status: ('A' for Active; 'I' for Inactive)
REMARK    1  A    between atoms: N_1  and  C_11
REMARK    2  A    between atoms: N_2  and  C_22
REMARK    3  A    between atoms: C_12  and  C_19
REMARK    4  A    between atoms: C_25  and  O_28
REMARK                            x       y       z     vdW  Elec       q    Type
REMARK                         _______ _______ _______ _____ _____    ______ ____
ROOT
ATOM      1  N   UNL     1      35.373 -22.337 -14.987  0.00  0.00    -0.287 N 
ATOM      2  N   UNL     1      31.522 -24.255 -13.025  0.00  0.00    -0.247 N 
ATOM      3  N   UNL     1      33.421 -23.295 -14.016  0.00  0.00    -0.322 NA
ATOM      4  N   UNL     1      33.578 -24.465 -11.914  0.00  0.00    -0.170 NA
ATOM      5  C   UNL     1      34.770 -23.037 -13.979  0.00  0.00    +0.198 C 
ATOM      6  C   UNL     1      32.909 -23.992 -12.982  0.00  0.00    +0.150 C 
ATOM      7  C   UNL     1      35.547 -23.493 -12.902  0.00  0.00    +0.070 C 
ATOM      8  C   UNL     1      34.900 -24.196 -11.906  0.00  0.00    +0.116 C 
ATOM      9  H   UNL     1      36.217 -21.895 -14.740  0.00  0.00    +0.155 HD
ATOM     10  H   UNL     1      31.140 -24.669 -12.219  0.00  0.00    +0.165 HD
ENDROOT
BRANCH   1  11
ATOM     11  C   UNL     1      34.971 -22.149 -16.328  0.00  0.00    +0.054 C 
ATOM     12  C   UNL     1      35.757 -21.418 -17.217  0.00  0.00    +0.067 C 
ATOM     13  C   UNL     1      33.768 -22.709 -16.759  0.00  0.00    +0.015 C 
ATOM     14  C   UNL     1      35.342 -21.245 -18.536  0.00  0.00    +0.006 C 
ATOM     15  C   UNL     1      33.352 -22.537 -18.079  0.00  0.00    +0.001 C 
ATOM     16  C   UNL     1      34.139 -21.805 -18.968  0.00  0.00    +0.000 C 
BRANCH  12  19
ATOM     17  O   UNL     1      37.854 -21.467 -16.144  0.00  0.00    -0.270 OA
ATOM     18  N   UNL     1      37.263 -19.502 -17.167  0.00  0.00    -0.325 N 
ATOM     19  C   UNL     1      37.019 -20.819 -16.797  0.00  0.00    +0.244 C 
ATOM     20  H   UNL     1      38.104 -19.064 -16.903  0.00  0.00    +0.145 HD
ATOM     21  H   UNL     1      36.595 -19.009 -17.696  0.00  0.00    +0.145 HD
ENDBRANCH  12  19
ENDBRANCH   1  11
BRANCH   2  22
ATOM     22  C   UNL     1      30.631 -24.003 -14.057  0.00  0.00    +0.061 C 
ATOM     23  C   UNL     1      30.883 -22.988 -14.998  0.00  0.00    +0.052 C 
ATOM     24  C   UNL     1      29.450 -24.757 -14.188  0.00  0.00    +0.015 C 
ATOM     25  C   UNL     1      29.985 -22.736 -16.035  0.00  0.00    +0.135 C 
ATOM     26  C   UNL     1      28.552 -24.504 -15.226  0.00  0.00    +0.004 C 
ATOM     27  C   UNL     1      28.820 -23.494 -16.149  0.00  0.00    +0.037 C 
BRANCH  25  28
ATOM     28  O   UNL     1      30.245 -21.748 -16.935  0.00  0.00    -0.505 OA
ATOM     29  H   UNL     1      30.742 -20.997 -16.676  0.00  0.00    +0.292 HD
ENDBRANCH  25  28
ENDBRANCH   2  22
TORSDOF 4
ENDMDL
