MODEL 1
REMARK VINA RESULT:     -12.4      0.000      0.000
REMARK  Name = 2929
REMARK  5 active torsions:
REMARK  status: ('A' for Active; 'I' for Inactive)
REMARK    1  A    between atoms: N_1  and  C_22
REMARK    2  A    between atoms: C_4  and  C_11
REMARK    3  A    between atoms: C_11  and  C_14
REMARK    4  A    between atoms: N_13  and  C_17
REMARK    5  A    between atoms: C_22  and  C_24
REMARK                            x       y       z     vdW  Elec       q    Type
REMARK                         _______ _______ _______ _____ _____    ______ ____
ROOT
ATOM      1  N   UNL     1      33.663 -22.923 -14.853  0.00  0.00    -0.281 N 
ATOM      2  C   UNL     1      32.291 -22.814 -14.866  0.00  0.00    +0.052 C 
ATOM      3  C   UNL     1      31.901 -22.679 -16.199  0.00  0.00    +0.018 C 
ATOM      4  C   UNL     1      33.085 -22.710 -16.986  0.00  0.00    +0.060 C 
ATOM      5  C   UNL     1      34.153 -22.861 -16.130  0.00  0.00    +0.069 C 
ATOM      6  C   UNL     1      31.375 -22.826 -13.807  0.00  0.00    +0.015 C 
ATOM      7  C   UNL     1      30.529 -22.547 -16.494  0.00  0.00    +0.001 C 
ATOM      8  C   UNL     1      30.020 -22.694 -14.124  0.00  0.00    +0.001 C 
ATOM      9  C   UNL     1      29.601 -22.557 -15.446  0.00  0.00    +0.000 C 
ENDROOT
BRANCH   4  11
ATOM     10  O   UNL     1      33.310 -23.574 -19.187  0.00  0.00    -0.282 OA
ATOM     11  C   UNL     1      33.205 -22.607 -18.413  0.00  0.00    +0.250 C 
BRANCH  11  14
ATOM     12  O   UNL     1      32.215 -20.600 -19.073  0.00  0.00    -0.266 OA
ATOM     13  N   UNL     1      34.437 -21.057 -19.758  0.00  0.00    -0.278 N 
ATOM     14  C   UNL     1      33.227 -21.276 -19.133  0.00  0.00    +0.289 C 
ATOM     15  H   UNL     1      35.115 -21.764 -19.664  0.00  0.00    +0.155 HD
BRANCH  13  17
ATOM     16  N   UNL     1      35.534 -17.695 -22.005  0.00  0.00    -0.242 NA
ATOM     17  C   UNL     1      34.807 -19.923 -20.517  0.00  0.00    +0.054 C 
ATOM     18  C   UNL     1      33.914 -19.393 -21.427  0.00  0.00    +0.035 C 
ATOM     19  C   UNL     1      36.056 -19.363 -20.335  0.00  0.00    +0.035 C 
ATOM     20  C   UNL     1      34.324 -18.281 -22.145  0.00  0.00    +0.100 C 
ATOM     21  C   UNL     1      36.371 -18.253 -21.102  0.00  0.00    +0.100 C 
ENDBRANCH  13  17
ENDBRANCH  11  14
ENDBRANCH   4  11
BRANCH   1  22
ATOM     22  C   UNL     1      34.485 -23.081 -13.672  0.00  0.00    +0.122 C 
BRANCH  22  24
ATOM     23 CL   UNL     1      39.900 -25.272 -15.048  0.00  0.00    -0.082 Cl
ATOM     24  C   UNL     1      35.843 -23.631 -14.018  0.00  0.00    -0.002 C 
ATOM     25  C   UNL     1      36.108 -24.978 -13.812  0.00  0.00    -0.002 C 
ATOM     26  C   UNL     1      36.812 -22.783 -14.537  0.00  0.00    -0.002 C 
ATOM     27  C   UNL     1      37.367 -25.486 -14.132  0.00  0.00    +0.011 C 
ATOM     28  C   UNL     1      38.070 -23.292 -14.856  0.00  0.00    +0.011 C 
ATOM     29  C   UNL     1      38.348 -24.644 -14.654  0.00  0.00    +0.058 C 
ENDBRANCH  22  24
ENDBRANCH   1  22
TORSDOF 5
ENDMDL
MODEL 2
REMARK VINA RESULT:     -11.5      2.998      5.263
REMARK  Name = 2929
REMARK  5 active torsions:
REMARK  status: ('A' for Active; 'I' for Inactive)
REMARK    1  A    between atoms: N_1  and  C_22
REMARK    2  A    between atoms: C_4  and  C_11
REMARK    3  A    between atoms: C_11  and  C_14
REMARK    4  A    between atoms: N_13  and  C_17
REMARK    5  A    between atoms: C_22  and  C_24
REMARK                            x       y       z     vdW  Elec       q    Type
REMARK                         _______ _______ _______ _____ _____    ______ ____
ROOT
ATOM      1  N   UNL     1      33.188 -23.018 -15.730  0.00  0.00    -0.281 N 
ATOM      2  C   UNL     1      34.485 -22.577 -15.599  0.00  0.00    +0.052 C 
ATOM      3  C   UNL     1      34.916 -22.182 -16.867  0.00  0.00    +0.018 C 
ATOM      4  C   UNL     1      33.833 -22.403 -17.763  0.00  0.00    +0.060 C 
ATOM      5  C   UNL     1      32.785 -22.917 -17.035  0.00  0.00    +0.069 C 
ATOM      6  C   UNL     1      35.301 -22.497 -14.465  0.00  0.00    +0.015 C 
ATOM      7  C   UNL     1      36.226 -21.685 -17.013  0.00  0.00    +0.001 C 
ATOM      8  C   UNL     1      36.596 -21.999 -14.634  0.00  0.00    +0.001 C 
ATOM      9  C   UNL     1      37.053 -21.598 -15.888  0.00  0.00    +0.000 C 
ENDROOT
BRANCH   4  11
ATOM     10  O   UNL     1      34.014 -23.000 -20.055  0.00  0.00    -0.282 OA
ATOM     11  C   UNL     1      33.787 -22.152 -19.176  0.00  0.00    +0.250 C 
BRANCH  11  14
ATOM     12  O   UNL     1      32.411 -20.279 -19.393  0.00  0.00    -0.266 OA
ATOM     13  N   UNL     1      34.442 -20.351 -20.610  0.00  0.00    -0.278 N 
ATOM     14  C   UNL     1      33.459 -20.790 -19.749  0.00  0.00    +0.289 C 
ATOM     15  H   UNL     1      35.211 -20.952 -20.743  0.00  0.00    +0.155 HD
BRANCH  13  17
ATOM     16  N   UNL     1      34.517 -16.729 -22.715  0.00  0.00    -0.242 NA
ATOM     17  C   UNL     1      34.467 -19.128 -21.320  0.00  0.00    +0.054 C 
ATOM     18  C   UNL     1      34.975 -17.999 -20.710  0.00  0.00    +0.035 C 
ATOM     19  C   UNL     1      33.984 -19.085 -22.612  0.00  0.00    +0.035 C 
ATOM     20  C   UNL     1      34.978 -16.826 -21.448  0.00  0.00    +0.100 C 
ATOM     21  C   UNL     1      34.030 -17.864 -23.266  0.00  0.00    +0.100 C 
ENDBRANCH  13  17
ENDBRANCH  11  14
ENDBRANCH   4  11
BRANCH   1  22
ATOM     22  C   UNL     1      32.356 -23.520 -14.657  0.00  0.00    +0.122 C 
BRANCH  22  24
ATOM     23 CL   UNL     1      26.579 -22.159 -15.551  0.00  0.00    -0.082 Cl
ATOM     24  C   UNL     1      30.907 -23.179 -14.880  0.00  0.00    -0.002 C 
ATOM     25  C   UNL     1      30.069 -24.113 -15.474  0.00  0.00    -0.002 C 
ATOM     26  C   UNL     1      30.429 -21.936 -14.491  0.00  0.00    -0.002 C 
ATOM     27  C   UNL     1      28.726 -23.796 -15.682  0.00  0.00    +0.011 C 
ATOM     28  C   UNL     1      29.087 -21.619 -14.699  0.00  0.00    +0.011 C 
ATOM     29  C   UNL     1      28.235 -22.550 -15.294  0.00  0.00    +0.058 C 
ENDBRANCH  22  24
ENDBRANCH   1  22
TORSDOF 5
ENDMDL
MODEL 3
REMARK VINA RESULT:     -11.2      2.766      5.337
REMARK  Name = 2929
REMARK  5 active torsions:
REMARK  status: ('A' for Active; 'I' for Inactive)
REMARK    1  A    between atoms: N_1  and  C_22
REMARK    2  A    between atoms: C_4  and  C_11
REMARK    3  A    between atoms: C_11  and  C_14
REMARK    4  A    between atoms: N_13  and  C_17
REMARK    5  A    between atoms: C_22  and  C_24
REMARK                            x       y       z     vdW  Elec       q    Type
REMARK                         _______ _______ _______ _____ _____    ______ ____
ROOT
ATOM      1  N   UNL     1      35.019 -23.279 -14.503  0.00  0.00    -0.281 N 
ATOM      2  C   UNL     1      36.296 -23.790 -14.435  0.00  0.00    +0.052 C 
ATOM      3  C   UNL     1      37.079 -23.061 -15.332  0.00  0.00    +0.018 C 
ATOM      4  C   UNL     1      36.228 -22.097 -15.941  0.00  0.00    +0.060 C 
ATOM      5  C   UNL     1      34.968 -22.256 -15.411  0.00  0.00    +0.069 C 
ATOM      6  C   UNL     1      36.811 -24.830 -13.654  0.00  0.00    +0.015 C 
ATOM      7  C   UNL     1      38.444 -23.386 -15.459  0.00  0.00    +0.001 C 
ATOM      8  C   UNL     1      38.168 -25.135 -13.796  0.00  0.00    +0.001 C 
ATOM      9  C   UNL     1      38.973 -24.424 -14.684  0.00  0.00    +0.000 C 
ENDROOT
BRANCH   4  11
ATOM     10  O   UNL     1      37.456 -20.254 -16.801  0.00  0.00    -0.282 OA
ATOM     11  C   UNL     1      36.568 -21.114 -16.931  0.00  0.00    +0.250 C 
BRANCH  11  14
ATOM     12  O   UNL     1      35.118 -21.945 -18.560  0.00  0.00    -0.266 OA
ATOM     13  N   UNL     1      36.173 -19.856 -18.929  0.00  0.00    -0.278 N 
ATOM     14  C   UNL     1      35.852 -21.019 -18.261  0.00  0.00    +0.289 C 
ATOM     15  H   UNL     1      36.804 -19.249 -18.478  0.00  0.00    +0.155 HD
BRANCH  13  17
ATOM     16  N   UNL     1      34.743 -18.626 -22.670  0.00  0.00    -0.242 NA
ATOM     17  C   UNL     1      35.690 -19.440 -20.191  0.00  0.00    +0.054 C 
ATOM     18  C   UNL     1      36.486 -18.648 -20.995  0.00  0.00    +0.035 C 
ATOM     19  C   UNL     1      34.431 -19.834 -20.599  0.00  0.00    +0.035 C 
ATOM     20  C   UNL     1      35.967 -18.269 -22.223  0.00  0.00    +0.100 C 
ATOM     21  C   UNL     1      34.005 -19.401 -21.844  0.00  0.00    +0.100 C 
ENDBRANCH  13  17
ENDBRANCH  11  14
ENDBRANCH   4  11
BRANCH   1  22
ATOM     22  C   UNL     1      33.883 -23.744 -13.736  0.00  0.00    +0.122 C 
BRANCH  22  24
ATOM     23 CL   UNL     1      28.703 -22.094 -16.277  0.00  0.00    -0.082 Cl
ATOM     24  C   UNL     1      32.584 -23.331 -14.373  0.00  0.00    -0.002 C 
ATOM     25  C   UNL     1      32.469 -23.337 -15.757  0.00  0.00    -0.002 C 
ATOM     26  C   UNL     1      31.519 -22.950 -13.569  0.00  0.00    -0.002 C 
ATOM     27  C   UNL     1      31.264 -22.953 -16.347  0.00  0.00    +0.011 C 
ATOM     28  C   UNL     1      30.315 -22.566 -14.159  0.00  0.00    +0.011 C 
ATOM     29  C   UNL     1      30.188 -22.568 -15.549  0.00  0.00    +0.058 C 
ENDBRANCH  22  24
ENDBRANCH   1  22
TORSDOF 5
ENDMDL
MODEL 4
REMARK VINA RESULT:     -11.1      2.993      6.923
REMARK  Name = 2929
REMARK  5 active torsions:
REMARK  status: ('A' for Active; 'I' for Inactive)
REMARK    1  A    between atoms: N_1  and  C_22
REMARK    2  A    between atoms: C_4  and  C_11
REMARK    3  A    between atoms: C_11  and  C_14
REMARK    4  A    between atoms: N_13  and  C_17
REMARK    5  A    between atoms: C_22  and  C_24
REMARK                            x       y       z     vdW  Elec       q    Type
REMARK                         _______ _______ _______ _____ _____    ______ ____
ROOT
ATOM      1  N   UNL     1      32.551 -22.466 -17.292  0.00  0.00    -0.281 N 
ATOM      2  C   UNL     1      31.561 -22.551 -16.339  0.00  0.00    +0.052 C 
ATOM      3  C   UNL     1      32.188 -22.789 -15.114  0.00  0.00    +0.018 C 
ATOM      4  C   UNL     1      33.587 -22.844 -15.365  0.00  0.00    +0.060 C 
ATOM      5  C   UNL     1      33.780 -22.641 -16.713  0.00  0.00    +0.069 C 
ATOM      6  C   UNL     1      30.173 -22.436 -16.468  0.00  0.00    +0.015 C 
ATOM      7  C   UNL     1      31.391 -22.921 -13.960  0.00  0.00    +0.001 C 
ATOM      8  C   UNL     1      29.403 -22.569 -15.309  0.00  0.00    +0.001 C 
ATOM      9  C   UNL     1      30.001 -22.807 -14.073  0.00  0.00    +0.000 C 
ENDROOT
BRANCH   4  11
ATOM     10  O   UNL     1      34.816 -22.415 -13.378  0.00  0.00    -0.282 OA
ATOM     11  C   UNL     1      34.648 -23.065 -14.424  0.00  0.00    +0.250 C 
BRANCH  11  14
ATOM     12  O   UNL     1      35.353 -25.153 -15.194  0.00  0.00    -0.266 OA
ATOM     13  N   UNL     1      36.919 -23.751 -14.102  0.00  0.00    -0.278 N 
ATOM     14  C   UNL     1      35.702 -24.134 -14.624  0.00  0.00    +0.289 C 
ATOM     15  H   UNL     1      36.957 -22.862 -13.678  0.00  0.00    +0.155 HD
BRANCH  13  17
ATOM     16  N   UNL     1      40.478 -25.963 -14.132  0.00  0.00    -0.242 NA
ATOM     17  C   UNL     1      38.120 -24.496 -14.111  0.00  0.00    +0.054 C 
ATOM     18  C   UNL     1      38.400 -25.346 -13.060  0.00  0.00    +0.035 C 
ATOM     19  C   UNL     1      38.993 -24.364 -15.173  0.00  0.00    +0.035 C 
ATOM     20  C   UNL     1      39.589 -26.056 -13.117  0.00  0.00    +0.100 C 
ATOM     21  C   UNL     1      40.155 -25.116 -15.136  0.00  0.00    +0.100 C 
ENDBRANCH  13  17
ENDBRANCH  11  14
ENDBRANCH   4  11
BRANCH   1  22
ATOM     22  C   UNL     1      32.343 -22.226 -18.704  0.00  0.00    +0.122 C 
BRANCH  22  24
ATOM     23 CL   UNL     1      36.573 -18.615 -20.960  0.00  0.00    -0.082 Cl
ATOM     24  C   UNL     1      33.404 -21.320 -19.269  0.00  0.00    -0.002 C 
ATOM     25  C   UNL     1      33.032 -20.247 -20.067  0.00  0.00    -0.002 C 
ATOM     26  C   UNL     1      34.739 -21.570 -18.985  0.00  0.00    -0.002 C 
ATOM     27  C   UNL     1      34.015 -19.408 -20.591  0.00  0.00    +0.011 C 
ATOM     28  C   UNL     1      35.722 -20.732 -19.510  0.00  0.00    +0.011 C 
ATOM     29  C   UNL     1      35.360 -19.650 -20.312  0.00  0.00    +0.058 C 
ENDBRANCH  22  24
ENDBRANCH   1  22
TORSDOF 5
ENDMDL
MODEL 5
REMARK VINA RESULT:     -11.1      3.627      7.390
REMARK  Name = 2929
REMARK  5 active torsions:
REMARK  status: ('A' for Active; 'I' for Inactive)
REMARK    1  A    between atoms: N_1  and  C_22
REMARK    2  A    between atoms: C_4  and  C_11
REMARK    3  A    between atoms: C_11  and  C_14
REMARK    4  A    between atoms: N_13  and  C_17
REMARK    5  A    between atoms: C_22  and  C_24
REMARK                            x       y       z     vdW  Elec       q    Type
REMARK                         _______ _______ _______ _____ _____    ______ ____
ROOT
ATOM      1  N   UNL     1      36.553 -22.708 -15.138  0.00  0.00    -0.281 N 
ATOM      2  C   UNL     1      37.348 -23.683 -14.578  0.00  0.00    +0.052 C 
ATOM      3  C   UNL     1      36.618 -24.263 -13.539  0.00  0.00    +0.018 C 
ATOM      4  C   UNL     1      35.359 -23.604 -13.495  0.00  0.00    +0.060 C 
ATOM      5  C   UNL     1      35.348 -22.653 -14.489  0.00  0.00    +0.069 C 
ATOM      6  C   UNL     1      38.645 -24.090 -14.911  0.00  0.00    +0.015 C 
ATOM      7  C   UNL     1      37.211 -25.301 -12.793  0.00  0.00    +0.001 C 
ATOM      8  C   UNL     1      39.212 -25.121 -14.157  0.00  0.00    +0.001 C 
ATOM      9  C   UNL     1      38.507 -25.720 -13.114  0.00  0.00    +0.000 C 
ENDROOT
BRANCH   4  11
ATOM     10  O   UNL     1      34.357 -24.426 -11.504  0.00  0.00    -0.282 OA
ATOM     11  C   UNL     1      34.263 -23.846 -12.599  0.00  0.00    +0.250 C 
BRANCH  11  14
ATOM     12  O   UNL     1      32.378 -22.518 -12.236  0.00  0.00    -0.266 OA
ATOM     13  N   UNL     1      32.312 -24.150 -13.953  0.00  0.00    -0.278 N 
ATOM     14  C   UNL     1      32.846 -23.417 -12.914  0.00  0.00    +0.289 C 
ATOM     15  H   UNL     1      32.894 -24.837 -14.351  0.00  0.00    +0.155 HD
BRANCH  13  17
ATOM     16  N   UNL     1      28.479 -23.757 -15.600  0.00  0.00    -0.242 NA
ATOM     17  C   UNL     1      31.019 -24.018 -14.509  0.00  0.00    +0.054 C 
ATOM     18  C   UNL     1      30.025 -24.898 -14.132  0.00  0.00    +0.035 C 
ATOM     19  C   UNL     1      30.772 -23.010 -15.420  0.00  0.00    +0.035 C 
ATOM     20  C   UNL     1      28.775 -24.726 -14.705  0.00  0.00    +0.100 C 
ATOM     21  C   UNL     1      29.489 -22.922 -15.935  0.00  0.00    +0.100 C 
ENDBRANCH  13  17
ENDBRANCH  11  14
ENDBRANCH   4  11
BRANCH   1  22
ATOM     22  C   UNL     1      36.920 -21.856 -16.249  0.00  0.00    +0.122 C 
BRANCH  22  24
ATOM     23 CL   UNL     1      32.348 -21.160 -20.075  0.00  0.00    -0.082 Cl
ATOM     24  C   UNL     1      35.773 -21.682 -17.209  0.00  0.00    -0.002 C 
ATOM     25  C   UNL     1      35.975 -20.993 -18.397  0.00  0.00    -0.002 C 
ATOM     26  C   UNL     1      34.531 -22.213 -16.893  0.00  0.00    -0.002 C 
ATOM     27  C   UNL     1      34.912 -20.831 -19.286  0.00  0.00    +0.011 C 
ATOM     28  C   UNL     1      33.468 -22.051 -17.782  0.00  0.00    +0.011 C 
ATOM     29  C   UNL     1      33.659 -21.361 -18.979  0.00  0.00    +0.058 C 
ENDBRANCH  22  24
ENDBRANCH   1  22
TORSDOF 5
ENDMDL
MODEL 6
REMARK VINA RESULT:     -11.0     11.553     16.578
REMARK  Name = 2929
REMARK  5 active torsions:
REMARK  status: ('A' for Active; 'I' for Inactive)
REMARK    1  A    between atoms: N_1  and  C_22
REMARK    2  A    between atoms: C_4  and  C_11
REMARK    3  A    between atoms: C_11  and  C_14
REMARK    4  A    between atoms: N_13  and  C_17
REMARK    5  A    between atoms: C_22  and  C_24
REMARK                            x       y       z     vdW  Elec       q    Type
REMARK                         _______ _______ _______ _____ _____    ______ ____
ROOT
ATOM      1  N   UNL     1      31.128  -6.521 -23.442  0.00  0.00    -0.281 N 
ATOM      2  C   UNL     1      31.465  -6.259 -22.133  0.00  0.00    +0.052 C 
ATOM      3  C   UNL     1      31.503  -7.485 -21.465  0.00  0.00    +0.018 C 
ATOM      4  C   UNL     1      31.177  -8.490 -22.417  0.00  0.00    +0.060 C 
ATOM      5  C   UNL     1      30.951  -7.867 -23.623  0.00  0.00    +0.069 C 
ATOM      6  C   UNL     1      31.738  -5.043 -21.498  0.00  0.00    +0.015 C 
ATOM      7  C   UNL     1      31.827  -7.498 -20.094  0.00  0.00    +0.001 C 
ATOM      8  C   UNL     1      32.058  -5.081 -20.138  0.00  0.00    +0.001 C 
ATOM      9  C   UNL     1      32.103  -6.289 -19.445  0.00  0.00    +0.000 C 
ENDROOT
BRANCH   4  11
ATOM     10  O   UNL     1      30.120 -10.488 -21.687  0.00  0.00    -0.282 OA
ATOM     11  C   UNL     1      31.086  -9.908 -22.212  0.00  0.00    +0.250 C 
BRANCH  11  14
ATOM     12  O   UNL     1      33.102 -10.396 -23.281  0.00  0.00    -0.266 OA
ATOM     13  N   UNL     1      31.961 -12.135 -22.145  0.00  0.00    -0.278 N 
ATOM     14  C   UNL     1      32.191 -10.860 -22.616  0.00  0.00    +0.289 C 
ATOM     15  H   UNL     1      31.138 -12.269 -21.622  0.00  0.00    +0.155 HD
BRANCH  13  17
ATOM     16  N   UNL     1      34.393 -15.502 -22.696  0.00  0.00    -0.242 NA
ATOM     17  C   UNL     1      32.783 -13.270 -22.331  0.00  0.00    +0.054 C 
ATOM     18  C   UNL     1      33.350 -13.885 -21.233  0.00  0.00    +0.035 C 
ATOM     19  C   UNL     1      33.003 -13.747 -23.608  0.00  0.00    +0.035 C 
ATOM     20  C   UNL     1      34.146 -14.995 -21.468  0.00  0.00    +0.100 C 
ATOM     21  C   UNL     1      33.814 -14.863 -23.737  0.00  0.00    +0.100 C 
ENDBRANCH  13  17
ENDBRANCH  11  14
ENDBRANCH   4  11
BRANCH   1  22
ATOM     22  C   UNL     1      30.977  -5.532 -24.487  0.00  0.00    +0.122 C 
BRANCH  22  24
ATOM     23 CL   UNL     1      36.114  -4.698 -27.476  0.00  0.00    -0.082 Cl
ATOM     24  C   UNL     1      32.266  -5.323 -25.237  0.00  0.00    -0.002 C 
ATOM     25  C   UNL     1      33.326  -4.684 -24.609  0.00  0.00    -0.002 C 
ATOM     26  C   UNL     1      32.376  -5.773 -26.545  0.00  0.00    -0.002 C 
ATOM     27  C   UNL     1      34.520  -4.491 -25.304  0.00  0.00    +0.011 C 
ATOM     28  C   UNL     1      33.569  -5.578 -27.240  0.00  0.00    +0.011 C 
ATOM     29  C   UNL     1      34.642  -4.938 -26.619  0.00  0.00    +0.058 C 
ENDBRANCH  22  24
ENDBRANCH   1  22
TORSDOF 5
ENDMDL
MODEL 7
REMARK VINA RESULT:     -10.8      1.567      2.212
REMARK  Name = 2929
REMARK  5 active torsions:
REMARK  status: ('A' for Active; 'I' for Inactive)
REMARK    1  A    between atoms: N_1  and  C_22
REMARK    2  A    between atoms: C_4  and  C_11
REMARK    3  A    between atoms: C_11  and  C_14
REMARK    4  A    between atoms: N_13  and  C_17
REMARK    5  A    between atoms: C_22  and  C_24
REMARK                            x       y       z     vdW  Elec       q    Type
REMARK                         _______ _______ _______ _____ _____    ______ ____
ROOT
ATOM      1  N   UNL     1      35.635 -21.904 -15.640  0.00  0.00    -0.281 N 
ATOM      2  C   UNL     1      34.353 -22.398 -15.558  0.00  0.00    +0.052 C 
ATOM      3  C   UNL     1      33.829 -22.397 -16.852  0.00  0.00    +0.018 C 
ATOM      4  C   UNL     1      34.840 -21.886 -17.712  0.00  0.00    +0.060 C 
ATOM      5  C   UNL     1      35.939 -21.592 -16.938  0.00  0.00    +0.069 C 
ATOM      6  C   UNL     1      33.626 -22.840 -14.448  0.00  0.00    +0.015 C 
ATOM      7  C   UNL     1      32.513 -22.860 -17.050  0.00  0.00    +0.001 C 
ATOM      8  C   UNL     1      32.322 -23.296 -14.668  0.00  0.00    +0.001 C 
ATOM      9  C   UNL     1      31.773 -23.307 -15.949  0.00  0.00    +0.000 C 
ENDROOT
BRANCH   4  11
ATOM     10  O   UNL     1      34.417 -22.555 -19.952  0.00  0.00    -0.282 OA
ATOM     11  C   UNL     1      34.780 -21.693 -19.133  0.00  0.00    +0.250 C 
BRANCH  11  14
ATOM     12  O   UNL     1      36.189 -19.849 -19.383  0.00  0.00    -0.266 OA
ATOM     13  N   UNL     1      34.284 -20.029 -20.781  0.00  0.00    -0.278 N 
ATOM     14  C   UNL     1      35.176 -20.390 -19.794  0.00  0.00    +0.289 C 
ATOM     15  H   UNL     1      33.526 -20.638 -20.934  0.00  0.00    +0.155 HD
BRANCH  13  17
ATOM     16  N   UNL     1      34.456 -16.616 -23.206  0.00  0.00    -0.242 NA
ATOM     17  C   UNL     1      34.343 -18.877 -21.600  0.00  0.00    +0.054 C 
ATOM     18  C   UNL     1      33.953 -18.963 -22.921  0.00  0.00    +0.035 C 
ATOM     19  C   UNL     1      34.789 -17.685 -21.063  0.00  0.00    +0.035 C 
ATOM     20  C   UNL     1      34.028 -17.807 -23.681  0.00  0.00    +0.100 C 
ATOM     21  C   UNL     1      34.827 -16.586 -21.906  0.00  0.00    +0.100 C 
ENDBRANCH  13  17
ENDBRANCH  11  14
ENDBRANCH   4  11
BRANCH   1  22
ATOM     22  C   UNL     1      36.544 -21.732 -14.527  0.00  0.00    +0.122 C 
BRANCH  22  24
ATOM     23 CL   UNL     1      40.226 -26.438 -13.963  0.00  0.00    -0.082 Cl
ATOM     24  C   UNL     1      37.468 -22.911 -14.385  0.00  0.00    -0.002 C 
ATOM     25  C   UNL     1      38.344 -23.221 -15.416  0.00  0.00    -0.002 C 
ATOM     26  C   UNL     1      37.431 -23.673 -13.225  0.00  0.00    -0.002 C 
ATOM     27  C   UNL     1      39.200 -24.315 -15.285  0.00  0.00    +0.011 C 
ATOM     28  C   UNL     1      38.286 -24.768 -13.095  0.00  0.00    +0.011 C 
ATOM     29  C   UNL     1      39.171 -25.088 -14.124  0.00  0.00    +0.058 C 
ENDBRANCH  22  24
ENDBRANCH   1  22
TORSDOF 5
ENDMDL
MODEL 8
REMARK VINA RESULT:     -10.7      1.537      2.107
REMARK  Name = 2929
REMARK  5 active torsions:
REMARK  status: ('A' for Active; 'I' for Inactive)
REMARK    1  A    between atoms: N_1  and  C_22
REMARK    2  A    between atoms: C_4  and  C_11
REMARK    3  A    between atoms: C_11  and  C_14
REMARK    4  A    between atoms: N_13  and  C_17
REMARK    5  A    between atoms: C_22  and  C_24
REMARK                            x       y       z     vdW  Elec       q    Type
REMARK                         _______ _______ _______ _____ _____    ______ ____
ROOT
ATOM      1  N   UNL     1      35.372 -21.996 -15.983  0.00  0.00    -0.281 N 
ATOM      2  C   UNL     1      34.142 -22.418 -15.532  0.00  0.00    +0.052 C 
ATOM      3  C   UNL     1      33.305 -22.508 -16.646  0.00  0.00    +0.018 C 
ATOM      4  C   UNL     1      34.074 -22.124 -17.779  0.00  0.00    +0.060 C 
ATOM      5  C   UNL     1      35.341 -21.816 -17.340  0.00  0.00    +0.069 C 
ATOM      6  C   UNL     1      33.713 -22.725 -14.236  0.00  0.00    +0.015 C 
ATOM      7  C   UNL     1      31.971 -22.922 -16.458  0.00  0.00    +0.001 C 
ATOM      8  C   UNL     1      32.386 -23.135 -14.075  0.00  0.00    +0.001 C 
ATOM      9  C   UNL     1      31.527 -23.233 -15.168  0.00  0.00    +0.000 C 
ENDROOT
BRANCH   4  11
ATOM     10  O   UNL     1      33.540 -23.035 -19.907  0.00  0.00    -0.282 OA
ATOM     11  C   UNL     1      33.657 -22.056 -19.151  0.00  0.00    +0.250 C 
BRANCH  11  14
ATOM     12  O   UNL     1      32.217 -20.278 -19.615  0.00  0.00    -0.266 OA
ATOM     13  N   UNL     1      34.364 -20.300 -20.616  0.00  0.00    -0.278 N 
ATOM     14  C   UNL     1      33.321 -20.747 -19.833  0.00  0.00    +0.289 C 
ATOM     15  H   UNL     1      35.172 -20.862 -20.637  0.00  0.00    +0.155 HD
BRANCH  13  17
ATOM     16  N   UNL     1      34.470 -16.798 -22.915  0.00  0.00    -0.242 NA
ATOM     17  C   UNL     1      34.399 -19.118 -21.391  0.00  0.00    +0.054 C 
ATOM     18  C   UNL     1      34.897 -17.956 -20.836  0.00  0.00    +0.035 C 
ATOM     19  C   UNL     1      33.936 -19.145 -22.692  0.00  0.00    +0.035 C 
ATOM     20  C   UNL     1      34.911 -16.825 -21.637  0.00  0.00    +0.100 C 
ATOM     21  C   UNL     1      33.992 -17.962 -23.410  0.00  0.00    +0.100 C 
ENDBRANCH  13  17
ENDBRANCH  11  14
ENDBRANCH   4  11
BRANCH   1  22
ATOM     22  C   UNL     1      36.540 -21.769 -15.158  0.00  0.00    +0.122 C 
BRANCH  22  24
ATOM     23 CL   UNL     1      37.378 -26.269 -11.275  0.00  0.00    -0.082 Cl
ATOM     24  C   UNL     1      36.751 -22.898 -14.184  0.00  0.00    -0.002 C 
ATOM     25  C   UNL     1      36.936 -24.188 -14.662  0.00  0.00    -0.002 C 
ATOM     26  C   UNL     1      36.757 -22.633 -12.822  0.00  0.00    -0.002 C 
ATOM     27  C   UNL     1      37.131 -25.233 -13.760  0.00  0.00    +0.011 C 
ATOM     28  C   UNL     1      36.951 -23.678 -11.919  0.00  0.00    +0.011 C 
ATOM     29  C   UNL     1      37.139 -24.979 -12.388  0.00  0.00    +0.058 C 
ENDBRANCH  22  24
ENDBRANCH   1  22
TORSDOF 5
ENDMDL
MODEL 9
REMARK VINA RESULT:     -10.5      5.084      8.825
REMARK  Name = 2929
REMARK  5 active torsions:
REMARK  status: ('A' for Active; 'I' for Inactive)
REMARK    1  A    between atoms: N_1  and  C_22
REMARK    2  A    between atoms: C_4  and  C_11
REMARK    3  A    between atoms: C_11  and  C_14
REMARK    4  A    between atoms: N_13  and  C_17
REMARK    5  A    between atoms: C_22  and  C_24
REMARK                            x       y       z     vdW  Elec       q    Type
REMARK                         _______ _______ _______ _____ _____    ______ ____
ROOT
ATOM      1  N   UNL     1      35.065 -18.165 -21.575  0.00  0.00    -0.281 N 
ATOM      2  C   UNL     1      34.398 -17.964 -22.763  0.00  0.00    +0.052 C 
ATOM      3  C   UNL     1      33.895 -16.662 -22.736  0.00  0.00    +0.018 C 
ATOM      4  C   UNL     1      34.282 -16.090 -21.493  0.00  0.00    +0.060 C 
ATOM      5  C   UNL     1      35.001 -17.038 -20.801  0.00  0.00    +0.069 C 
ATOM      6  C   UNL     1      34.205 -18.827 -23.847  0.00  0.00    +0.015 C 
ATOM      7  C   UNL     1      33.161 -16.197 -23.845  0.00  0.00    +0.001 C 
ATOM      8  C   UNL     1      33.475 -18.343 -24.936  0.00  0.00    +0.001 C 
ATOM      9  C   UNL     1      32.961 -17.048 -24.937  0.00  0.00    +0.000 C 
ENDROOT
BRANCH   4  11
ATOM     10  O   UNL     1      33.997 -14.449 -19.798  0.00  0.00    -0.282 OA
ATOM     11  C   UNL     1      34.004 -14.771 -20.999  0.00  0.00    +0.250 C 
BRANCH  11  14
ATOM     12  O   UNL     1      34.241 -13.582 -22.993  0.00  0.00    -0.266 OA
ATOM     13  N   UNL     1      32.748 -12.763 -21.346  0.00  0.00    -0.278 N 
ATOM     14  C   UNL     1      33.671 -13.613 -21.916  0.00  0.00    +0.289 C 
ATOM     15  H   UNL     1      32.427 -13.000 -20.446  0.00  0.00    +0.155 HD
BRANCH  13  17
ATOM     16  N   UNL     1      31.158  -9.274 -23.036  0.00  0.00    -0.242 NA
ATOM     17  C   UNL     1      32.211 -11.586 -21.917  0.00  0.00    +0.054 C 
ATOM     18  C   UNL     1      31.087 -11.012 -21.358  0.00  0.00    +0.035 C 
ATOM     19  C   UNL     1      32.821 -11.029 -23.024  0.00  0.00    +0.035 C 
ATOM     20  C   UNL     1      30.600  -9.859 -21.953  0.00  0.00    +0.100 C 
ATOM     21  C   UNL     1      32.257  -9.876 -23.545  0.00  0.00    +0.100 C 
ENDBRANCH  13  17
ENDBRANCH  11  14
ENDBRANCH   4  11
BRANCH   1  22
ATOM     22  C   UNL     1      35.741 -19.384 -21.185  0.00  0.00    +0.122 C 
BRANCH  22  24
ATOM     23 CL   UNL     1      32.421 -22.595 -17.352  0.00  0.00    -0.082 Cl
ATOM     24  C   UNL     1      34.908 -20.190 -20.224  0.00  0.00    -0.002 C 
ATOM     25  C   UNL     1      33.524 -20.129 -20.302  0.00  0.00    -0.002 C 
ATOM     26  C   UNL     1      35.537 -20.983 -19.273  0.00  0.00    -0.002 C 
ATOM     27  C   UNL     1      32.752 -20.876 -19.411  0.00  0.00    +0.011 C 
ATOM     28  C   UNL     1      34.765 -21.728 -18.382  0.00  0.00    +0.011 C 
ATOM     29  C   UNL     1      33.373 -21.675 -18.451  0.00  0.00    +0.058 C 
ENDBRANCH  22  24
ENDBRANCH   1  22
TORSDOF 5
ENDMDL
