MODEL 1
REMARK VINA RESULT:     -10.6      0.000      0.000
REMARK  Name = 11980903
REMARK  4 active torsions:
REMARK  status: ('A' for Active; 'I' for Inactive)
REMARK    1  A    between atoms: C_1  and  C_19
REMARK    2  A    between atoms: C_2  and  C_6
REMARK    3  A    between atoms: C_8  and  N_14
REMARK    4  A    between atoms: N_17  and  C_24
REMARK                            x       y       z     vdW  Elec       q    Type
REMARK                         _______ _______ _______ _____ _____    ______ ____
ROOT
ATOM      1  C   UNL     1      32.990 -23.873 -14.333  0.00  0.00    +0.002 C 
ATOM      2  C   UNL     1      32.431 -23.432 -15.484  0.00  0.00    +0.015 C 
ENDROOT
BRANCH   2   6
ATOM      3  N   UNL     1      32.443 -22.028 -17.463  0.00  0.00    -0.285 N 
ATOM      4  C   UNL     1      33.034 -21.329 -18.451  0.00  0.00    +0.048 C 
ATOM      5  C   UNL     1      34.444 -21.292 -18.514  0.00  0.00    -0.003 C 
ATOM      6  C   UNL     1      33.132 -22.696 -16.527  0.00  0.00    +0.052 C 
ATOM      7  C   UNL     1      35.056 -20.562 -19.545  0.00  0.00    +0.069 C 
ATOM      8  C   UNL     1      34.282 -19.887 -20.490  0.00  0.00    +0.029 C 
ATOM      9  C   UNL     1      35.176 -21.986 -17.541  0.00  0.00    -0.001 C 
ATOM     10  C   UNL     1      34.517 -22.693 -16.541  0.00  0.00    +0.015 C 
ATOM     11  C   UNL     1      32.263 -20.651 -19.401  0.00  0.00    +0.015 C 
ATOM     12  C   UNL     1      32.889 -19.932 -20.417  0.00  0.00    +0.012 C 
ATOM     13  C   UNL     1      30.971 -22.076 -17.385  0.00  0.00    +0.117 C 
BRANCH   8  14
ATOM     14  N   UNL     1      34.908 -19.158 -21.523  0.00  0.00    -0.307 N 
ATOM     15  C   UNL     1      34.315 -19.097 -22.843  0.00  0.00    +0.112 C 
ATOM     16  C   UNL     1      36.147 -18.448 -21.270  0.00  0.00    +0.112 C 
ENDBRANCH   8  14
ENDBRANCH   2   6
BRANCH   1  19
ATOM     17  N   UNL     1      36.516 -24.025 -13.684  0.00  0.00    -0.273 N 
ATOM     18  C   UNL     1      35.393 -24.487 -14.321  0.00  0.00    +0.033 C 
ATOM     19  C   UNL     1      34.358 -23.715 -13.898  0.00  0.00    +0.011 C 
ATOM     20  C   UNL     1      36.182 -22.973 -12.871  0.00  0.00    +0.033 C 
ATOM     21  C   UNL     1      34.826 -22.761 -12.990  0.00  0.00    +0.012 C 
ATOM     22  C   UNL     1      35.437 -25.622 -15.271  0.00  0.00    +0.048 C 
ATOM     23  C   UNL     1      37.175 -22.253 -12.044  0.00  0.00    +0.048 C 
BRANCH  17  24
ATOM     24  C   UNL     1      37.805 -24.545 -13.840  0.00  0.00    +0.055 C 
ATOM     25  C   UNL     1      38.257 -25.519 -12.962  0.00  0.00    +0.015 C 
ATOM     26  C   UNL     1      38.607 -24.081 -14.871  0.00  0.00    +0.015 C 
ATOM     27  C   UNL     1      39.541 -26.040 -13.119  0.00  0.00    +0.001 C 
ATOM     28  C   UNL     1      39.891 -24.604 -15.028  0.00  0.00    +0.001 C 
ATOM     29  C   UNL     1      40.358 -25.583 -14.152  0.00  0.00    +0.000 C 
ENDBRANCH  17  24
ENDBRANCH   1  19
TORSDOF 4
ENDMDL
MODEL 2
REMARK VINA RESULT:     -10.4      4.724     11.406
REMARK  Name = 11980903
REMARK  4 active torsions:
REMARK  status: ('A' for Active; 'I' for Inactive)
REMARK    1  A    between atoms: C_1  and  C_19
REMARK    2  A    between atoms: C_2  and  C_6
REMARK    3  A    between atoms: C_8  and  N_14
REMARK    4  A    between atoms: N_17  and  C_24
REMARK                            x       y       z     vdW  Elec       q    Type
REMARK                         _______ _______ _______ _____ _____    ______ ____
ROOT
ATOM      1  C   UNL     1      34.097 -16.377 -24.467  0.00  0.00    +0.002 C 
ATOM      2  C   UNL     1      34.597 -17.625 -24.308  0.00  0.00    +0.015 C 
ENDROOT
BRANCH   2   6
ATOM      3  N   UNL     1      34.117 -19.033 -22.391  0.00  0.00    -0.285 N 
ATOM      4  C   UNL     1      34.404 -19.615 -21.212  0.00  0.00    +0.048 C 
ATOM      5  C   UNL     1      35.658 -19.366 -20.613  0.00  0.00    -0.003 C 
ATOM      6  C   UNL     1      34.969 -18.222 -23.033  0.00  0.00    +0.052 C 
ATOM      7  C   UNL     1      35.954 -19.974 -19.384  0.00  0.00    +0.069 C 
ATOM      8  C   UNL     1      35.022 -20.810 -18.766  0.00  0.00    +0.029 C 
ATOM      9  C   UNL     1      36.559 -18.520 -21.274  0.00  0.00    -0.001 C 
ATOM     10  C   UNL     1      36.213 -17.944 -22.492  0.00  0.00    +0.015 C 
ATOM     11  C   UNL     1      33.474 -20.453 -20.587  0.00  0.00    +0.015 C 
ATOM     12  C   UNL     1      33.785 -21.047 -19.366  0.00  0.00    +0.012 C 
ATOM     13  C   UNL     1      32.809 -19.284 -23.028  0.00  0.00    +0.117 C 
BRANCH   8  14
ATOM     14  N   UNL     1      35.330 -21.415 -17.529  0.00  0.00    -0.307 N 
ATOM     15  C   UNL     1      34.383 -22.306 -16.890  0.00  0.00    +0.112 C 
ATOM     16  C   UNL     1      36.607 -21.163 -16.888  0.00  0.00    +0.112 C 
ENDBRANCH   8  14
ENDBRANCH   2   6
BRANCH   1  19
ATOM     17  N   UNL     1      33.123 -13.579 -22.443  0.00  0.00    -0.273 N 
ATOM     18  C   UNL     1      33.165 -14.229 -23.649  0.00  0.00    +0.033 C 
ATOM     19  C   UNL     1      33.833 -15.394 -23.442  0.00  0.00    +0.011 C 
ATOM     20  C   UNL     1      33.759 -14.334 -21.492  0.00  0.00    +0.033 C 
ATOM     21  C   UNL     1      34.215 -15.483 -22.101  0.00  0.00    +0.012 C 
ATOM     22  C   UNL     1      32.557 -13.658 -24.873  0.00  0.00    +0.048 C 
ATOM     23  C   UNL     1      33.885 -13.908 -20.081  0.00  0.00    +0.048 C 
BRANCH  17  24
ATOM     24  C   UNL     1      32.522 -12.337 -22.215  0.00  0.00    +0.055 C 
ATOM     25  C   UNL     1      32.874 -11.254 -23.007  0.00  0.00    +0.015 C 
ATOM     26  C   UNL     1      31.582 -12.210 -21.203  0.00  0.00    +0.015 C 
ATOM     27  C   UNL     1      32.273 -10.016 -22.782  0.00  0.00    +0.001 C 
ATOM     28  C   UNL     1      30.981 -10.971 -20.978  0.00  0.00    +0.001 C 
ATOM     29  C   UNL     1      31.326  -9.874 -21.768  0.00  0.00    +0.000 C 
ENDBRANCH  17  24
ENDBRANCH   1  19
TORSDOF 4
ENDMDL
MODEL 3
REMARK VINA RESULT:     -10.3     10.840     15.562
REMARK  Name = 11980903
REMARK  4 active torsions:
REMARK  status: ('A' for Active; 'I' for Inactive)
REMARK    1  A    between atoms: C_1  and  C_19
REMARK    2  A    between atoms: C_2  and  C_6
REMARK    3  A    between atoms: C_8  and  N_14
REMARK    4  A    between atoms: N_17  and  C_24
REMARK                            x       y       z     vdW  Elec       q    Type
REMARK                         _______ _______ _______ _____ _____    ______ ____
ROOT
ATOM      1  C   UNL     1      30.885  -9.938 -20.933  0.00  0.00    +0.002 C 
ATOM      2  C   UNL     1      30.870  -8.587 -20.847  0.00  0.00    +0.015 C 
ENDROOT
BRANCH   2   6
ATOM      3  N   UNL     1      31.221  -7.235 -22.831  0.00  0.00    -0.285 N 
ATOM      4  C   UNL     1      31.922  -6.401 -23.622  0.00  0.00    +0.048 C 
ATOM      5  C   UNL     1      33.203  -5.979 -23.205  0.00  0.00    -0.003 C 
ATOM      6  C   UNL     1      31.681  -7.688 -21.656  0.00  0.00    +0.052 C 
ATOM      7  C   UNL     1      33.932  -5.110 -24.033  0.00  0.00    +0.069 C 
ATOM      8  C   UNL     1      33.396  -4.673 -25.246  0.00  0.00    +0.029 C 
ATOM      9  C   UNL     1      33.696  -6.445 -21.979  0.00  0.00    -0.001 C 
ATOM     10  C   UNL     1      32.931  -7.305 -21.199  0.00  0.00    +0.015 C 
ATOM     11  C   UNL     1      31.391  -5.961 -24.838  0.00  0.00    +0.015 C 
ATOM     12  C   UNL     1      32.129  -5.099 -25.647  0.00  0.00    +0.012 C 
ATOM     13  C   UNL     1      29.881  -7.685 -23.253  0.00  0.00    +0.117 C 
BRANCH   8  14
ATOM     14  N   UNL     1      34.138  -3.801 -26.070  0.00  0.00    -0.307 N 
ATOM     15  C   UNL     1      33.599  -2.510 -26.446  0.00  0.00    +0.112 C 
ATOM     16  C   UNL     1      35.456  -4.181 -26.538  0.00  0.00    +0.112 C 
ENDBRANCH   8  14
ENDBRANCH   2   6
BRANCH   1  19
ATOM     17  N   UNL     1      32.762 -12.478 -22.636  0.00  0.00    -0.273 N 
ATOM     18  C   UNL     1      32.004 -12.057 -21.575  0.00  0.00    +0.033 C 
ATOM     19  C   UNL     1      31.682 -10.759 -21.815  0.00  0.00    +0.011 C 
ATOM     20  C   UNL     1      32.911 -11.450 -23.531  0.00  0.00    +0.033 C 
ATOM     21  C   UNL     1      32.238 -10.356 -23.032  0.00  0.00    +0.012 C 
ATOM     22  C   UNL     1      31.668 -12.951 -20.442  0.00  0.00    +0.048 C 
ATOM     23  C   UNL     1      33.680 -11.585 -24.787  0.00  0.00    +0.048 C 
BRANCH  17  24
ATOM     24  C   UNL     1      33.301 -13.760 -22.786  0.00  0.00    +0.055 C 
ATOM     25  C   UNL     1      33.184 -14.410 -24.006  0.00  0.00    +0.015 C 
ATOM     26  C   UNL     1      33.946 -14.358 -21.714  0.00  0.00    +0.015 C 
ATOM     27  C   UNL     1      33.724 -15.687 -24.157  0.00  0.00    +0.001 C 
ATOM     28  C   UNL     1      34.487 -15.635 -21.866  0.00  0.00    +0.001 C 
ATOM     29  C   UNL     1      34.376 -16.299 -23.087  0.00  0.00    +0.000 C 
ENDBRANCH  17  24
ENDBRANCH   1  19
TORSDOF 4
ENDMDL
MODEL 4
REMARK VINA RESULT:     -10.3     10.586     15.168
REMARK  Name = 11980903
REMARK  4 active torsions:
REMARK  status: ('A' for Active; 'I' for Inactive)
REMARK    1  A    between atoms: C_1  and  C_19
REMARK    2  A    between atoms: C_2  and  C_6
REMARK    3  A    between atoms: C_8  and  N_14
REMARK    4  A    between atoms: N_17  and  C_24
REMARK                            x       y       z     vdW  Elec       q    Type
REMARK                         _______ _______ _______ _____ _____    ______ ____
ROOT
ATOM      1  C   UNL     1      31.311 -10.677 -20.229  0.00  0.00    +0.002 C 
ATOM      2  C   UNL     1      30.832  -9.411 -20.251  0.00  0.00    +0.015 C 
ENDROOT
BRANCH   2   6
ATOM      3  N   UNL     1      31.669  -7.422 -21.361  0.00  0.00    -0.285 N 
ATOM      4  C   UNL     1      31.766  -6.556 -22.387  0.00  0.00    +0.048 C 
ATOM      5  C   UNL     1      31.017  -6.797 -23.559  0.00  0.00    -0.003 C 
ATOM      6  C   UNL     1      30.891  -8.513 -21.396  0.00  0.00    +0.052 C 
ATOM      7  C   UNL     1      31.120  -5.892 -24.627  0.00  0.00    +0.069 C 
ATOM      8  C   UNL     1      31.950  -4.774 -24.528  0.00  0.00    +0.029 C 
ATOM      9  C   UNL     1      30.199  -7.934 -23.609  0.00  0.00    -0.001 C 
ATOM     10  C   UNL     1      30.135  -8.798 -22.521  0.00  0.00    +0.015 C 
ATOM     11  C   UNL     1      32.595  -5.433 -22.294  0.00  0.00    +0.015 C 
ATOM     12  C   UNL     1      32.685  -4.545 -23.364  0.00  0.00    +0.012 C 
ATOM     13  C   UNL     1      32.446  -7.182 -20.129  0.00  0.00    +0.117 C 
BRANCH   8  14
ATOM     14  N   UNL     1      32.045  -3.870 -25.607  0.00  0.00    -0.307 N 
ATOM     15  C   UNL     1      32.752  -4.241 -26.817  0.00  0.00    +0.112 C 
ATOM     16  C   UNL     1      31.423  -2.563 -25.525  0.00  0.00    +0.112 C 
ENDBRANCH   8  14
ENDBRANCH   2   6
BRANCH   1  19
ATOM     17  N   UNL     1      32.904 -13.005 -22.446  0.00  0.00    -0.273 N 
ATOM     18  C   UNL     1      32.313 -12.705 -21.246  0.00  0.00    +0.033 C 
ATOM     19  C   UNL     1      31.965 -11.392 -21.299  0.00  0.00    +0.011 C 
ATOM     20  C   UNL     1      32.924 -11.889 -23.240  0.00  0.00    +0.033 C 
ATOM     21  C   UNL     1      32.337 -10.860 -22.536  0.00  0.00    +0.012 C 
ATOM     22  C   UNL     1      32.144 -13.715 -20.176  0.00  0.00    +0.048 C 
ATOM     23  C   UNL     1      33.498 -11.884 -24.603  0.00  0.00    +0.048 C 
BRANCH  17  24
ATOM     24  C   UNL     1      33.409 -14.259 -22.806  0.00  0.00    +0.055 C 
ATOM     25  C   UNL     1      34.168 -14.976 -21.894  0.00  0.00    +0.015 C 
ATOM     26  C   UNL     1      33.138 -14.766 -24.069  0.00  0.00    +0.015 C 
ATOM     27  C   UNL     1      34.669 -16.227 -22.251  0.00  0.00    +0.001 C 
ATOM     28  C   UNL     1      33.639 -16.018 -24.426  0.00  0.00    +0.001 C 
ATOM     29  C   UNL     1      34.405 -16.748 -23.518  0.00  0.00    +0.000 C 
ENDBRANCH  17  24
ENDBRANCH   1  19
TORSDOF 4
ENDMDL
MODEL 5
REMARK VINA RESULT:     -10.2      4.321      8.203
REMARK  Name = 11980903
REMARK  4 active torsions:
REMARK  status: ('A' for Active; 'I' for Inactive)
REMARK    1  A    between atoms: C_1  and  C_19
REMARK    2  A    between atoms: C_2  and  C_6
REMARK    3  A    between atoms: C_8  and  N_14
REMARK    4  A    between atoms: N_17  and  C_24
REMARK                            x       y       z     vdW  Elec       q    Type
REMARK                         _______ _______ _______ _____ _____    ______ ____
ROOT
ATOM      1  C   UNL     1      35.323 -18.919 -22.626  0.00  0.00    +0.002 C 
ATOM      2  C   UNL     1      35.390 -17.622 -23.010  0.00  0.00    +0.015 C 
ENDROOT
BRANCH   2   6
ATOM      3  N   UNL     1      34.098 -15.570 -23.092  0.00  0.00    -0.285 N 
ATOM      4  C   UNL     1      33.440 -14.528 -22.550  0.00  0.00    +0.048 C 
ATOM      5  C   UNL     1      33.369 -14.422 -21.143  0.00  0.00    -0.003 C 
ATOM      6  C   UNL     1      34.694 -16.520 -22.359  0.00  0.00    +0.052 C 
ATOM      7  C   UNL     1      32.682 -13.335 -20.581  0.00  0.00    +0.069 C 
ATOM      8  C   UNL     1      32.081 -12.378 -21.400  0.00  0.00    +0.029 C 
ATOM      9  C   UNL     1      33.988 -15.409 -20.365  0.00  0.00    -0.001 C 
ATOM     10  C   UNL     1      34.656 -16.465 -20.976  0.00  0.00    +0.015 C 
ATOM     11  C   UNL     1      32.836 -13.566 -23.365  0.00  0.00    +0.015 C 
ATOM     12  C   UNL     1      32.159 -12.493 -22.789  0.00  0.00    +0.012 C 
ATOM     13  C   UNL     1      34.181 -15.694 -24.560  0.00  0.00    +0.117 C 
BRANCH   8  14
ATOM     14  N   UNL     1      31.394 -11.288 -20.824  0.00  0.00    -0.307 N 
ATOM     15  C   UNL     1      31.661 -10.892 -19.456  0.00  0.00    +0.112 C 
ATOM     16  C   UNL     1      30.422 -10.542 -21.599  0.00  0.00    +0.112 C 
ENDBRANCH   8  14
ENDBRANCH   2   6
BRANCH   1  19
ATOM     17  N   UNL     1      34.090 -20.538 -19.672  0.00  0.00    -0.273 N 
ATOM     18  C   UNL     1      35.120 -20.185 -20.503  0.00  0.00    +0.033 C 
ATOM     19  C   UNL     1      34.573 -19.478 -21.526  0.00  0.00    +0.011 C 
ATOM     20  C   UNL     1      32.909 -20.053 -20.172  0.00  0.00    +0.033 C 
ATOM     21  C   UNL     1      33.191 -19.382 -21.342  0.00  0.00    +0.012 C 
ATOM     22  C   UNL     1      36.525 -20.567 -20.224  0.00  0.00    +0.048 C 
ATOM     23  C   UNL     1      31.607 -20.265 -19.503  0.00  0.00    +0.048 C 
BRANCH  17  24
ATOM     24  C   UNL     1      34.220 -21.278 -18.492  0.00  0.00    +0.055 C 
ATOM     25  C   UNL     1      35.407 -21.215 -17.776  0.00  0.00    +0.015 C 
ATOM     26  C   UNL     1      33.160 -22.058 -18.055  0.00  0.00    +0.015 C 
ATOM     27  C   UNL     1      35.536 -21.950 -16.598  0.00  0.00    +0.001 C 
ATOM     28  C   UNL     1      33.290 -22.793 -16.876  0.00  0.00    +0.001 C 
ATOM     29  C   UNL     1      34.478 -22.739 -16.148  0.00  0.00    +0.000 C 
ENDBRANCH  17  24
ENDBRANCH   1  19
TORSDOF 4
ENDMDL
MODEL 6
REMARK VINA RESULT:      -9.9      2.574      8.932
REMARK  Name = 11980903
REMARK  4 active torsions:
REMARK  status: ('A' for Active; 'I' for Inactive)
REMARK    1  A    between atoms: C_1  and  C_19
REMARK    2  A    between atoms: C_2  and  C_6
REMARK    3  A    between atoms: C_8  and  N_14
REMARK    4  A    between atoms: N_17  and  C_24
REMARK                            x       y       z     vdW  Elec       q    Type
REMARK                         _______ _______ _______ _____ _____    ______ ____
ROOT
ATOM      1  C   UNL     1      36.358 -20.812 -18.763  0.00  0.00    +0.002 C 
ATOM      2  C   UNL     1      36.175 -21.605 -17.681  0.00  0.00    +0.015 C 
ENDROOT
BRANCH   2   6
ATOM      3  N   UNL     1      34.738 -22.425 -15.906  0.00  0.00    -0.285 N 
ATOM      4  C   UNL     1      33.571 -22.857 -15.392  0.00  0.00    +0.048 C 
ATOM      5  C   UNL     1      32.441 -22.938 -16.235  0.00  0.00    -0.003 C 
ATOM      6  C   UNL     1      34.883 -22.064 -17.189  0.00  0.00    +0.052 C 
ATOM      7  C   UNL     1      31.226 -23.388 -15.696  0.00  0.00    +0.069 C 
ATOM      8  C   UNL     1      31.140 -23.749 -14.350  0.00  0.00    +0.029 C 
ATOM      9  C   UNL     1      32.579 -22.564 -17.578  0.00  0.00    -0.001 C 
ATOM     10  C   UNL     1      33.808 -22.124 -18.059  0.00  0.00    +0.015 C 
ATOM     11  C   UNL     1      33.479 -23.220 -14.045  0.00  0.00    +0.015 C 
ATOM     12  C   UNL     1      32.264 -23.665 -13.527  0.00  0.00    +0.012 C 
ATOM     13  C   UNL     1      35.928 -22.335 -15.038  0.00  0.00    +0.117 C 
BRANCH   8  14
ATOM     14  N   UNL     1      29.913 -24.201 -13.819  0.00  0.00    -0.307 N 
ATOM     15  C   UNL     1      28.823 -24.569 -14.699  0.00  0.00    +0.112 C 
ATOM     16  C   UNL     1      29.735 -24.318 -12.385  0.00  0.00    +0.112 C 
ENDBRANCH   8  14
ENDBRANCH   2   6
BRANCH   1  19
ATOM     17  N   UNL     1      34.386 -19.081 -21.211  0.00  0.00    -0.273 N 
ATOM     18  C   UNL     1      35.588 -19.341 -20.607  0.00  0.00    +0.033 C 
ATOM     19  C   UNL     1      35.348 -20.264 -19.638  0.00  0.00    +0.011 C 
ATOM     20  C   UNL     1      33.404 -19.836 -20.623  0.00  0.00    +0.033 C 
ATOM     21  C   UNL     1      33.989 -20.589 -19.629  0.00  0.00    +0.012 C 
ATOM     22  C   UNL     1      36.843 -18.675 -21.028  0.00  0.00    +0.048 C 
ATOM     23  C   UNL     1      31.989 -19.784 -21.050  0.00  0.00    +0.048 C 
BRANCH  17  24
ATOM     24  C   UNL     1      34.189 -18.184 -22.265  0.00  0.00    +0.055 C 
ATOM     25  C   UNL     1      34.456 -16.837 -22.073  0.00  0.00    +0.015 C 
ATOM     26  C   UNL     1      33.733 -18.657 -23.487  0.00  0.00    +0.015 C 
ATOM     27  C   UNL     1      34.263 -15.942 -23.125  0.00  0.00    +0.001 C 
ATOM     28  C   UNL     1      33.540 -17.762 -24.540  0.00  0.00    +0.001 C 
ATOM     29  C   UNL     1      33.805 -16.405 -24.359  0.00  0.00    +0.000 C 
ENDBRANCH  17  24
ENDBRANCH   1  19
TORSDOF 4
ENDMDL
MODEL 7
REMARK VINA RESULT:      -9.8      3.944     10.578
REMARK  Name = 11980903
REMARK  4 active torsions:
REMARK  status: ('A' for Active; 'I' for Inactive)
REMARK    1  A    between atoms: C_1  and  C_19
REMARK    2  A    between atoms: C_2  and  C_6
REMARK    3  A    between atoms: C_8  and  N_14
REMARK    4  A    between atoms: N_17  and  C_24
REMARK                            x       y       z     vdW  Elec       q    Type
REMARK                         _______ _______ _______ _____ _____    ______ ____
ROOT
ATOM      1  C   UNL     1      35.423 -17.815 -22.778  0.00  0.00    +0.002 C 
ATOM      2  C   UNL     1      35.259 -19.128 -22.493  0.00  0.00    +0.015 C 
ENDROOT
BRANCH   2   6
ATOM      3  N   UNL     1      34.863 -20.382 -20.454  0.00  0.00    -0.285 N 
ATOM      4  C   UNL     1      34.093 -20.897 -19.477  0.00  0.00    +0.048 C 
ATOM      5  C   UNL     1      32.699 -20.671 -19.513  0.00  0.00    -0.003 C 
ATOM      6  C   UNL     1      34.370 -19.658 -21.468  0.00  0.00    +0.052 C 
ATOM      7  C   UNL     1      31.899 -21.209 -18.494  0.00  0.00    +0.069 C 
ATOM      8  C   UNL     1      32.474 -21.955 -17.463  0.00  0.00    +0.029 C 
ATOM      9  C   UNL     1      32.171 -19.915 -20.569  0.00  0.00    -0.001 C 
ATOM     10  C   UNL     1      33.011 -19.405 -21.553  0.00  0.00    +0.015 C 
ATOM     11  C   UNL     1      34.663 -21.645 -18.442  0.00  0.00    +0.015 C 
ATOM     12  C   UNL     1      33.853 -22.173 -17.438  0.00  0.00    +0.012 C 
ATOM     13  C   UNL     1      36.320 -20.611 -20.429  0.00  0.00    +0.117 C 
BRANCH   8  14
ATOM     14  N   UNL     1      31.660 -22.492 -16.444  0.00  0.00    -0.307 N 
ATOM     15  C   UNL     1      32.255 -23.142 -15.294  0.00  0.00    +0.112 C 
ATOM     16  C   UNL     1      30.216 -22.387 -16.529  0.00  0.00    +0.112 C 
ENDBRANCH   8  14
ENDBRANCH   2   6
BRANCH   1  19
ATOM     17  N   UNL     1      33.758 -14.767 -21.880  0.00  0.00    -0.273 N 
ATOM     18  C   UNL     1      34.292 -15.608 -22.821  0.00  0.00    +0.033 C 
ATOM     19  C   UNL     1      34.776 -16.687 -22.151  0.00  0.00    +0.011 C 
ATOM     20  C   UNL     1      33.907 -15.318 -20.634  0.00  0.00    +0.033 C 
ATOM     21  C   UNL     1      34.547 -16.529 -20.781  0.00  0.00    +0.012 C 
ATOM     22  C   UNL     1      34.280 -15.284 -24.266  0.00  0.00    +0.048 C 
ATOM     23  C   UNL     1      33.432 -14.653 -19.401  0.00  0.00    +0.048 C 
BRANCH  17  24
ATOM     24  C   UNL     1      33.153 -13.535 -22.148  0.00  0.00    +0.055 C 
ATOM     25  C   UNL     1      32.010 -13.171 -21.452  0.00  0.00    +0.015 C 
ATOM     26  C   UNL     1      33.708 -12.696 -23.103  0.00  0.00    +0.015 C 
ATOM     27  C   UNL     1      31.407 -11.942 -21.717  0.00  0.00    +0.001 C 
ATOM     28  C   UNL     1      33.105 -11.465 -23.367  0.00  0.00    +0.001 C 
ATOM     29  C   UNL     1      31.955 -11.089 -22.675  0.00  0.00    +0.000 C 
ENDBRANCH  17  24
ENDBRANCH   1  19
TORSDOF 4
ENDMDL
MODEL 8
REMARK VINA RESULT:      -9.8     11.034     15.826
REMARK  Name = 11980903
REMARK  4 active torsions:
REMARK  status: ('A' for Active; 'I' for Inactive)
REMARK    1  A    between atoms: C_1  and  C_19
REMARK    2  A    between atoms: C_2  and  C_6
REMARK    3  A    between atoms: C_8  and  N_14
REMARK    4  A    between atoms: N_17  and  C_24
REMARK                            x       y       z     vdW  Elec       q    Type
REMARK                         _______ _______ _______ _____ _____    ______ ____
ROOT
ATOM      1  C   UNL     1      30.929  -9.112 -21.448  0.00  0.00    +0.002 C 
ATOM      2  C   UNL     1      31.053  -7.779 -21.650  0.00  0.00    +0.015 C 
ENDROOT
BRANCH   2   6
ATOM      3  N   UNL     1      31.601  -6.810 -23.806  0.00  0.00    -0.285 N 
ATOM      4  C   UNL     1      32.422  -6.230 -24.702  0.00  0.00    +0.048 C 
ATOM      5  C   UNL     1      33.761  -5.970 -24.335  0.00  0.00    -0.003 C 
ATOM      6  C   UNL     1      31.993  -7.155 -22.572  0.00  0.00    +0.052 C 
ATOM      7  C   UNL     1      34.614  -5.365 -25.271  0.00  0.00    +0.069 C 
ATOM      8  C   UNL     1      34.144  -5.029 -26.542  0.00  0.00    +0.029 C 
ATOM      9  C   UNL     1      34.183  -6.326 -23.047  0.00  0.00    -0.001 C 
ATOM     10  C   UNL     1      33.294  -6.923 -22.159  0.00  0.00    +0.015 C 
ATOM     11  C   UNL     1      31.958  -5.891 -25.977  0.00  0.00    +0.015 C 
ATOM     12  C   UNL     1      32.820  -5.292 -26.893  0.00  0.00    +0.012 C 
ATOM     13  C   UNL     1      30.200  -7.088 -24.176  0.00  0.00    +0.117 C 
BRANCH   8  14
ATOM     14  N   UNL     1      35.012  -4.423 -27.475  0.00  0.00    -0.307 N 
ATOM     15  C   UNL     1      34.919  -4.749 -28.884  0.00  0.00    +0.112 C 
ATOM     16  C   UNL     1      35.998  -3.454 -27.036  0.00  0.00    +0.112 C 
ENDBRANCH   8  14
ENDBRANCH   2   6
BRANCH   1  19
ATOM     17  N   UNL     1      32.731 -12.069 -22.387  0.00  0.00    -0.273 N 
ATOM     18  C   UNL     1      32.045 -11.327 -21.461  0.00  0.00    +0.033 C 
ATOM     19  C   UNL     1      31.676 -10.174 -22.079  0.00  0.00    +0.011 C 
ATOM     20  C   UNL     1      32.789 -11.384 -23.573  0.00  0.00    +0.033 C 
ATOM     21  C   UNL     1      32.131 -10.186 -23.401  0.00  0.00    +0.012 C 
ATOM     22  C   UNL     1      31.815 -11.808 -20.078  0.00  0.00    +0.048 C 
ATOM     23  C   UNL     1      33.465 -11.918 -24.775  0.00  0.00    +0.048 C 
BRANCH  17  24
ATOM     24  C   UNL     1      33.287 -13.332 -22.159  0.00  0.00    +0.055 C 
ATOM     25  C   UNL     1      33.641 -14.126 -23.239  0.00  0.00    +0.015 C 
ATOM     26  C   UNL     1      33.477 -13.768 -20.856  0.00  0.00    +0.015 C 
ATOM     27  C   UNL     1      34.198 -15.384 -23.012  0.00  0.00    +0.001 C 
ATOM     28  C   UNL     1      34.035 -15.027 -20.629  0.00  0.00    +0.001 C 
ATOM     29  C   UNL     1      34.395 -15.835 -21.707  0.00  0.00    +0.000 C 
ENDBRANCH  17  24
ENDBRANCH   1  19
TORSDOF 4
ENDMDL
MODEL 9
REMARK VINA RESULT:      -9.6      5.431     10.039
REMARK  Name = 11980903
REMARK  4 active torsions:
REMARK  status: ('A' for Active; 'I' for Inactive)
REMARK    1  A    between atoms: C_1  and  C_19
REMARK    2  A    between atoms: C_2  and  C_6
REMARK    3  A    between atoms: C_8  and  N_14
REMARK    4  A    between atoms: N_17  and  C_24
REMARK                            x       y       z     vdW  Elec       q    Type
REMARK                         _______ _______ _______ _____ _____    ______ ____
ROOT
ATOM      1  C   UNL     1      34.424 -16.979 -24.451  0.00  0.00    +0.002 C 
ATOM      2  C   UNL     1      33.916 -15.743 -24.663  0.00  0.00    +0.015 C 
ENDROOT
BRANCH   2   6
ATOM      3  N   UNL     1      32.988 -13.622 -23.936  0.00  0.00    -0.285 N 
ATOM      4  C   UNL     1      32.630 -12.706 -23.016  0.00  0.00    +0.048 C 
ATOM      5  C   UNL     1      32.854 -12.985 -21.650  0.00  0.00    -0.003 C 
ATOM      6  C   UNL     1      33.552 -14.795 -23.618  0.00  0.00    +0.052 C 
ATOM      7  C   UNL     1      32.478 -12.029 -20.694  0.00  0.00    +0.069 C 
ATOM      8  C   UNL     1      31.895 -10.824 -21.090  0.00  0.00    +0.029 C 
ATOM      9  C   UNL     1      33.442 -14.209 -21.305  0.00  0.00    -0.001 C 
ATOM     10  C   UNL     1      33.794 -15.121 -22.294  0.00  0.00    +0.015 C 
ATOM     11  C   UNL     1      32.045 -11.497 -23.406  0.00  0.00    +0.015 C 
ATOM     12  C   UNL     1      31.680 -10.559 -22.443  0.00  0.00    +0.012 C 
ATOM     13  C   UNL     1      32.761 -13.343 -25.367  0.00  0.00    +0.117 C 
BRANCH   8  14
ATOM     14  N   UNL     1      31.523  -9.870 -20.119  0.00  0.00    -0.307 N 
ATOM     15  C   UNL     1      31.453 -10.234 -18.719  0.00  0.00    +0.112 C 
ATOM     16  C   UNL     1      31.221  -8.507 -20.511  0.00  0.00    +0.112 C 
ENDBRANCH   8  14
ENDBRANCH   2   6
BRANCH   1  19
ATOM     17  N   UNL     1      34.544 -18.925 -21.438  0.00  0.00    -0.273 N 
ATOM     18  C   UNL     1      33.948 -18.592 -22.627  0.00  0.00    +0.033 C 
ATOM     19  C   UNL     1      34.708 -17.612 -23.184  0.00  0.00    +0.011 C 
ATOM     20  C   UNL     1      35.665 -18.158 -21.256  0.00  0.00    +0.033 C 
ATOM     21  C   UNL     1      35.787 -17.322 -22.344  0.00  0.00    +0.012 C 
ATOM     22  C   UNL     1      32.712 -19.255 -23.103  0.00  0.00    +0.048 C 
ATOM     23  C   UNL     1      36.532 -18.276 -20.063  0.00  0.00    +0.048 C 
BRANCH  17  24
ATOM     24  C   UNL     1      34.080 -19.898 -20.547  0.00  0.00    +0.055 C 
ATOM     25  C   UNL     1      34.961 -20.852 -20.061  0.00  0.00    +0.015 C 
ATOM     26  C   UNL     1      32.748 -19.890 -20.161  0.00  0.00    +0.015 C 
ATOM     27  C   UNL     1      34.500 -21.821 -19.170  0.00  0.00    +0.001 C 
ATOM     28  C   UNL     1      32.287 -20.859 -19.269  0.00  0.00    +0.001 C 
ATOM     29  C   UNL     1      33.163 -21.824 -18.774  0.00  0.00    +0.000 C 
ENDBRANCH  17  24
ENDBRANCH   1  19
TORSDOF 4
ENDMDL
