MODEL 1
REMARK VINA RESULT:     -11.3      0.000      0.000
REMARK  Name = 46937071
REMARK  11 active torsions:
REMARK  status: ('A' for Active; 'I' for Inactive)
REMARK    1  A    between atoms: C_1  and  O_2
REMARK    2  A    between atoms: C_1  and  N_4
REMARK    3  A    between atoms: C_1  and  C_18
REMARK    4  A    between atoms: N_4  and  C_6
REMARK    5  A    between atoms: C_9  and  C_15
REMARK    6  A    between atoms: C_11  and  C_17
REMARK    7  A    between atoms: C_18  and  O_20
REMARK    8  A    between atoms: C_18  and  C_22
REMARK    9  A    between atoms: C_22  and  O_23
REMARK   10  A    between atoms: O_23  and  C_24
REMARK   11  A    between atoms: C_29  and  N_32
REMARK                            x       y       z     vdW  Elec       q    Type
REMARK                         _______ _______ _______ _____ _____    ______ ____
ROOT
ATOM      1  C   UNL     1      34.172 -19.304 -20.634  0.00  0.00    +0.214 C 
ENDROOT
BRANCH   1   2
ATOM      2  O   UNL     1      33.020 -19.634 -21.406  0.00  0.00    -0.365 OA
ATOM      3  H   UNL     1      32.855 -20.589 -21.350  0.00  0.00    +0.212 HD
ENDBRANCH   1   2
BRANCH   1   4
ATOM      4  N   UNL     1      34.918 -20.509 -20.300  0.00  0.00    -0.310 N 
ATOM      5  H   UNL     1      35.489 -20.903 -20.999  0.00  0.00    +0.149 HD
BRANCH   4   6
ATOM      6  C   UNL     1      34.878 -21.141 -19.066  0.00  0.00    +0.046 C 
ATOM      7  C   UNL     1      35.969 -21.053 -18.201  0.00  0.00    +0.019 C 
ATOM      8  C   UNL     1      33.746 -21.864 -18.690  0.00  0.00    +0.015 C 
ATOM      9  C   UNL     1      35.928 -21.689 -16.960  0.00  0.00    +0.082 C 
ATOM     10  C   UNL     1      33.705 -22.500 -17.449  0.00  0.00    +0.011 C 
ATOM     11  C   UNL     1      34.795 -22.412 -16.584  0.00  0.00    +0.072 C 
BRANCH   9  15
ATOM     12  F   UNL     1      37.897 -20.499 -16.360  0.00  0.00    -0.166 F 
ATOM     13  F   UNL     1      36.788 -21.436 -14.742  0.00  0.00    -0.166 F 
ATOM     14  F   UNL     1      37.943 -22.658 -16.111  0.00  0.00    -0.166 F 
ATOM     15  C   UNL     1      37.116 -21.575 -16.059  0.00  0.00    +0.419 C 
ENDBRANCH   9  15
BRANCH  11  17
ATOM     16  N   UNL     1      34.676 -23.609 -14.288  0.00  0.00    -0.191 NA
ATOM     17  C   UNL     1      34.729 -23.073 -15.316  0.00  0.00    +0.100 C 
ENDBRANCH  11  17
ENDBRANCH   4   6
ENDBRANCH   1   4
BRANCH   1  18
ATOM     18  C   UNL     1      35.054 -18.297 -21.421  0.00  0.00    +0.171 C 
ATOM     19  C   UNL     1      36.541 -18.582 -21.162  0.00  0.00    +0.038 C 
BRANCH  18  20
ATOM     20  O   UNL     1      34.851 -18.484 -22.826  0.00  0.00    -0.379 OA
ATOM     21  H   UNL     1      33.910 -18.645 -22.998  0.00  0.00    +0.211 HD
ENDBRANCH  18  20
BRANCH  18  22
ATOM     22  C   UNL     1      34.736 -16.831 -21.079  0.00  0.00    +0.236 C 
BRANCH  22  23
ATOM     23  O   UNL     1      34.804 -16.012 -22.236  0.00  0.00    -0.473 OA
BRANCH  23  24
ATOM     24  C   UNL     1      34.061 -14.859 -22.224  0.00  0.00    +0.139 C 
ATOM     25  C   UNL     1      33.612 -14.307 -23.424  0.00  0.00    +0.039 C 
ATOM     26  C   UNL     1      33.756 -14.238 -21.013  0.00  0.00    +0.039 C 
ATOM     27  C   UNL     1      32.856 -13.134 -23.413  0.00  0.00    +0.027 C 
ATOM     28  C   UNL     1      33.002 -13.065 -21.001  0.00  0.00    +0.027 C 
ATOM     29  C   UNL     1      32.552 -12.513 -22.201  0.00  0.00    +0.143 C 
BRANCH  29  32
ATOM     30  O   UNL     1      30.824 -11.222 -21.385  0.00  0.00    -0.126 OA
ATOM     31  O   UNL     1      32.081 -10.395 -22.983  0.00  0.00    -0.126 OA
ATOM     32  N   UNL     1      31.782 -11.320 -22.189  0.00  0.00    +0.058 N 
ENDBRANCH  29  32
ENDBRANCH  23  24
ENDBRANCH  22  23
ENDBRANCH  18  22
ENDBRANCH   1  18
TORSDOF 11
ENDMDL
MODEL 2
REMARK VINA RESULT:     -11.3      5.307      9.870
REMARK  Name = 46937071
REMARK  11 active torsions:
REMARK  status: ('A' for Active; 'I' for Inactive)
REMARK    1  A    between atoms: C_1  and  O_2
REMARK    2  A    between atoms: C_1  and  N_4
REMARK    3  A    between atoms: C_1  and  C_18
REMARK    4  A    between atoms: N_4  and  C_6
REMARK    5  A    between atoms: C_9  and  C_15
REMARK    6  A    between atoms: C_11  and  C_17
REMARK    7  A    between atoms: C_18  and  O_20
REMARK    8  A    between atoms: C_18  and  C_22
REMARK    9  A    between atoms: C_22  and  O_23
REMARK   10  A    between atoms: O_23  and  C_24
REMARK   11  A    between atoms: C_29  and  N_32
REMARK                            x       y       z     vdW  Elec       q    Type
REMARK                         _______ _______ _______ _____ _____    ______ ____
ROOT
ATOM      1  C   UNL     1      34.272 -16.523 -21.480  0.00  0.00    +0.214 C 
ENDROOT
BRANCH   1   2
ATOM      2  O   UNL     1      34.972 -16.844 -20.279  0.00  0.00    -0.365 OA
ATOM      3  H   UNL     1      35.916 -16.957 -20.475  0.00  0.00    +0.212 HD
ENDBRANCH   1   2
BRANCH   1   4
ATOM      4  N   UNL     1      34.550 -15.149 -21.873  0.00  0.00    -0.310 N 
ATOM      5  H   UNL     1      35.412 -14.963 -22.309  0.00  0.00    +0.149 HD
BRANCH   4   6
ATOM      6  C   UNL     1      33.682 -14.085 -21.675  0.00  0.00    +0.046 C 
ATOM      7  C   UNL     1      33.714 -12.988 -22.535  0.00  0.00    +0.019 C 
ATOM      8  C   UNL     1      32.777 -14.113 -20.613  0.00  0.00    +0.015 C 
ATOM      9  C   UNL     1      32.840 -11.918 -22.334  0.00  0.00    +0.082 C 
ATOM     10  C   UNL     1      31.904 -13.044 -20.412  0.00  0.00    +0.011 C 
ATOM     11  C   UNL     1      31.935 -11.947 -21.272  0.00  0.00    +0.072 C 
BRANCH   9  15
ATOM     12  F   UNL     1      33.882 -10.901 -24.214  0.00  0.00    -0.166 F 
ATOM     13  F   UNL     1      31.748 -10.561 -23.972  0.00  0.00    -0.166 F 
ATOM     14  F   UNL     1      33.157  -9.569 -22.656  0.00  0.00    -0.166 F 
ATOM     15  C   UNL     1      32.903 -10.758 -23.275  0.00  0.00    +0.419 C 
ENDBRANCH   9  15
BRANCH  11  17
ATOM     16  N   UNL     1      30.296  -9.982 -20.861  0.00  0.00    -0.191 NA
ATOM     17  C   UNL     1      31.030 -10.862 -21.045  0.00  0.00    +0.100 C 
ENDBRANCH  11  17
ENDBRANCH   4   6
ENDBRANCH   1   4
BRANCH   1  18
ATOM     18  C   UNL     1      34.676 -17.521 -22.598  0.00  0.00    +0.171 C 
ATOM     19  C   UNL     1      34.159 -17.027 -23.958  0.00  0.00    +0.038 C 
BRANCH  18  20
ATOM     20  O   UNL     1      36.104 -17.562 -22.707  0.00  0.00    -0.379 OA
ATOM     21  H   UNL     1      36.404 -16.849 -23.291  0.00  0.00    +0.211 HD
ENDBRANCH  18  20
BRANCH  18  22
ATOM     22  C   UNL     1      34.172 -18.950 -22.335  0.00  0.00    +0.236 C 
BRANCH  22  23
ATOM     23  O   UNL     1      34.968 -19.599 -21.356  0.00  0.00    -0.473 OA
BRANCH  23  24
ATOM     24  C   UNL     1      34.304 -20.286 -20.372  0.00  0.00    +0.139 C 
ATOM     25  C   UNL     1      32.921 -20.152 -20.240  0.00  0.00    +0.039 C 
ATOM     26  C   UNL     1      35.010 -21.119 -19.504  0.00  0.00    +0.039 C 
ATOM     27  C   UNL     1      32.245 -20.850 -19.240  0.00  0.00    +0.027 C 
ATOM     28  C   UNL     1      34.334 -21.817 -18.503  0.00  0.00    +0.027 C 
ATOM     29  C   UNL     1      32.952 -21.682 -18.370  0.00  0.00    +0.143 C 
BRANCH  29  32
ATOM     30  O   UNL     1      31.029 -22.215 -17.214  0.00  0.00    -0.126 OA
ATOM     31  O   UNL     1      32.908 -23.183 -16.620  0.00  0.00    -0.126 OA
ATOM     32  N   UNL     1      32.264 -22.394 -17.353  0.00  0.00    +0.058 N 
ENDBRANCH  29  32
ENDBRANCH  23  24
ENDBRANCH  22  23
ENDBRANCH  18  22
ENDBRANCH   1  18
TORSDOF 11
ENDMDL
MODEL 3
REMARK VINA RESULT:     -11.3      3.924      5.166
REMARK  Name = 46937071
REMARK  11 active torsions:
REMARK  status: ('A' for Active; 'I' for Inactive)
REMARK    1  A    between atoms: C_1  and  O_2
REMARK    2  A    between atoms: C_1  and  N_4
REMARK    3  A    between atoms: C_1  and  C_18
REMARK    4  A    between atoms: N_4  and  C_6
REMARK    5  A    between atoms: C_9  and  C_15
REMARK    6  A    between atoms: C_11  and  C_17
REMARK    7  A    between atoms: C_18  and  O_20
REMARK    8  A    between atoms: C_18  and  C_22
REMARK    9  A    between atoms: C_22  and  O_23
REMARK   10  A    between atoms: O_23  and  C_24
REMARK   11  A    between atoms: C_29  and  N_32
REMARK                            x       y       z     vdW  Elec       q    Type
REMARK                         _______ _______ _______ _____ _____    ______ ____
ROOT
ATOM      1  C   UNL     1      33.166 -20.942 -18.875  0.00  0.00    +0.214 C 
ENDROOT
BRANCH   1   2
ATOM      2  O   UNL     1      32.397 -20.171 -19.797  0.00  0.00    -0.365 OA
ATOM      3  H   UNL     1      32.176 -19.315 -19.397  0.00  0.00    +0.212 HD
ENDBRANCH   1   2
BRANCH   1   4
ATOM      4  N   UNL     1      32.439 -22.144 -18.494  0.00  0.00    -0.310 N 
ATOM      5  H   UNL     1      32.251 -22.807 -19.196  0.00  0.00    +0.149 HD
BRANCH   4   6
ATOM      6  C   UNL     1      31.995 -22.419 -17.209  0.00  0.00    +0.046 C 
ATOM      7  C   UNL     1      30.644 -22.279 -16.892  0.00  0.00    +0.019 C 
ATOM      8  C   UNL     1      32.902 -22.835 -16.233  0.00  0.00    +0.015 C 
ATOM      9  C   UNL     1      30.198 -22.555 -15.599  0.00  0.00    +0.082 C 
ATOM     10  C   UNL     1      32.456 -23.111 -14.940  0.00  0.00    +0.011 C 
ATOM     11  C   UNL     1      31.105 -22.972 -14.623  0.00  0.00    +0.072 C 
BRANCH   9  15
ATOM     12  F   UNL     1      28.519 -21.506 -14.284  0.00  0.00    -0.166 F 
ATOM     13  F   UNL     1      28.015 -21.939 -16.354  0.00  0.00    -0.166 F 
ATOM     14  F   UNL     1      28.136 -23.552 -14.910  0.00  0.00    -0.166 F 
ATOM     15  C   UNL     1      28.744 -22.393 -15.295  0.00  0.00    +0.419 C 
ENDBRANCH   9  15
BRANCH  11  17
ATOM     16  N   UNL     1      30.321 -23.494 -12.208  0.00  0.00    -0.191 NA
ATOM     17  C   UNL     1      30.672 -23.260 -13.290  0.00  0.00    +0.100 C 
ENDBRANCH  11  17
ENDBRANCH   4   6
ENDBRANCH   1   4
BRANCH   1  18
ATOM     18  C   UNL     1      34.539 -21.291 -19.509  0.00  0.00    +0.171 C 
ATOM     19  C   UNL     1      35.665 -21.061 -18.489  0.00  0.00    +0.038 C 
BRANCH  18  20
ATOM     20  O   UNL     1      34.574 -22.685 -19.833  0.00  0.00    -0.379 OA
ATOM     21  H   UNL     1      33.878 -22.884 -20.479  0.00  0.00    +0.211 HD
ENDBRANCH  18  20
BRANCH  18  22
ATOM     22  C   UNL     1      34.826 -20.492 -20.792  0.00  0.00    +0.236 C 
BRANCH  22  23
ATOM     23  O   UNL     1      35.135 -19.139 -20.491  0.00  0.00    -0.473 OA
BRANCH  23  24
ATOM     24  C   UNL     1      34.766 -18.198 -21.418  0.00  0.00    +0.139 C 
ATOM     25  C   UNL     1      34.327 -18.597 -22.681  0.00  0.00    +0.039 C 
ATOM     26  C   UNL     1      34.831 -16.842 -21.099  0.00  0.00    +0.039 C 
ATOM     27  C   UNL     1      33.952 -17.641 -23.624  0.00  0.00    +0.027 C 
ATOM     28  C   UNL     1      34.457 -15.885 -22.042  0.00  0.00    +0.027 C 
ATOM     29  C   UNL     1      34.017 -16.284 -23.305  0.00  0.00    +0.143 C 
BRANCH  29  32
ATOM     30  O   UNL     1      33.415 -14.134 -23.884  0.00  0.00    -0.126 OA
ATOM     31  O   UNL     1      33.526 -15.651 -25.467  0.00  0.00    -0.126 OA
ATOM     32  N   UNL     1      33.635 -15.310 -24.264  0.00  0.00    +0.058 N 
ENDBRANCH  29  32
ENDBRANCH  23  24
ENDBRANCH  22  23
ENDBRANCH  18  22
ENDBRANCH   1  18
TORSDOF 11
ENDMDL
MODEL 4
REMARK VINA RESULT:     -11.1      5.037      9.881
REMARK  Name = 46937071
REMARK  11 active torsions:
REMARK  status: ('A' for Active; 'I' for Inactive)
REMARK    1  A    between atoms: C_1  and  O_2
REMARK    2  A    between atoms: C_1  and  N_4
REMARK    3  A    between atoms: C_1  and  C_18
REMARK    4  A    between atoms: N_4  and  C_6
REMARK    5  A    between atoms: C_9  and  C_15
REMARK    6  A    between atoms: C_11  and  C_17
REMARK    7  A    between atoms: C_18  and  O_20
REMARK    8  A    between atoms: C_18  and  C_22
REMARK    9  A    between atoms: C_22  and  O_23
REMARK   10  A    between atoms: O_23  and  C_24
REMARK   11  A    between atoms: C_29  and  N_32
REMARK                            x       y       z     vdW  Elec       q    Type
REMARK                         _______ _______ _______ _____ _____    ______ ____
ROOT
ATOM      1  C   UNL     1      35.661 -17.914 -21.074  0.00  0.00    +0.214 C 
ENDROOT
BRANCH   1   2
ATOM      2  O   UNL     1      37.067 -18.153 -21.093  0.00  0.00    -0.365 OA
ATOM      3  H   UNL     1      37.531 -17.386 -20.722  0.00  0.00    +0.212 HD
ENDBRANCH   1   2
BRANCH   1   4
ATOM      4  N   UNL     1      35.298 -16.956 -22.108  0.00  0.00    -0.310 N 
ATOM      5  H   UNL     1      35.621 -17.124 -23.022  0.00  0.00    +0.149 HD
BRANCH   4   6
ATOM      6  C   UNL     1      34.528 -15.822 -21.892  0.00  0.00    +0.046 C 
ATOM      7  C   UNL     1      34.142 -15.025 -22.969  0.00  0.00    +0.019 C 
ATOM      8  C   UNL     1      34.141 -15.480 -20.596  0.00  0.00    +0.015 C 
ATOM      9  C   UNL     1      33.368 -13.885 -22.751  0.00  0.00    +0.082 C 
ATOM     10  C   UNL     1      33.367 -14.340 -20.378  0.00  0.00    +0.011 C 
ATOM     11  C   UNL     1      32.980 -13.542 -21.455  0.00  0.00    +0.072 C 
BRANCH   9  15
ATOM     12  F   UNL     1      33.213 -13.681 -25.114  0.00  0.00    -0.166 F 
ATOM     13  F   UNL     1      31.650 -12.726 -23.944  0.00  0.00    -0.166 F 
ATOM     14  F   UNL     1      33.639 -11.863 -24.001  0.00  0.00    -0.166 F 
ATOM     15  C   UNL     1      32.974 -13.052 -23.929  0.00  0.00    +0.419 C 
ENDBRANCH   9  15
BRANCH  11  17
ATOM     16  N   UNL     1      31.543 -11.434 -21.002  0.00  0.00    -0.191 NA
ATOM     17  C   UNL     1      32.187 -12.378 -21.205  0.00  0.00    +0.100 C 
ENDBRANCH  11  17
ENDBRANCH   4   6
ENDBRANCH   1   4
BRANCH   1  18
ATOM     18  C   UNL     1      34.905 -19.257 -21.260  0.00  0.00    +0.171 C 
ATOM     19  C   UNL     1      33.443 -19.105 -20.814  0.00  0.00    +0.038 C 
BRANCH  18  20
ATOM     20  O   UNL     1      34.863 -19.591 -22.652  0.00  0.00    -0.379 OA
ATOM     21  H   UNL     1      35.657 -19.247 -23.090  0.00  0.00    +0.211 HD
ENDBRANCH  18  20
BRANCH  18  22
ATOM     22  C   UNL     1      35.563 -20.423 -20.504  0.00  0.00    +0.236 C 
BRANCH  22  23
ATOM     23  O   UNL     1      34.601 -21.155 -19.759  0.00  0.00    -0.473 OA
BRANCH  23  24
ATOM     24  C   UNL     1      34.940 -21.497 -18.475  0.00  0.00    +0.139 C 
ATOM     25  C   UNL     1      34.022 -22.169 -17.667  0.00  0.00    +0.039 C 
ATOM     26  C   UNL     1      36.202 -21.173 -17.977  0.00  0.00    +0.039 C 
ATOM     27  C   UNL     1      34.367 -22.517 -16.361  0.00  0.00    +0.027 C 
ATOM     28  C   UNL     1      36.546 -21.520 -16.671  0.00  0.00    +0.027 C 
ATOM     29  C   UNL     1      35.629 -22.192 -15.862  0.00  0.00    +0.143 C 
BRANCH  29  32
ATOM     30  O   UNL     1      35.083 -22.955 -13.756  0.00  0.00    -0.126 OA
ATOM     31  O   UNL     1      37.177 -22.441 -14.171  0.00  0.00    -0.126 OA
ATOM     32  N   UNL     1      35.980 -22.546 -14.533  0.00  0.00    +0.058 N 
ENDBRANCH  29  32
ENDBRANCH  23  24
ENDBRANCH  22  23
ENDBRANCH  18  22
ENDBRANCH   1  18
TORSDOF 11
ENDMDL
MODEL 5
REMARK VINA RESULT:     -10.9      4.409      9.968
REMARK  Name = 46937071
REMARK  11 active torsions:
REMARK  status: ('A' for Active; 'I' for Inactive)
REMARK    1  A    between atoms: C_1  and  O_2
REMARK    2  A    between atoms: C_1  and  N_4
REMARK    3  A    between atoms: C_1  and  C_18
REMARK    4  A    between atoms: N_4  and  C_6
REMARK    5  A    between atoms: C_9  and  C_15
REMARK    6  A    between atoms: C_11  and  C_17
REMARK    7  A    between atoms: C_18  and  O_20
REMARK    8  A    between atoms: C_18  and  C_22
REMARK    9  A    between atoms: C_22  and  O_23
REMARK   10  A    between atoms: O_23  and  C_24
REMARK   11  A    between atoms: C_29  and  N_32
REMARK                            x       y       z     vdW  Elec       q    Type
REMARK                         _______ _______ _______ _____ _____    ______ ____
ROOT
ATOM      1  C   UNL     1      35.230 -18.398 -20.860  0.00  0.00    +0.214 C 
ENDROOT
BRANCH   1   2
ATOM      2  O   UNL     1      36.551 -18.323 -20.327  0.00  0.00    -0.365 OA
ATOM      3  H   UNL     1      36.859 -19.214 -20.099  0.00  0.00    +0.212 HD
ENDBRANCH   1   2
BRANCH   1   4
ATOM      4  N   UNL     1      35.233 -18.029 -22.268  0.00  0.00    -0.310 N 
ATOM      5  H   UNL     1      35.687 -18.632 -22.899  0.00  0.00    +0.149 HD
BRANCH   4   6
ATOM      6  C   UNL     1      34.639 -16.885 -22.780  0.00  0.00    +0.046 C 
ATOM      7  C   UNL     1      34.443 -15.773 -21.962  0.00  0.00    +0.019 C 
ATOM      8  C   UNL     1      34.237 -16.847 -24.116  0.00  0.00    +0.015 C 
ATOM      9  C   UNL     1      33.845 -14.623 -22.478  0.00  0.00    +0.082 C 
ATOM     10  C   UNL     1      33.639 -15.697 -24.632  0.00  0.00    +0.011 C 
ATOM     11  C   UNL     1      33.443 -14.585 -23.814  0.00  0.00    +0.072 C 
BRANCH   9  15
ATOM     12  F   UNL     1      34.135 -12.293 -22.103  0.00  0.00    -0.166 F 
ATOM     13  F   UNL     1      32.340 -13.203 -21.279  0.00  0.00    -0.166 F 
ATOM     14  F   UNL     1      34.267 -13.589 -20.362  0.00  0.00    -0.166 F 
ATOM     15  C   UNL     1      33.649 -13.451 -21.571  0.00  0.00    +0.419 C 
ENDBRANCH   9  15
BRANCH  11  17
ATOM     16  N   UNL     1      32.328 -12.470 -24.814  0.00  0.00    -0.191 NA
ATOM     17  C   UNL     1      32.828 -13.418 -24.366  0.00  0.00    +0.100 C 
ENDBRANCH  11  17
ENDBRANCH   4   6
ENDBRANCH   1   4
BRANCH   1  18
ATOM     18  C   UNL     1      34.670 -19.832 -20.655  0.00  0.00    +0.171 C 
ATOM     19  C   UNL     1      33.199 -19.765 -20.215  0.00  0.00    +0.038 C 
BRANCH  18  20
ATOM     20  O   UNL     1      34.680 -20.530 -21.905  0.00  0.00    -0.379 OA
ATOM     21  H   UNL     1      33.768 -20.705 -22.185  0.00  0.00    +0.211 HD
ENDBRANCH  18  20
BRANCH  18  22
ATOM     22  C   UNL     1      35.482 -20.651 -19.638  0.00  0.00    +0.236 C 
BRANCH  22  23
ATOM     23  O   UNL     1      34.627 -21.316 -18.720  0.00  0.00    -0.473 OA
BRANCH  23  24
ATOM     24  C   UNL     1      35.182 -21.706 -17.528  0.00  0.00    +0.139 C 
ATOM     25  C   UNL     1      34.434 -22.463 -16.626  0.00  0.00    +0.039 C 
ATOM     26  C   UNL     1      36.492 -21.344 -17.216  0.00  0.00    +0.039 C 
ATOM     27  C   UNL     1      34.997 -22.860 -15.413  0.00  0.00    +0.027 C 
ATOM     28  C   UNL     1      37.055 -21.739 -16.003  0.00  0.00    +0.027 C 
ATOM     29  C   UNL     1      36.308 -22.497 -15.101  0.00  0.00    +0.143 C 
BRANCH  29  32
ATOM     30  O   UNL     1      37.966 -23.534 -13.878  0.00  0.00    -0.126 OA
ATOM     31  O   UNL     1      36.289 -22.615 -12.798  0.00  0.00    -0.126 OA
ATOM     32  N   UNL     1      36.882 -22.901 -13.867  0.00  0.00    +0.058 N 
ENDBRANCH  29  32
ENDBRANCH  23  24
ENDBRANCH  22  23
ENDBRANCH  18  22
ENDBRANCH   1  18
TORSDOF 11
ENDMDL
MODEL 6
REMARK VINA RESULT:     -10.8      6.389      9.682
REMARK  Name = 46937071
REMARK  11 active torsions:
REMARK  status: ('A' for Active; 'I' for Inactive)
REMARK    1  A    between atoms: C_1  and  O_2
REMARK    2  A    between atoms: C_1  and  N_4
REMARK    3  A    between atoms: C_1  and  C_18
REMARK    4  A    between atoms: N_4  and  C_6
REMARK    5  A    between atoms: C_9  and  C_15
REMARK    6  A    between atoms: C_11  and  C_17
REMARK    7  A    between atoms: C_18  and  O_20
REMARK    8  A    between atoms: C_18  and  C_22
REMARK    9  A    between atoms: C_22  and  O_23
REMARK   10  A    between atoms: O_23  and  C_24
REMARK   11  A    between atoms: C_29  and  N_32
REMARK                            x       y       z     vdW  Elec       q    Type
REMARK                         _______ _______ _______ _____ _____    ______ ____
ROOT
ATOM      1  C   UNL     1      35.619 -22.724 -13.138  0.00  0.00    +0.214 C 
ENDROOT
BRANCH   1   2
ATOM      2  O   UNL     1      36.814 -22.589 -12.372  0.00  0.00    -0.365 OA
ATOM      3  H   UNL     1      37.057 -21.652 -12.312  0.00  0.00    +0.212 HD
ENDBRANCH   1   2
BRANCH   1   4
ATOM      4  N   UNL     1      35.918 -23.297 -14.442  0.00  0.00    -0.310 N 
ATOM      5  H   UNL     1      36.223 -24.232 -14.472  0.00  0.00    +0.149 HD
BRANCH   4   6
ATOM      6  C   UNL     1      35.802 -22.615 -15.644  0.00  0.00    +0.046 C 
ATOM      7  C   UNL     1      34.624 -22.701 -16.386  0.00  0.00    +0.019 C 
ATOM      8  C   UNL     1      36.866 -21.842 -16.112  0.00  0.00    +0.015 C 
ATOM      9  C   UNL     1      34.509 -22.015 -17.595  0.00  0.00    +0.082 C 
ATOM     10  C   UNL     1      36.751 -21.156 -17.321  0.00  0.00    +0.011 C 
ATOM     11  C   UNL     1      35.573 -21.242 -18.063  0.00  0.00    +0.072 C 
BRANCH   9  15
ATOM     12  F   UNL     1      32.285 -22.850 -17.697  0.00  0.00    -0.166 F 
ATOM     13  F   UNL     1      32.654 -20.928 -18.643  0.00  0.00    -0.166 F 
ATOM     14  F   UNL     1      33.380 -22.748 -19.572  0.00  0.00    -0.166 F 
ATOM     15  C   UNL     1      33.232 -22.131 -18.364  0.00  0.00    +0.419 C 
ENDBRANCH   9  15
BRANCH  11  17
ATOM     16  N   UNL     1      35.404 -19.951 -20.303  0.00  0.00    -0.191 NA
ATOM     17  C   UNL     1      35.479 -20.529 -19.300  0.00  0.00    +0.100 C 
ENDBRANCH  11  17
ENDBRANCH   4   6
ENDBRANCH   1   4
BRANCH   1  18
ATOM     18  C   UNL     1      34.599 -23.598 -12.359  0.00  0.00    +0.171 C 
ATOM     19  C   UNL     1      35.341 -24.602 -11.464  0.00  0.00    +0.038 C 
BRANCH  18  20
ATOM     20  O   UNL     1      33.835 -22.767 -11.477  0.00  0.00    -0.379 OA
ATOM     21  H   UNL     1      33.505 -23.300 -10.737  0.00  0.00    +0.211 HD
ENDBRANCH  18  20
BRANCH  18  22
ATOM     22  C   UNL     1      33.623 -24.345 -13.284  0.00  0.00    +0.236 C 
BRANCH  22  23
ATOM     23  O   UNL     1      32.299 -24.293 -12.775  0.00  0.00    -0.473 OA
BRANCH  23  24
ATOM     24  C   UNL     1      31.306 -23.963 -13.662  0.00  0.00    +0.139 C 
ATOM     25  C   UNL     1      30.233 -24.831 -13.862  0.00  0.00    +0.039 C 
ATOM     26  C   UNL     1      31.370 -22.760 -14.365  0.00  0.00    +0.039 C 
ATOM     27  C   UNL     1      29.223 -24.496 -14.765  0.00  0.00    +0.027 C 
ATOM     28  C   UNL     1      30.362 -22.424 -15.268  0.00  0.00    +0.027 C 
ATOM     29  C   UNL     1      29.288 -23.293 -15.468  0.00  0.00    +0.143 C 
BRANCH  29  32
ATOM     30  O   UNL     1      27.528 -23.860 -16.845  0.00  0.00    -0.126 OA
ATOM     31  O   UNL     1      28.112 -21.748 -16.713  0.00  0.00    -0.126 OA
ATOM     32  N   UNL     1      28.260 -22.951 -16.385  0.00  0.00    +0.058 N 
ENDBRANCH  29  32
ENDBRANCH  23  24
ENDBRANCH  22  23
ENDBRANCH  18  22
ENDBRANCH   1  18
TORSDOF 11
ENDMDL
MODEL 7
REMARK VINA RESULT:     -10.8      2.709      4.137
REMARK  Name = 46937071
REMARK  11 active torsions:
REMARK  status: ('A' for Active; 'I' for Inactive)
REMARK    1  A    between atoms: C_1  and  O_2
REMARK    2  A    between atoms: C_1  and  N_4
REMARK    3  A    between atoms: C_1  and  C_18
REMARK    4  A    between atoms: N_4  and  C_6
REMARK    5  A    between atoms: C_9  and  C_15
REMARK    6  A    between atoms: C_11  and  C_17
REMARK    7  A    between atoms: C_18  and  O_20
REMARK    8  A    between atoms: C_18  and  C_22
REMARK    9  A    between atoms: C_22  and  O_23
REMARK   10  A    between atoms: O_23  and  C_24
REMARK   11  A    between atoms: C_29  and  N_32
REMARK                            x       y       z     vdW  Elec       q    Type
REMARK                         _______ _______ _______ _____ _____    ______ ____
ROOT
ATOM      1  C   UNL     1      32.972 -21.464 -18.089  0.00  0.00    +0.214 C 
ENDROOT
BRANCH   1   2
ATOM      2  O   UNL     1      31.762 -21.008 -18.691  0.00  0.00    -0.365 OA
ATOM      3  H   UNL     1      31.028 -21.578 -18.413  0.00  0.00    +0.212 HD
ENDBRANCH   1   2
BRANCH   1   4
ATOM      4  N   UNL     1      32.760 -22.750 -17.440  0.00  0.00    -0.310 N 
ATOM      5  H   UNL     1      32.284 -23.446 -17.948  0.00  0.00    +0.149 HD
BRANCH   4   6
ATOM      6  C   UNL     1      33.182 -23.060 -16.156  0.00  0.00    +0.046 C 
ATOM      7  C   UNL     1      34.544 -23.113 -15.862  0.00  0.00    +0.019 C 
ATOM      8  C   UNL     1      32.242 -23.320 -15.157  0.00  0.00    +0.015 C 
ATOM      9  C   UNL     1      34.967 -23.426 -14.570  0.00  0.00    +0.082 C 
ATOM     10  C   UNL     1      32.665 -23.633 -13.865  0.00  0.00    +0.011 C 
ATOM     11  C   UNL     1      34.027 -23.686 -13.571  0.00  0.00    +0.072 C 
BRANCH   9  15
ATOM     12  F   UNL     1      36.848 -24.710 -13.886  0.00  0.00    -0.166 F 
ATOM     13  F   UNL     1      37.204 -23.165 -15.374  0.00  0.00    -0.166 F 
ATOM     14  F   UNL     1      36.832 -22.614 -13.310  0.00  0.00    -0.166 F 
ATOM     15  C   UNL     1      36.436 -23.475 -14.291  0.00  0.00    +0.419 C 
ENDBRANCH   9  15
BRANCH  11  17
ATOM     16  N   UNL     1      34.769 -24.270 -11.158  0.00  0.00    -0.191 NA
ATOM     17  C   UNL     1      34.437 -24.008 -12.239  0.00  0.00    +0.100 C 
ENDBRANCH  11  17
ENDBRANCH   4   6
ENDBRANCH   1   4
BRANCH   1  18
ATOM     18  C   UNL     1      34.086 -21.555 -19.167  0.00  0.00    +0.171 C 
ATOM     19  C   UNL     1      35.449 -21.213 -18.547  0.00  0.00    +0.038 C 
BRANCH  18  20
ATOM     20  O   UNL     1      34.188 -22.905 -19.634  0.00  0.00    -0.379 OA
ATOM     21  H   UNL     1      34.401 -23.489 -18.889  0.00  0.00    +0.211 HD
ENDBRANCH  18  20
BRANCH  18  22
ATOM     22  C   UNL     1      33.820 -20.645 -20.378  0.00  0.00    +0.236 C 
BRANCH  22  23
ATOM     23  O   UNL     1      34.926 -19.791 -20.626  0.00  0.00    -0.473 OA
BRANCH  23  24
ATOM     24  C   UNL     1      34.716 -18.734 -21.475  0.00  0.00    +0.139 C 
ATOM     25  C   UNL     1      34.989 -17.433 -21.050  0.00  0.00    +0.039 C 
ATOM     26  C   UNL     1      34.227 -18.959 -22.761  0.00  0.00    +0.039 C 
ATOM     27  C   UNL     1      34.774 -16.358 -21.913  0.00  0.00    +0.027 C 
ATOM     28  C   UNL     1      34.011 -17.885 -23.624  0.00  0.00    +0.027 C 
ATOM     29  C   UNL     1      34.285 -16.584 -23.200  0.00  0.00    +0.143 C 
BRANCH  29  32
ATOM     30  O   UNL     1      34.085 -14.324 -23.614  0.00  0.00    -0.126 OA
ATOM     31  O   UNL     1      33.862 -15.718 -25.295  0.00  0.00    -0.126 OA
ATOM     32  N   UNL     1      34.067 -15.490 -24.078  0.00  0.00    +0.058 N 
ENDBRANCH  29  32
ENDBRANCH  23  24
ENDBRANCH  22  23
ENDBRANCH  18  22
ENDBRANCH   1  18
TORSDOF 11
ENDMDL
MODEL 8
REMARK VINA RESULT:     -10.7      4.359      9.868
REMARK  Name = 46937071
REMARK  11 active torsions:
REMARK  status: ('A' for Active; 'I' for Inactive)
REMARK    1  A    between atoms: C_1  and  O_2
REMARK    2  A    between atoms: C_1  and  N_4
REMARK    3  A    between atoms: C_1  and  C_18
REMARK    4  A    between atoms: N_4  and  C_6
REMARK    5  A    between atoms: C_9  and  C_15
REMARK    6  A    between atoms: C_11  and  C_17
REMARK    7  A    between atoms: C_18  and  O_20
REMARK    8  A    between atoms: C_18  and  C_22
REMARK    9  A    between atoms: C_22  and  O_23
REMARK   10  A    between atoms: O_23  and  C_24
REMARK   11  A    between atoms: C_29  and  N_32
REMARK                            x       y       z     vdW  Elec       q    Type
REMARK                         _______ _______ _______ _____ _____    ______ ____
ROOT
ATOM      1  C   UNL     1      34.233 -16.455 -22.045  0.00  0.00    +0.214 C 
ENDROOT
BRANCH   1   2
ATOM      2  O   UNL     1      34.898 -16.460 -20.783  0.00  0.00    -0.365 OA
ATOM      3  H   UNL     1      35.362 -15.617 -20.658  0.00  0.00    +0.212 HD
ENDBRANCH   1   2
BRANCH   1   4
ATOM      4  N   UNL     1      34.636 -15.293 -22.823  0.00  0.00    -0.310 N 
ATOM      5  H   UNL     1      35.443 -15.372 -23.380  0.00  0.00    +0.149 HD
BRANCH   4   6
ATOM      6  C   UNL     1      33.960 -14.082 -22.831  0.00  0.00    +0.046 C 
ATOM      7  C   UNL     1      33.217 -13.688 -21.718  0.00  0.00    +0.019 C 
ATOM      8  C   UNL     1      34.024 -13.256 -23.955  0.00  0.00    +0.015 C 
ATOM      9  C   UNL     1      32.537 -12.470 -21.728  0.00  0.00    +0.082 C 
ATOM     10  C   UNL     1      33.344 -12.038 -23.964  0.00  0.00    +0.011 C 
ATOM     11  C   UNL     1      32.601 -11.645 -22.852  0.00  0.00    +0.072 C 
BRANCH   9  15
ATOM     12  F   UNL     1      30.469 -11.726 -20.823  0.00  0.00    -0.166 F 
ATOM     13  F   UNL     1      31.645 -13.080 -19.594  0.00  0.00    -0.166 F 
ATOM     14  F   UNL     1      32.277 -11.020 -19.844  0.00  0.00    -0.166 F 
ATOM     15  C   UNL     1      31.749 -12.082 -20.518  0.00  0.00    +0.419 C 
ENDBRANCH   9  15
BRANCH  11  17
ATOM     16  N   UNL     1      31.354  -9.374 -22.914  0.00  0.00    -0.191 NA
ATOM     17  C   UNL     1      31.912 -10.391 -22.886  0.00  0.00    +0.100 C 
ENDBRANCH  11  17
ENDBRANCH   4   6
ENDBRANCH   1   4
BRANCH   1  18
ATOM     18  C   UNL     1      34.547 -17.775 -22.801  0.00  0.00    +0.171 C 
ATOM     19  C   UNL     1      33.965 -17.719 -24.222  0.00  0.00    +0.038 C 
BRANCH  18  20
ATOM     20  O   UNL     1      35.964 -17.910 -22.955  0.00  0.00    -0.379 OA
ATOM     21  H   UNL     1      36.352 -17.043 -23.147  0.00  0.00    +0.211 HD
ENDBRANCH  18  20
BRANCH  18  22
ATOM     22  C   UNL     1      34.020 -19.022 -22.070  0.00  0.00    +0.236 C 
BRANCH  22  23
ATOM     23  O   UNL     1      34.965 -19.493 -21.121  0.00  0.00    -0.473 OA
BRANCH  23  24
ATOM     24  C   UNL     1      34.487 -20.298 -20.118  0.00  0.00    +0.139 C 
ATOM     25  C   UNL     1      33.111 -20.452 -19.943  0.00  0.00    +0.039 C 
ATOM     26  C   UNL     1      35.376 -20.961 -19.273  0.00  0.00    +0.039 C 
ATOM     27  C   UNL     1      32.625 -21.270 -18.924  0.00  0.00    +0.027 C 
ATOM     28  C   UNL     1      34.890 -21.779 -18.253  0.00  0.00    +0.027 C 
ATOM     29  C   UNL     1      33.514 -21.933 -18.078  0.00  0.00    +0.143 C 
BRANCH  29  32
ATOM     30  O   UNL     1      31.830 -22.630 -16.665  0.00  0.00    -0.126 OA
ATOM     31  O   UNL     1      33.785 -23.618 -16.526  0.00  0.00    -0.126 OA
ATOM     32  N   UNL     1      33.020 -22.766 -17.040  0.00  0.00    +0.058 N 
ENDBRANCH  29  32
ENDBRANCH  23  24
ENDBRANCH  22  23
ENDBRANCH  18  22
ENDBRANCH   1  18
TORSDOF 11
ENDMDL
MODEL 9
REMARK VINA RESULT:     -10.7      5.092      7.815
REMARK  Name = 46937071
REMARK  11 active torsions:
REMARK  status: ('A' for Active; 'I' for Inactive)
REMARK    1  A    between atoms: C_1  and  O_2
REMARK    2  A    between atoms: C_1  and  N_4
REMARK    3  A    between atoms: C_1  and  C_18
REMARK    4  A    between atoms: N_4  and  C_6
REMARK    5  A    between atoms: C_9  and  C_15
REMARK    6  A    between atoms: C_11  and  C_17
REMARK    7  A    between atoms: C_18  and  O_20
REMARK    8  A    between atoms: C_18  and  C_22
REMARK    9  A    between atoms: C_22  and  O_23
REMARK   10  A    between atoms: O_23  and  C_24
REMARK   11  A    between atoms: C_29  and  N_32
REMARK                            x       y       z     vdW  Elec       q    Type
REMARK                         _______ _______ _______ _____ _____    ______ ____
ROOT
ATOM      1  C   UNL     1      35.238 -23.220 -13.665  0.00  0.00    +0.214 C 
ENDROOT
BRANCH   1   2
ATOM      2  O   UNL     1      35.961 -22.485 -12.680  0.00  0.00    -0.365 OA
ATOM      3  H   UNL     1      35.611 -21.581 -12.629  0.00  0.00    +0.212 HD
ENDBRANCH   1   2
BRANCH   1   4
ATOM      4  N   UNL     1      34.014 -22.517 -14.022  0.00  0.00    -0.310 N 
ATOM      5  H   UNL     1      34.084 -21.562 -14.248  0.00  0.00    +0.149 HD
BRANCH   4   6
ATOM      6  C   UNL     1      32.757 -23.102 -14.066  0.00  0.00    +0.046 C 
ATOM      7  C   UNL     1      31.782 -22.600 -14.928  0.00  0.00    +0.019 C 
ATOM      8  C   UNL     1      32.468 -24.194 -13.247  0.00  0.00    +0.015 C 
ATOM      9  C   UNL     1      30.518 -23.188 -14.971  0.00  0.00    +0.082 C 
ATOM     10  C   UNL     1      31.204 -24.783 -13.290  0.00  0.00    +0.011 C 
ATOM     11  C   UNL     1      30.229 -24.281 -14.151  0.00  0.00    +0.072 C 
BRANCH   9  15
ATOM     12  F   UNL     1      28.561 -21.871 -15.260  0.00  0.00    -0.166 F 
ATOM     13  F   UNL     1      30.029 -21.809 -16.862  0.00  0.00    -0.166 F 
ATOM     14  F   UNL     1      28.799 -23.574 -16.589  0.00  0.00    -0.166 F 
ATOM     15  C   UNL     1      29.497 -22.622 -15.905  0.00  0.00    +0.419 C 
ENDBRANCH   9  15
BRANCH  11  17
ATOM     16  N   UNL     1      27.895 -25.406 -14.198  0.00  0.00    -0.191 NA
ATOM     17  C   UNL     1      28.941 -24.902 -14.177  0.00  0.00    +0.100 C 
ENDBRANCH  11  17
ENDBRANCH   4   6
ENDBRANCH   1   4
BRANCH   1  18
ATOM     18  C   UNL     1      36.140 -23.447 -14.909  0.00  0.00    +0.171 C 
ATOM     19  C   UNL     1      37.610 -23.570 -14.478  0.00  0.00    +0.038 C 
BRANCH  18  20
ATOM     20  O   UNL     1      35.799 -24.694 -15.524  0.00  0.00    -0.379 OA
ATOM     21  H   UNL     1      35.251 -24.529 -16.306  0.00  0.00    +0.211 HD
ENDBRANCH  18  20
BRANCH  18  22
ATOM     22  C   UNL     1      35.996 -22.335 -15.962  0.00  0.00    +0.236 C 
BRANCH  22  23
ATOM     23  O   UNL     1      34.900 -22.592 -16.827  0.00  0.00    -0.473 OA
BRANCH  23  24
ATOM     24  C   UNL     1      34.787 -21.795 -17.938  0.00  0.00    +0.139 C 
ATOM     25  C   UNL     1      33.538 -21.593 -18.527  0.00  0.00    +0.039 C 
ATOM     26  C   UNL     1      35.920 -21.187 -18.479  0.00  0.00    +0.039 C 
ATOM     27  C   UNL     1      33.423 -20.782 -19.656  0.00  0.00    +0.027 C 
ATOM     28  C   UNL     1      35.805 -20.378 -19.609  0.00  0.00    +0.027 C 
ATOM     29  C   UNL     1      34.556 -20.175 -20.198  0.00  0.00    +0.143 C 
BRANCH  29  32
ATOM     30  O   UNL     1      35.430 -18.673 -21.714  0.00  0.00    -0.126 OA
ATOM     31  O   UNL     1      33.347 -19.319 -21.965  0.00  0.00    -0.126 OA
ATOM     32  N   UNL     1      34.439 -19.350 -21.347  0.00  0.00    +0.058 N 
ENDBRANCH  29  32
ENDBRANCH  23  24
ENDBRANCH  22  23
ENDBRANCH  18  22
ENDBRANCH   1  18
TORSDOF 11
ENDMDL
