MODEL 1
REMARK VINA RESULT:     -12.3      0.000      0.000
REMARK  Name = 1700
REMARK  5 active torsions:
REMARK  status: ('A' for Active; 'I' for Inactive)
REMARK    1  A    between atoms: N_2  and  C_17
REMARK    2  A    between atoms: C_3  and  C_5
REMARK    3  A    between atoms: C_6  and  S_11
REMARK    4  A    between atoms: S_11  and  N_14
REMARK    5  A    between atoms: C_17  and  C_20
REMARK                            x       y       z     vdW  Elec       q    Type
REMARK                         _______ _______ _______ _____ _____    ______ ____
ROOT
ATOM      1  O   UNL     1      36.416 -18.329 -21.660  0.00  0.00    -0.270 OA
ATOM      2  N   UNL     1      34.250 -17.902 -22.370  0.00  0.00    -0.297 N 
ATOM      3  C   UNL     1      35.197 -18.558 -21.574  0.00  0.00    +0.246 C 
ATOM      4  H   UNL     1      33.301 -18.131 -22.250  0.00  0.00    +0.150 HD
ENDROOT
BRANCH   3   5
ATOM      5  C   UNL     1      34.697 -19.554 -20.640  0.00  0.00    +0.053 C 
ATOM      6  C   UNL     1      33.737 -21.468 -18.851  0.00  0.00    +0.122 C 
ATOM      7  C   UNL     1      35.589 -20.286 -19.857  0.00  0.00    +0.006 C 
ATOM      8  C   UNL     1      33.324 -19.779 -20.528  0.00  0.00    +0.006 C 
ATOM      9  C   UNL     1      35.110 -21.243 -18.963  0.00  0.00    +0.020 C 
ATOM     10  C   UNL     1      32.844 -20.736 -19.633  0.00  0.00    +0.020 C 
BRANCH   6  11
ATOM     11  S   UNL     1      33.138 -22.664 -17.730  0.00  0.00    +0.057 S 
ATOM     12  O   UNL     1      33.110 -23.955 -18.405  0.00  0.00    -0.153 OA
ATOM     13  O   UNL     1      33.859 -22.522 -16.473  0.00  0.00    -0.153 OA
BRANCH  11  14
ATOM     14  N   UNL     1      31.532 -22.124 -17.505  0.00  0.00    -0.203 NA
ATOM     15  H   UNL     1      30.992 -22.851 -17.035  0.00  0.00    +0.144 HD
ATOM     16  H   UNL     1      31.112 -21.921 -18.413  0.00  0.00    +0.144 HD
ENDBRANCH  11  14
ENDBRANCH   6  11
ENDBRANCH   3   5
BRANCH   2  17
ATOM     17  C   UNL     1      34.593 -16.905 -23.359  0.00  0.00    +0.119 C 
BRANCH  17  20
ATOM     18  F   UNL     1      33.689 -14.870 -25.099  0.00  0.00    -0.202 F 
ATOM     19  F   UNL     1      32.919 -12.411 -24.207  0.00  0.00    -0.202 F 
ATOM     20  C   UNL     1      34.169 -15.552 -22.877  0.00  0.00    +0.027 C 
ATOM     21  C   UNL     1      33.734 -14.595 -23.788  0.00  0.00    +0.165 C 
ATOM     22  C   UNL     1      34.214 -15.262 -21.516  0.00  0.00    -0.000 C 
ATOM     23  C   UNL     1      33.340 -13.336 -23.335  0.00  0.00    +0.167 C 
ATOM     24  C   UNL     1      33.820 -14.003 -21.063  0.00  0.00    +0.002 C 
ATOM     25  C   UNL     1      33.382 -13.040 -21.972  0.00  0.00    +0.032 C 
ENDBRANCH  17  20
ENDBRANCH   2  17
TORSDOF 5
ENDMDL
MODEL 2
REMARK VINA RESULT:     -11.9      1.560      1.885
REMARK  Name = 1700
REMARK  5 active torsions:
REMARK  status: ('A' for Active; 'I' for Inactive)
REMARK    1  A    between atoms: N_2  and  C_17
REMARK    2  A    between atoms: C_3  and  C_5
REMARK    3  A    between atoms: C_6  and  S_11
REMARK    4  A    between atoms: S_11  and  N_14
REMARK    5  A    between atoms: C_17  and  C_20
REMARK                            x       y       z     vdW  Elec       q    Type
REMARK                         _______ _______ _______ _____ _____    ______ ____
ROOT
ATOM      1  O   UNL     1      36.666 -17.932 -21.994  0.00  0.00    -0.270 OA
ATOM      2  N   UNL     1      34.527 -17.046 -22.121  0.00  0.00    -0.297 N 
ATOM      3  C   UNL     1      35.463 -17.992 -21.685  0.00  0.00    +0.246 C 
ATOM      4  H   UNL     1      33.591 -17.153 -21.838  0.00  0.00    +0.150 HD
ENDROOT
BRANCH   3   5
ATOM      5  C   UNL     1      34.966 -19.081 -20.860  0.00  0.00    +0.053 C 
ATOM      6  C   UNL     1      34.011 -21.173 -19.280  0.00  0.00    +0.122 C 
ATOM      7  C   UNL     1      35.860 -19.888 -20.157  0.00  0.00    +0.006 C 
ATOM      8  C   UNL     1      33.594 -19.320 -20.772  0.00  0.00    +0.006 C 
ATOM      9  C   UNL     1      35.383 -20.934 -19.368  0.00  0.00    +0.020 C 
ATOM     10  C   UNL     1      33.116 -20.366 -19.982  0.00  0.00    +0.020 C 
BRANCH   6  11
ATOM     11  S   UNL     1      33.415 -22.481 -18.290  0.00  0.00    +0.057 S 
ATOM     12  O   UNL     1      33.324 -23.678 -19.115  0.00  0.00    -0.153 OA
ATOM     13  O   UNL     1      34.184 -22.512 -17.054  0.00  0.00    -0.153 OA
BRANCH  11  14
ATOM     14  N   UNL     1      31.836 -21.931 -17.939  0.00  0.00    -0.203 NA
ATOM     15  H   UNL     1      31.595 -22.177 -16.979  0.00  0.00    +0.144 HD
ATOM     16  H   UNL     1      31.173 -22.369 -18.580  0.00  0.00    +0.144 HD
ENDBRANCH  11  14
ENDBRANCH   6  11
ENDBRANCH   3   5
BRANCH   2  17
ATOM     17  C   UNL     1      34.862 -15.922 -22.964  0.00  0.00    +0.119 C 
BRANCH  17  20
ATOM     18  F   UNL     1      34.160 -15.111 -20.349  0.00  0.00    -0.202 F 
ATOM     19  F   UNL     1      32.448 -13.047 -19.862  0.00  0.00    -0.202 F 
ATOM     20  C   UNL     1      33.921 -14.789 -22.689  0.00  0.00    +0.027 C 
ATOM     21  C   UNL     1      33.619 -14.441 -21.376  0.00  0.00    +0.165 C 
ATOM     22  C   UNL     1      33.356 -14.090 -23.752  0.00  0.00    -0.000 C 
ATOM     23  C   UNL     1      32.742 -13.386 -21.123  0.00  0.00    +0.167 C 
ATOM     24  C   UNL     1      32.480 -13.035 -23.500  0.00  0.00    +0.002 C 
ATOM     25  C   UNL     1      32.173 -12.682 -22.185  0.00  0.00    +0.032 C 
ENDBRANCH  17  20
ENDBRANCH   2  17
TORSDOF 5
ENDMDL
MODEL 3
REMARK VINA RESULT:     -11.6      6.011      9.341
REMARK  Name = 1700
REMARK  5 active torsions:
REMARK  status: ('A' for Active; 'I' for Inactive)
REMARK    1  A    between atoms: N_2  and  C_17
REMARK    2  A    between atoms: C_3  and  C_5
REMARK    3  A    between atoms: C_6  and  S_11
REMARK    4  A    between atoms: S_11  and  N_14
REMARK    5  A    between atoms: C_17  and  C_20
REMARK                            x       y       z     vdW  Elec       q    Type
REMARK                         _______ _______ _______ _____ _____    ______ ____
ROOT
ATOM      1  O   UNL     1      33.145 -23.908 -18.332  0.00  0.00    -0.270 OA
ATOM      2  N   UNL     1      32.902 -22.411 -16.578  0.00  0.00    -0.297 N 
ATOM      3  C   UNL     1      33.239 -22.748 -17.894  0.00  0.00    +0.246 C 
ATOM      4  H   UNL     1      33.001 -21.473 -16.297  0.00  0.00    +0.150 HD
ENDROOT
BRANCH   3   5
ATOM      5  C   UNL     1      33.736 -21.677 -18.743  0.00  0.00    +0.053 C 
ATOM      6  C   UNL     1      34.691 -19.624 -20.374  0.00  0.00    +0.122 C 
ATOM      7  C   UNL     1      32.843 -20.893 -19.473  0.00  0.00    +0.006 C 
ATOM      8  C   UNL     1      35.108 -21.433 -18.828  0.00  0.00    +0.006 C 
ATOM      9  C   UNL     1      33.320 -19.868 -20.288  0.00  0.00    +0.020 C 
ATOM     10  C   UNL     1      35.586 -20.407 -19.643  0.00  0.00    +0.020 C 
BRANCH   6  11
ATOM     11  S   UNL     1      35.288 -18.338 -21.393  0.00  0.00    +0.057 S 
ATOM     12  O   UNL     1      35.042 -18.702 -22.782  0.00  0.00    -0.153 OA
ATOM     13  O   UNL     1      34.788 -17.072 -20.878  0.00  0.00    -0.153 OA
BRANCH  11  14
ATOM     14  N   UNL     1      36.966 -18.432 -21.086  0.00  0.00    -0.203 NA
ATOM     15  H   UNL     1      37.120 -18.667 -20.106  0.00  0.00    +0.144 HD
ATOM     16  H   UNL     1      37.399 -17.531 -21.293  0.00  0.00    +0.144 HD
ENDBRANCH  11  14
ENDBRANCH   6  11
ENDBRANCH   3   5
BRANCH   2  17
ATOM     17  C   UNL     1      32.417 -23.367 -15.608  0.00  0.00    +0.119 C 
BRANCH  17  20
ATOM     18  F   UNL     1      30.873 -25.186 -14.094  0.00  0.00    -0.202 F 
ATOM     19  F   UNL     1      28.149 -25.097 -14.025  0.00  0.00    -0.202 F 
ATOM     20  C   UNL     1      30.920 -23.325 -15.567  0.00  0.00    +0.027 C 
ATOM     21  C   UNL     1      30.221 -24.251 -14.799  0.00  0.00    +0.165 C 
ATOM     22  C   UNL     1      30.239 -22.356 -16.298  0.00  0.00    -0.000 C 
ATOM     23  C   UNL     1      28.827 -24.209 -14.763  0.00  0.00    +0.167 C 
ATOM     24  C   UNL     1      28.845 -22.314 -16.262  0.00  0.00    +0.002 C 
ATOM     25  C   UNL     1      28.139 -23.240 -15.494  0.00  0.00    +0.032 C 
ENDBRANCH  17  20
ENDBRANCH   2  17
TORSDOF 5
ENDMDL
MODEL 4
REMARK VINA RESULT:     -11.4      4.917      8.279
REMARK  Name = 1700
REMARK  5 active torsions:
REMARK  status: ('A' for Active; 'I' for Inactive)
REMARK    1  A    between atoms: N_2  and  C_17
REMARK    2  A    between atoms: C_3  and  C_5
REMARK    3  A    between atoms: C_6  and  S_11
REMARK    4  A    between atoms: S_11  and  N_14
REMARK    5  A    between atoms: C_17  and  C_20
REMARK                            x       y       z     vdW  Elec       q    Type
REMARK                         _______ _______ _______ _____ _____    ______ ____
ROOT
ATOM      1  O   UNL     1      36.500 -18.339 -22.459  0.00  0.00    -0.270 OA
ATOM      2  N   UNL     1      34.982 -18.665 -20.737  0.00  0.00    -0.297 N 
ATOM      3  C   UNL     1      35.502 -17.954 -21.825  0.00  0.00    +0.246 C 
ATOM      4  H   UNL     1      34.189 -18.303 -20.280  0.00  0.00    +0.150 HD
ENDROOT
BRANCH   3   5
ATOM      5  C   UNL     1      34.835 -16.712 -22.182  0.00  0.00    +0.053 C 
ATOM      6  C   UNL     1      33.558 -14.327 -22.865  0.00  0.00    +0.122 C 
ATOM      7  C   UNL     1      34.562 -16.426 -23.519  0.00  0.00    +0.006 C 
ATOM      8  C   UNL     1      34.469 -15.806 -21.186  0.00  0.00    +0.006 C 
ATOM      9  C   UNL     1      33.924 -15.234 -23.861  0.00  0.00    +0.020 C 
ATOM     10  C   UNL     1      33.830 -14.613 -21.527  0.00  0.00    +0.020 C 
BRANCH   6  11
ATOM     11  S   UNL     1      32.757 -12.836 -23.294  0.00  0.00    +0.057 S 
ATOM     12  O   UNL     1      31.566 -12.700 -22.466  0.00  0.00    -0.153 OA
ATOM     13  O   UNL     1      33.748 -11.770 -23.317  0.00  0.00    -0.153 OA
BRANCH  11  14
ATOM     14  N   UNL     1      32.278 -13.174 -24.899  0.00  0.00    -0.203 NA
ATOM     15  H   UNL     1      32.909 -13.865 -25.304  0.00  0.00    +0.144 HD
ATOM     16  H   UNL     1      32.311 -12.316 -25.451  0.00  0.00    +0.144 HD
ENDBRANCH  11  14
ENDBRANCH   6  11
ENDBRANCH   3   5
BRANCH   2  17
ATOM     17  C   UNL     1      35.548 -19.902 -20.248  0.00  0.00    +0.119 C 
BRANCH  17  20
ATOM     18  F   UNL     1      36.212 -21.637 -18.118  0.00  0.00    -0.202 F 
ATOM     19  F   UNL     1      34.329 -22.984 -16.679  0.00  0.00    -0.202 F 
ATOM     20  C   UNL     1      34.519 -20.646 -19.454  0.00  0.00    +0.027 C 
ATOM     21  C   UNL     1      34.915 -21.484 -18.417  0.00  0.00    +0.165 C 
ATOM     22  C   UNL     1      33.170 -20.490 -19.760  0.00  0.00    -0.000 C 
ATOM     23  C   UNL     1      33.954 -22.175 -17.679  0.00  0.00    +0.167 C 
ATOM     24  C   UNL     1      32.208 -21.181 -19.022  0.00  0.00    +0.002 C 
ATOM     25  C   UNL     1      32.600 -22.023 -17.982  0.00  0.00    +0.032 C 
ENDBRANCH  17  20
ENDBRANCH   2  17
TORSDOF 5
ENDMDL
MODEL 5
REMARK VINA RESULT:     -11.3      6.036      9.731
REMARK  Name = 1700
REMARK  5 active torsions:
REMARK  status: ('A' for Active; 'I' for Inactive)
REMARK    1  A    between atoms: N_2  and  C_17
REMARK    2  A    between atoms: C_3  and  C_5
REMARK    3  A    between atoms: C_6  and  S_11
REMARK    4  A    between atoms: S_11  and  N_14
REMARK    5  A    between atoms: C_17  and  C_20
REMARK                            x       y       z     vdW  Elec       q    Type
REMARK                         _______ _______ _______ _____ _____    ______ ____
ROOT
ATOM      1  O   UNL     1      33.072 -23.551 -18.260  0.00  0.00    -0.270 OA
ATOM      2  N   UNL     1      34.215 -22.540 -16.514  0.00  0.00    -0.297 N 
ATOM      3  C   UNL     1      33.765 -22.609 -17.838  0.00  0.00    +0.246 C 
ATOM      4  H   UNL     1      34.760 -21.766 -16.247  0.00  0.00    +0.150 HD
ENDROOT
BRANCH   3   5
ATOM      5  C   UNL     1      34.164 -21.530 -18.727  0.00  0.00    +0.053 C 
ATOM      6  C   UNL     1      34.928 -19.457 -20.431  0.00  0.00    +0.122 C 
ATOM      7  C   UNL     1      35.511 -21.191 -18.853  0.00  0.00    +0.006 C 
ATOM      8  C   UNL     1      33.199 -20.832 -19.454  0.00  0.00    +0.006 C 
ATOM      9  C   UNL     1      35.893 -20.155 -19.704  0.00  0.00    +0.020 C 
ATOM     10  C   UNL     1      33.581 -19.795 -20.307  0.00  0.00    +0.020 C 
BRANCH   6  11
ATOM     11  S   UNL     1      35.407 -18.161 -21.499  0.00  0.00    +0.057 S 
ATOM     12  O   UNL     1      35.001 -18.507 -22.854  0.00  0.00    -0.153 OA
ATOM     13  O   UNL     1      34.977 -16.899 -20.915  0.00  0.00    -0.153 OA
BRANCH  11  14
ATOM     14  N   UNL     1      37.109 -18.263 -21.391  0.00  0.00    -0.203 NA
ATOM     15  H   UNL     1      37.526 -17.417 -21.780  0.00  0.00    +0.144 HD
ATOM     16  H   UNL     1      37.435 -19.076 -21.915  0.00  0.00    +0.144 HD
ENDBRANCH  11  14
ENDBRANCH   6  11
ENDBRANCH   3   5
BRANCH   2  17
ATOM     17  C   UNL     1      33.923 -23.546 -15.519  0.00  0.00    +0.119 C 
BRANCH  17  20
ATOM     18  F   UNL     1      35.294 -26.012 -15.356  0.00  0.00    -0.202 F 
ATOM     19  F   UNL     1      37.478 -26.376 -13.765  0.00  0.00    -0.202 F 
ATOM     20  C   UNL     1      35.123 -23.754 -14.647  0.00  0.00    +0.027 C 
ATOM     21  C   UNL     1      35.751 -24.994 -14.614  0.00  0.00    +0.165 C 
ATOM     22  C   UNL     1      35.602 -22.700 -13.874  0.00  0.00    -0.000 C 
ATOM     23  C   UNL     1      36.869 -25.184 -13.801  0.00  0.00    +0.167 C 
ATOM     24  C   UNL     1      36.719 -22.888 -13.061  0.00  0.00    +0.002 C 
ATOM     25  C   UNL     1      37.353 -24.130 -13.024  0.00  0.00    +0.032 C 
ENDBRANCH  17  20
ENDBRANCH   2  17
TORSDOF 5
ENDMDL
MODEL 6
REMARK VINA RESULT:     -10.8      4.399      6.420
REMARK  Name = 1700
REMARK  5 active torsions:
REMARK  status: ('A' for Active; 'I' for Inactive)
REMARK    1  A    between atoms: N_2  and  C_17
REMARK    2  A    between atoms: C_3  and  C_5
REMARK    3  A    between atoms: C_6  and  S_11
REMARK    4  A    between atoms: S_11  and  N_14
REMARK    5  A    between atoms: C_17  and  C_20
REMARK                            x       y       z     vdW  Elec       q    Type
REMARK                         _______ _______ _______ _____ _____    ______ ____
ROOT
ATOM      1  O   UNL     1      32.723 -12.831 -25.068  0.00  0.00    -0.270 OA
ATOM      2  N   UNL     1      32.779 -12.011 -22.900  0.00  0.00    -0.297 N 
ATOM      3  C   UNL     1      32.989 -13.002 -23.866  0.00  0.00    +0.246 C 
ATOM      4  H   UNL     1      33.012 -12.214 -21.966  0.00  0.00    +0.150 HD
ENDROOT
BRANCH   3   5
ATOM      5  C   UNL     1      33.520 -14.274 -23.401  0.00  0.00    +0.053 C 
ATOM      6  C   UNL     1      34.540 -16.714 -22.512  0.00  0.00    +0.122 C 
ATOM      7  C   UNL     1      33.865 -14.439 -22.060  0.00  0.00    +0.006 C 
ATOM      8  C   UNL     1      33.684 -15.331 -24.298  0.00  0.00    +0.006 C 
ATOM      9  C   UNL     1      34.376 -15.658 -21.616  0.00  0.00    +0.020 C 
ATOM     10  C   UNL     1      34.194 -16.551 -23.854  0.00  0.00    +0.020 C 
BRANCH   6  11
ATOM     11  S   UNL     1      35.177 -18.241 -21.954  0.00  0.00    +0.057 S 
ATOM     12  O   UNL     1      34.807 -18.410 -20.556  0.00  0.00    -0.153 OA
ATOM     13  O   UNL     1      34.827 -19.269 -22.924  0.00  0.00    -0.153 OA
BRANCH  11  14
ATOM     14  N   UNL     1      36.857 -17.947 -22.049  0.00  0.00    -0.203 NA
ATOM     15  H   UNL     1      37.160 -17.434 -21.221  0.00  0.00    +0.144 HD
ATOM     16  H   UNL     1      37.059 -17.397 -22.885  0.00  0.00    +0.144 HD
ENDBRANCH  11  14
ENDBRANCH   6  11
ENDBRANCH   3   5
BRANCH   2  17
ATOM     17  C   UNL     1      32.237 -10.706 -23.201  0.00  0.00    +0.119 C 
BRANCH  17  20
ATOM     18  F   UNL     1      32.184  -7.893 -22.933  0.00  0.00    -0.202 F 
ATOM     19  F   UNL     1      31.475  -6.652 -20.611  0.00  0.00    -0.202 F 
ATOM     20  C   UNL     1      31.849 -10.017 -21.928  0.00  0.00    +0.027 C 
ATOM     21  C   UNL     1      31.844  -8.628 -21.865  0.00  0.00    +0.165 C 
ATOM     22  C   UNL     1      31.495 -10.776 -20.816  0.00  0.00    -0.000 C 
ATOM     23  C   UNL     1      31.482  -7.990 -20.678  0.00  0.00    +0.167 C 
ATOM     24  C   UNL     1      31.133 -10.139 -19.630  0.00  0.00    +0.002 C 
ATOM     25  C   UNL     1      31.126  -8.746 -19.560  0.00  0.00    +0.032 C 
ENDBRANCH  17  20
ENDBRANCH   2  17
TORSDOF 5
ENDMDL
MODEL 7
REMARK VINA RESULT:     -10.8      4.775      7.147
REMARK  Name = 1700
REMARK  5 active torsions:
REMARK  status: ('A' for Active; 'I' for Inactive)
REMARK    1  A    between atoms: N_2  and  C_17
REMARK    2  A    between atoms: C_3  and  C_5
REMARK    3  A    between atoms: C_6  and  S_11
REMARK    4  A    between atoms: S_11  and  N_14
REMARK    5  A    between atoms: C_17  and  C_20
REMARK                            x       y       z     vdW  Elec       q    Type
REMARK                         _______ _______ _______ _____ _____    ______ ____
ROOT
ATOM      1  O   UNL     1      31.621 -23.132 -16.104  0.00  0.00    -0.270 OA
ATOM      2  N   UNL     1      33.529 -22.461 -17.238  0.00  0.00    -0.297 N 
ATOM      3  C   UNL     1      32.857 -22.997 -16.133  0.00  0.00    +0.246 C 
ATOM      4  H   UNL     1      34.509 -22.382 -17.194  0.00  0.00    +0.150 HD
ENDROOT
BRANCH   3   5
ATOM      5  C   UNL     1      33.668 -23.376 -14.987  0.00  0.00    +0.053 C 
ATOM      6  C   UNL     1      35.225 -24.101 -12.788  0.00  0.00    +0.122 C 
ATOM      7  C   UNL     1      33.080 -23.508 -13.729  0.00  0.00    +0.006 C 
ATOM      8  C   UNL     1      35.035 -23.607 -15.145  0.00  0.00    +0.006 C 
ATOM      9  C   UNL     1      33.858 -23.869 -12.630  0.00  0.00    +0.020 C 
ATOM     10  C   UNL     1      35.813 -23.970 -14.046  0.00  0.00    +0.020 C 
BRANCH   6  11
ATOM     11  S   UNL     1      36.198 -24.556 -11.412  0.00  0.00    +0.057 S 
ATOM     12  O   UNL     1      36.650 -25.928 -11.602  0.00  0.00    -0.153 OA
ATOM     13  O   UNL     1      37.172 -23.502 -11.166  0.00  0.00    -0.153 OA
BRANCH  11  14
ATOM     14  N   UNL     1      35.032 -24.527 -10.164  0.00  0.00    -0.203 NA
ATOM     15  H   UNL     1      34.944 -25.459  -9.759  0.00  0.00    +0.144 HD
ATOM     16  H   UNL     1      34.131 -24.236 -10.548  0.00  0.00    +0.144 HD
ENDBRANCH  11  14
ENDBRANCH   6  11
ENDBRANCH   3   5
BRANCH   2  17
ATOM     17  C   UNL     1      32.861 -22.017 -18.440  0.00  0.00    +0.119 C 
BRANCH  17  20
ATOM     18  F   UNL     1      31.950 -20.270 -20.466  0.00  0.00    -0.202 F 
ATOM     19  F   UNL     1      33.636 -18.675 -21.897  0.00  0.00    -0.202 F 
ATOM     20  C   UNL     1      33.781 -21.138 -19.230  0.00  0.00    +0.027 C 
ATOM     21  C   UNL     1      33.266 -20.300 -20.214  0.00  0.00    +0.165 C 
ATOM     22  C   UNL     1      35.149 -21.166 -18.972  0.00  0.00    -0.000 C 
ATOM     23  C   UNL     1      34.126 -19.483 -20.948  0.00  0.00    +0.167 C 
ATOM     24  C   UNL     1      36.009 -20.349 -19.706  0.00  0.00    +0.002 C 
ATOM     25  C   UNL     1      35.498 -19.508 -20.694  0.00  0.00    +0.032 C 
ENDBRANCH  17  20
ENDBRANCH   2  17
TORSDOF 5
ENDMDL
MODEL 8
REMARK VINA RESULT:     -10.8      5.012      8.629
REMARK  Name = 1700
REMARK  5 active torsions:
REMARK  status: ('A' for Active; 'I' for Inactive)
REMARK    1  A    between atoms: N_2  and  C_17
REMARK    2  A    between atoms: C_3  and  C_5
REMARK    3  A    between atoms: C_6  and  S_11
REMARK    4  A    between atoms: S_11  and  N_14
REMARK    5  A    between atoms: C_17  and  C_20
REMARK                            x       y       z     vdW  Elec       q    Type
REMARK                         _______ _______ _______ _____ _____    ______ ____
ROOT
ATOM      1  O   UNL     1      33.372 -23.648 -18.990  0.00  0.00    -0.270 OA
ATOM      2  N   UNL     1      33.742 -22.465 -17.030  0.00  0.00    -0.297 N 
ATOM      3  C   UNL     1      33.694 -22.589 -18.423  0.00  0.00    +0.246 C 
ATOM      4  H   UNL     1      34.005 -21.597 -16.648  0.00  0.00    +0.150 HD
ENDROOT
BRANCH   3   5
ATOM      5  C   UNL     1      34.063 -21.418 -19.203  0.00  0.00    +0.053 C 
ATOM      6  C   UNL     1      34.770 -19.170 -20.696  0.00  0.00    +0.122 C 
ATOM      7  C   UNL     1      35.402 -21.041 -19.305  0.00  0.00    +0.006 C 
ATOM      8  C   UNL     1      33.078 -20.670 -19.849  0.00  0.00    +0.006 C 
ATOM      9  C   UNL     1      35.756 -19.917 -20.050  0.00  0.00    +0.020 C 
ATOM     10  C   UNL     1      33.431 -19.546 -20.595  0.00  0.00    +0.020 C 
BRANCH   6  11
ATOM     11  S   UNL     1      35.214 -17.764 -21.632  0.00  0.00    +0.057 S 
ATOM     12  O   UNL     1      34.668 -17.914 -22.974  0.00  0.00    -0.153 OA
ATOM     13  O   UNL     1      34.901 -16.574 -20.854  0.00  0.00    -0.153 OA
BRANCH  11  14
ATOM     14  N   UNL     1      36.911 -17.942 -21.703  0.00  0.00    -0.203 NA
ATOM     15  H   UNL     1      37.310 -17.183 -22.256  0.00  0.00    +0.144 HD
ATOM     16  H   UNL     1      37.141 -18.837 -22.136  0.00  0.00    +0.144 HD
ENDBRANCH  11  14
ENDBRANCH   6  11
ENDBRANCH   3   5
BRANCH   2  17
ATOM     17  C   UNL     1      33.428 -23.545 -16.122  0.00  0.00    +0.119 C 
BRANCH  17  20
ATOM     18  F   UNL     1      30.970 -22.652 -17.194  0.00  0.00    -0.202 F 
ATOM     19  F   UNL     1      28.852 -21.953 -15.626  0.00  0.00    -0.202 F 
ATOM     20  C   UNL     1      32.260 -23.158 -15.267  0.00  0.00    +0.027 C 
ATOM     21  C   UNL     1      31.078 -22.727 -15.860  0.00  0.00    +0.165 C 
ATOM     22  C   UNL     1      32.367 -23.234 -13.881  0.00  0.00    -0.000 C 
ATOM     23  C   UNL     1      29.993 -22.368 -15.061  0.00  0.00    +0.167 C 
ATOM     24  C   UNL     1      31.282 -22.876 -13.082  0.00  0.00    +0.002 C 
ATOM     25  C   UNL     1      30.095 -22.443 -13.671  0.00  0.00    +0.032 C 
ENDBRANCH  17  20
ENDBRANCH   2  17
TORSDOF 5
ENDMDL
MODEL 9
REMARK VINA RESULT:     -10.7      5.181      8.302
REMARK  Name = 1700
REMARK  5 active torsions:
REMARK  status: ('A' for Active; 'I' for Inactive)
REMARK    1  A    between atoms: N_2  and  C_17
REMARK    2  A    between atoms: C_3  and  C_5
REMARK    3  A    between atoms: C_6  and  S_11
REMARK    4  A    between atoms: S_11  and  N_14
REMARK    5  A    between atoms: C_17  and  C_20
REMARK                            x       y       z     vdW  Elec       q    Type
REMARK                         _______ _______ _______ _____ _____    ______ ____
ROOT
ATOM      1  O   UNL     1      34.436 -15.661 -24.229  0.00  0.00    -0.270 OA
ATOM      2  N   UNL     1      34.556 -16.445 -22.050  0.00  0.00    -0.297 N 
ATOM      3  C   UNL     1      34.188 -15.505 -23.020  0.00  0.00    +0.246 C 
ATOM      4  H   UNL     1      34.329 -16.258 -21.111  0.00  0.00    +0.150 HD
ENDROOT
BRANCH   3   5
ATOM      5  C   UNL     1      33.512 -14.305 -22.555  0.00  0.00    +0.053 C 
ATOM      6  C   UNL     1      32.211 -12.004 -21.662  0.00  0.00    +0.122 C 
ATOM      7  C   UNL     1      33.280 -14.119 -21.192  0.00  0.00    +0.006 C 
ATOM      8  C   UNL     1      33.093 -13.340 -23.471  0.00  0.00    +0.006 C 
ATOM      9  C   UNL     1      32.630 -12.969 -20.746  0.00  0.00    +0.020 C 
ATOM     10  C   UNL     1      32.443 -12.189 -23.025  0.00  0.00    +0.020 C 
BRANCH   6  11
ATOM     11  S   UNL     1      31.399 -10.563 -21.103  0.00  0.00    +0.057 S 
ATOM     12  O   UNL     1      31.468 -10.532 -19.648  0.00  0.00    -0.153 OA
ATOM     13  O   UNL     1      31.887  -9.429 -21.874  0.00  0.00    -0.153 OA
BRANCH  11  14
ATOM     14  N   UNL     1      29.790 -10.894 -21.572  0.00  0.00    -0.203 NA
ATOM     15  H   UNL     1      29.376 -10.056 -21.982  0.00  0.00    +0.144 HD
ATOM     16  H   UNL     1      29.248 -11.176 -20.755  0.00  0.00    +0.144 HD
ENDBRANCH  11  14
ENDBRANCH   6  11
ENDBRANCH   3   5
BRANCH   2  17
ATOM     17  C   UNL     1      35.255 -17.673 -22.352  0.00  0.00    +0.119 C 
BRANCH  17  20
ATOM     18  F   UNL     1      37.042 -19.048 -20.649  0.00  0.00    -0.202 F 
ATOM     19  F   UNL     1      36.224 -21.001 -18.931  0.00  0.00    -0.202 F 
ATOM     20  C   UNL     1      34.813 -18.748 -21.407  0.00  0.00    +0.027 C 
ATOM     21  C   UNL     1      35.746 -19.385 -20.595  0.00  0.00    +0.165 C 
ATOM     22  C   UNL     1      33.468 -19.101 -21.347  0.00  0.00    -0.000 C 
ATOM     23  C   UNL     1      35.331 -20.385 -19.716  0.00  0.00    +0.167 C 
ATOM     24  C   UNL     1      33.052 -20.101 -20.468  0.00  0.00    +0.002 C 
ATOM     25  C   UNL     1      33.983 -20.743 -19.652  0.00  0.00    +0.032 C 
ENDBRANCH  17  20
ENDBRANCH   2  17
TORSDOF 5
ENDMDL
