MODEL 1
REMARK VINA RESULT:     -10.9      0.000      0.000
REMARK  Name = 16039797
REMARK  8 active torsions:
REMARK  status: ('A' for Active; 'I' for Inactive)
REMARK    1  A    between atoms: C_1  and  O_18
REMARK    2  A    between atoms: C_2  and  O_24
REMARK    3  A    between atoms: C_4  and  C_11
REMARK    4  A    between atoms: O_18  and  C_19
REMARK    5  A    between atoms: C_19  and  C_21
REMARK    6  A    between atoms: C_21  and  O_22
REMARK    7  A    between atoms: O_24  and  C_30
REMARK    8  A    between atoms: C_27  and  C_36
REMARK                            x       y       z     vdW  Elec       q    Type
REMARK                         _______ _______ _______ _____ _____    ______ ____
ROOT
ATOM      1  C   UNL     1      31.374 -22.607 -15.444  0.00  0.00    +0.142 C 
ATOM      2  C   UNL     1      32.555 -22.646 -17.551  0.00  0.00    +0.150 C 
ATOM      3  C   UNL     1      31.363 -22.524 -16.836  0.00  0.00    +0.074 C 
ATOM      4  C   UNL     1      33.767 -22.934 -15.481  0.00  0.00    +0.060 C 
ATOM      5  C   UNL     1      32.576 -22.811 -14.766  0.00  0.00    +0.042 C 
ATOM      6  C   UNL     1      33.756 -22.852 -16.873  0.00  0.00    +0.042 C 
ENDROOT
BRANCH   4  11
ATOM      7  O   UNL     1      35.331 -22.377 -13.852  0.00  0.00    -0.270 OA
ATOM      8  N   UNL     1      35.780 -24.249 -15.194  0.00  0.00    -0.268 N 
ATOM      9  N   UNL     1      37.593 -25.802 -15.227  0.00  0.00    -0.252 NA
ATOM     10  N   UNL     1      38.770 -24.407 -13.098  0.00  0.00    -0.269 NA
ATOM     11  C   UNL     1      35.020 -23.147 -14.774  0.00  0.00    +0.251 C 
ATOM     12  C   UNL     1      37.016 -24.712 -14.683  0.00  0.00    +0.131 C 
ATOM     13  C   UNL     1      37.595 -24.027 -13.637  0.00  0.00    +0.185 C 
ATOM     14  C   UNL     1      39.347 -25.497 -13.643  0.00  0.00    +0.057 C 
ATOM     15  C   UNL     1      38.769 -26.182 -14.689  0.00  0.00    +0.167 C 
ATOM     16  C   UNL     1      40.648 -25.945 -13.073  0.00  0.00    +0.049 C 
ATOM     17  H   UNL     1      35.403 -24.767 -15.941  0.00  0.00    +0.156 HD
ENDBRANCH   4  11
BRANCH   1  18
ATOM     18  O   UNL     1      30.211 -22.486 -14.746  0.00  0.00    -0.476 OA
BRANCH  18  19
ATOM     19  C   UNL     1      29.041 -23.055 -15.331  0.00  0.00    +0.195 C 
ATOM     20  C   UNL     1      28.628 -24.274 -14.519  0.00  0.00    +0.050 C 
BRANCH  19  21
ATOM     21  C   UNL     1      27.947 -21.995 -15.340  0.00  0.00    +0.185 C 
BRANCH  21  22
ATOM     22  O   UNL     1      27.706 -21.591 -16.684  0.00  0.00    -0.347 OA
ATOM     23  C   UNL     1      26.316 -21.526 -16.965  0.00  0.00    +0.174 C 
ENDBRANCH  21  22
ENDBRANCH  19  21
ENDBRANCH  18  19
ENDBRANCH   1  18
BRANCH   2  24
ATOM     24  O   UNL     1      32.544 -22.565 -18.931  0.00  0.00    -0.438 OA
BRANCH  24  30
ATOM     25  N   UNL     1      34.981 -20.121 -20.029  0.00  0.00    -0.258 NA
ATOM     26  N   UNL     1      32.214 -20.572 -20.079  0.00  0.00    -0.233 NA
ATOM     27  C   UNL     1      34.127 -19.254 -20.607  0.00  0.00    +0.132 C 
ATOM     28  C   UNL     1      32.768 -19.475 -20.632  0.00  0.00    +0.178 C 
ATOM     29  C   UNL     1      34.427 -21.219 -19.476  0.00  0.00    +0.210 C 
ATOM     30  C   UNL     1      33.068 -21.440 -19.501  0.00  0.00    +0.226 C 
BRANCH  27  36
ATOM     31  O   UNL     1      35.589 -17.445 -20.589  0.00  0.00    -0.269 OA
ATOM     32  N   UNL     1      34.270 -17.692 -22.459  0.00  0.00    -0.275 N 
ATOM     33  C   UNL     1      34.081 -17.406 -24.475  0.00  0.00    +0.043 C 
ATOM     34  C   UNL     1      33.383 -18.293 -23.437  0.00  0.00    +0.096 C 
ATOM     35  C   UNL     1      34.663 -16.589 -23.317  0.00  0.00    +0.096 C 
ATOM     36  C   UNL     1      34.721 -18.047 -21.216  0.00  0.00    +0.264 C 
ENDBRANCH  27  36
ENDBRANCH  24  30
ENDBRANCH   2  24
TORSDOF 8
ENDMDL
MODEL 2
REMARK VINA RESULT:     -10.7      1.874      8.161
REMARK  Name = 16039797
REMARK  8 active torsions:
REMARK  status: ('A' for Active; 'I' for Inactive)
REMARK    1  A    between atoms: C_1  and  O_18
REMARK    2  A    between atoms: C_2  and  O_24
REMARK    3  A    between atoms: C_4  and  C_11
REMARK    4  A    between atoms: O_18  and  C_19
REMARK    5  A    between atoms: C_19  and  C_21
REMARK    6  A    between atoms: C_21  and  O_22
REMARK    7  A    between atoms: O_24  and  C_30
REMARK    8  A    between atoms: C_27  and  C_36
REMARK                            x       y       z     vdW  Elec       q    Type
REMARK                         _______ _______ _______ _____ _____    ______ ____
ROOT
ATOM      1  C   UNL     1      30.160 -23.652 -15.577  0.00  0.00    +0.142 C 
ATOM      2  C   UNL     1      31.983 -23.416 -14.010  0.00  0.00    +0.150 C 
ATOM      3  C   UNL     1      30.677 -23.815 -14.292  0.00  0.00    +0.074 C 
ATOM      4  C   UNL     1      32.255 -22.691 -16.299  0.00  0.00    +0.060 C 
ATOM      5  C   UNL     1      30.949 -23.091 -16.581  0.00  0.00    +0.042 C 
ATOM      6  C   UNL     1      32.772 -22.854 -15.014  0.00  0.00    +0.042 C 
ENDROOT
BRANCH   4  11
ATOM      7  O   UNL     1      34.307 -22.276 -17.311  0.00  0.00    -0.270 OA
ATOM      8  N   UNL     1      32.390 -21.399 -18.342  0.00  0.00    -0.268 N 
ATOM      9  N   UNL     1      32.081 -20.119 -20.333  0.00  0.00    -0.252 NA
ATOM     10  N   UNL     1      34.853 -20.189 -20.756  0.00  0.00    -0.269 NA
ATOM     11  C   UNL     1      33.078 -22.105 -17.345  0.00  0.00    +0.251 C 
ATOM     12  C   UNL     1      32.916 -20.750 -19.485  0.00  0.00    +0.131 C 
ATOM     13  C   UNL     1      34.278 -20.784 -19.693  0.00  0.00    +0.185 C 
ATOM     14  C   UNL     1      34.017 -19.557 -21.605  0.00  0.00    +0.057 C 
ATOM     15  C   UNL     1      32.656 -19.523 -21.397  0.00  0.00    +0.167 C 
ATOM     16  C   UNL     1      34.617 -18.887 -22.791  0.00  0.00    +0.049 C 
ATOM     17  H   UNL     1      31.413 -21.349 -18.232  0.00  0.00    +0.156 HD
ENDBRANCH   4  11
BRANCH   1  18
ATOM     18  O   UNL     1      28.885 -24.043 -15.852  0.00  0.00    -0.476 OA
BRANCH  18  19
ATOM     19  C   UNL     1      27.848 -23.094 -15.611  0.00  0.00    +0.195 C 
ATOM     20  C   UNL     1      28.431 -21.909 -14.855  0.00  0.00    +0.050 C 
BRANCH  19  21
ATOM     21  C   UNL     1      27.269 -22.668 -16.955  0.00  0.00    +0.185 C 
BRANCH  21  22
ATOM     22  O   UNL     1      27.022 -21.266 -16.928  0.00  0.00    -0.347 OA
ATOM     23  C   UNL     1      25.680 -20.968 -17.281  0.00  0.00    +0.174 C 
ENDBRANCH  21  22
ENDBRANCH  19  21
ENDBRANCH  18  19
ENDBRANCH   1  18
BRANCH   2  24
ATOM     24  O   UNL     1      32.496 -23.577 -12.736  0.00  0.00    -0.438 OA
BRANCH  24  30
ATOM     25  N   UNL     1      35.675 -25.069 -13.622  0.00  0.00    -0.258 NA
ATOM     26  N   UNL     1      34.410 -23.835 -11.444  0.00  0.00    -0.233 NA
ATOM     27  C   UNL     1      36.301 -24.886 -12.443  0.00  0.00    +0.132 C 
ATOM     28  C   UNL     1      35.680 -24.281 -11.373  0.00  0.00    +0.178 C 
ATOM     29  C   UNL     1      34.405 -24.623 -13.694  0.00  0.00    +0.210 C 
ATOM     30  C   UNL     1      33.784 -24.017 -12.625  0.00  0.00    +0.226 C 
BRANCH  27  36
ATOM     31  O   UNL     1      37.991 -26.114 -11.419  0.00  0.00    -0.269 OA
ATOM     32  N   UNL     1      38.558 -24.967 -13.333  0.00  0.00    -0.275 N 
ATOM     33  C   UNL     1      39.746 -24.885 -14.995  0.00  0.00    +0.043 C 
ATOM     34  C   UNL     1      38.425 -24.229 -14.575  0.00  0.00    +0.096 C 
ATOM     35  C   UNL     1      39.961 -25.283 -13.531  0.00  0.00    +0.096 C 
ATOM     36  C   UNL     1      37.692 -25.371 -12.351  0.00  0.00    +0.264 C 
ENDBRANCH  27  36
ENDBRANCH  24  30
ENDBRANCH   2  24
TORSDOF 8
ENDMDL
MODEL 3
REMARK VINA RESULT:     -10.4      2.662      8.871
REMARK  Name = 16039797
REMARK  8 active torsions:
REMARK  status: ('A' for Active; 'I' for Inactive)
REMARK    1  A    between atoms: C_1  and  O_18
REMARK    2  A    between atoms: C_2  and  O_24
REMARK    3  A    between atoms: C_4  and  C_11
REMARK    4  A    between atoms: O_18  and  C_19
REMARK    5  A    between atoms: C_19  and  C_21
REMARK    6  A    between atoms: C_21  and  O_22
REMARK    7  A    between atoms: O_24  and  C_30
REMARK    8  A    between atoms: C_27  and  C_36
REMARK                            x       y       z     vdW  Elec       q    Type
REMARK                         _______ _______ _______ _____ _____    ______ ____
ROOT
ATOM      1  C   UNL     1      37.255 -22.984 -14.990  0.00  0.00    +0.142 C 
ATOM      2  C   UNL     1      34.977 -22.927 -14.188  0.00  0.00    +0.150 C 
ATOM      3  C   UNL     1      36.327 -23.205 -13.973  0.00  0.00    +0.074 C 
ATOM      4  C   UNL     1      35.485 -22.206 -16.438  0.00  0.00    +0.060 C 
ATOM      5  C   UNL     1      36.835 -22.484 -16.222  0.00  0.00    +0.042 C 
ATOM      6  C   UNL     1      34.557 -22.427 -15.421  0.00  0.00    +0.042 C 
ENDROOT
BRANCH   4  11
ATOM      7  O   UNL     1      34.002 -22.127 -18.228  0.00  0.00    -0.270 OA
ATOM      8  N   UNL     1      35.851 -20.683 -18.283  0.00  0.00    -0.268 N 
ATOM      9  N   UNL     1      36.559 -19.041 -19.866  0.00  0.00    -0.252 NA
ATOM     10  N   UNL     1      34.319 -19.654 -21.438  0.00  0.00    -0.269 NA
ATOM     11  C   UNL     1      35.046 -21.684 -17.722  0.00  0.00    +0.251 C 
ATOM     12  C   UNL     1      35.664 -19.979 -19.498  0.00  0.00    +0.131 C 
ATOM     13  C   UNL     1      34.564 -20.280 -20.270  0.00  0.00    +0.185 C 
ATOM     14  C   UNL     1      35.214 -18.716 -21.807  0.00  0.00    +0.057 C 
ATOM     15  C   UNL     1      36.315 -18.415 -21.035  0.00  0.00    +0.167 C 
ATOM     16  C   UNL     1      34.976 -18.005 -23.093  0.00  0.00    +0.049 C 
ATOM     17  H   UNL     1      36.650 -20.436 -17.764  0.00  0.00    +0.156 HD
ENDBRANCH   4  11
BRANCH   1  18
ATOM     18  O   UNL     1      38.573 -23.254 -14.778  0.00  0.00    -0.476 OA
BRANCH  18  19
ATOM     19  C   UNL     1      38.992 -24.609 -14.939  0.00  0.00    +0.195 C 
ATOM     20  C   UNL     1      40.318 -24.803 -14.220  0.00  0.00    +0.050 C 
BRANCH  19  21
ATOM     21  C   UNL     1      37.909 -25.515 -14.367  0.00  0.00    +0.185 C 
BRANCH  21  22
ATOM     22  O   UNL     1      38.272 -25.889 -13.042  0.00  0.00    -0.347 OA
ATOM     23  C   UNL     1      37.151 -25.865 -12.171  0.00  0.00    +0.174 C 
ENDBRANCH  21  22
ENDBRANCH  19  21
ENDBRANCH  18  19
ENDBRANCH   1  18
BRANCH   2  24
ATOM     24  O   UNL     1      34.057 -23.147 -13.180  0.00  0.00    -0.438 OA
BRANCH  24  30
ATOM     25  N   UNL     1      31.108 -24.998 -14.178  0.00  0.00    -0.258 NA
ATOM     26  N   UNL     1      31.917 -22.367 -13.641  0.00  0.00    -0.233 NA
ATOM     27  C   UNL     1      30.257 -23.957 -14.269  0.00  0.00    +0.132 C 
ATOM     28  C   UNL     1      30.655 -22.665 -14.006  0.00  0.00    +0.178 C 
ATOM     29  C   UNL     1      32.371 -24.701 -13.812  0.00  0.00    +0.210 C 
ATOM     30  C   UNL     1      32.768 -23.409 -13.549  0.00  0.00    +0.226 C 
BRANCH  27  36
ATOM     31  O   UNL     1      28.278 -25.164 -14.071  0.00  0.00    -0.269 OA
ATOM     32  N   UNL     1      28.330 -23.517 -15.678  0.00  0.00    -0.275 N 
ATOM     33  C   UNL     1      27.275 -22.131 -16.749  0.00  0.00    +0.043 C 
ATOM     34  C   UNL     1      28.758 -22.350 -16.427  0.00  0.00    +0.096 C 
ATOM     35  C   UNL     1      27.008 -23.564 -16.275  0.00  0.00    +0.096 C 
ATOM     36  C   UNL     1      28.871 -24.269 -14.669  0.00  0.00    +0.264 C 
ENDBRANCH  27  36
ENDBRANCH  24  30
ENDBRANCH   2  24
TORSDOF 8
ENDMDL
MODEL 4
REMARK VINA RESULT:     -10.2      2.824      8.951
REMARK  Name = 16039797
REMARK  8 active torsions:
REMARK  status: ('A' for Active; 'I' for Inactive)
REMARK    1  A    between atoms: C_1  and  O_18
REMARK    2  A    between atoms: C_2  and  O_24
REMARK    3  A    between atoms: C_4  and  C_11
REMARK    4  A    between atoms: O_18  and  C_19
REMARK    5  A    between atoms: C_19  and  C_21
REMARK    6  A    between atoms: C_21  and  O_22
REMARK    7  A    between atoms: O_24  and  C_30
REMARK    8  A    between atoms: C_27  and  C_36
REMARK                            x       y       z     vdW  Elec       q    Type
REMARK                         _______ _______ _______ _____ _____    ______ ____
ROOT
ATOM      1  C   UNL     1      34.938 -20.343 -19.883  0.00  0.00    +0.142 C 
ATOM      2  C   UNL     1      36.051 -21.247 -17.940  0.00  0.00    +0.150 C 
ATOM      3  C   UNL     1      36.103 -20.548 -19.146  0.00  0.00    +0.074 C 
ATOM      4  C   UNL     1      33.667 -21.535 -18.210  0.00  0.00    +0.060 C 
ATOM      5  C   UNL     1      33.719 -20.836 -19.415  0.00  0.00    +0.042 C 
ATOM      6  C   UNL     1      34.833 -21.741 -17.472  0.00  0.00    +0.042 C 
ENDROOT
BRANCH   4  11
ATOM      7  O   UNL     1      31.372 -21.862 -18.396  0.00  0.00    -0.270 OA
ATOM      8  N   UNL     1      32.447 -22.751 -16.509  0.00  0.00    -0.268 N 
ATOM      9  N   UNL     1      31.641 -24.011 -14.647  0.00  0.00    -0.252 NA
ATOM     10  N   UNL     1      29.061 -23.892 -15.740  0.00  0.00    -0.269 NA
ATOM     11  C   UNL     1      32.397 -22.049 -17.722  0.00  0.00    +0.251 C 
ATOM     12  C   UNL     1      31.387 -23.379 -15.810  0.00  0.00    +0.131 C 
ATOM     13  C   UNL     1      30.120 -23.321 -16.346  0.00  0.00    +0.185 C 
ATOM     14  C   UNL     1      29.315 -24.524 -14.576  0.00  0.00    +0.057 C 
ATOM     15  C   UNL     1      30.582 -24.582 -14.040  0.00  0.00    +0.167 C 
ATOM     16  C   UNL     1      28.168 -25.167 -13.877  0.00  0.00    +0.049 C 
ATOM     17  H   UNL     1      33.335 -22.817 -16.090  0.00  0.00    +0.156 HD
ENDBRANCH   4  11
BRANCH   1  18
ATOM     18  O   UNL     1      34.989 -19.659 -21.059  0.00  0.00    -0.476 OA
BRANCH  18  19
ATOM     19  C   UNL     1      35.574 -18.358 -21.029  0.00  0.00    +0.195 C 
ATOM     20  C   UNL     1      36.762 -18.330 -21.977  0.00  0.00    +0.050 C 
BRANCH  19  21
ATOM     21  C   UNL     1      34.510 -17.346 -21.438  0.00  0.00    +0.185 C 
BRANCH  21  22
ATOM     22  O   UNL     1      34.579 -16.224 -20.565  0.00  0.00    -0.347 OA
ATOM     23  C   UNL     1      34.091 -15.048 -21.192  0.00  0.00    +0.174 C 
ENDBRANCH  21  22
ENDBRANCH  19  21
ENDBRANCH  18  19
ENDBRANCH   1  18
BRANCH   2  24
ATOM     24  O   UNL     1      37.207 -21.452 -17.209  0.00  0.00    -0.438 OA
BRANCH  24  30
ATOM     25  N   UNL     1      35.796 -23.320 -14.445  0.00  0.00    -0.258 NA
ATOM     26  N   UNL     1      38.271 -22.829 -15.669  0.00  0.00    -0.233 NA
ATOM     27  C   UNL     1      36.938 -23.876 -13.995  0.00  0.00    +0.132 C 
ATOM     28  C   UNL     1      38.154 -23.634 -14.596  0.00  0.00    +0.178 C 
ATOM     29  C   UNL     1      35.913 -22.515 -15.519  0.00  0.00    +0.210 C 
ATOM     30  C   UNL     1      37.128 -22.274 -16.121  0.00  0.00    +0.226 C 
BRANCH  27  36
ATOM     31  O   UNL     1      37.368 -25.861 -12.860  0.00  0.00    -0.269 OA
ATOM     32  N   UNL     1      36.128 -24.277 -11.742  0.00  0.00    -0.275 N 
ATOM     33  C   UNL     1      35.611 -23.461  -9.939  0.00  0.00    +0.043 C 
ATOM     34  C   UNL     1      35.530 -23.000 -11.399  0.00  0.00    +0.096 C 
ATOM     35  C   UNL     1      35.861 -24.884 -10.451  0.00  0.00    +0.096 C 
ATOM     36  C   UNL     1      36.825 -24.760 -12.818  0.00  0.00    +0.264 C 
ENDBRANCH  27  36
ENDBRANCH  24  30
ENDBRANCH   2  24
TORSDOF 8
ENDMDL
MODEL 5
REMARK VINA RESULT:     -10.1      2.503      8.444
REMARK  Name = 16039797
REMARK  8 active torsions:
REMARK  status: ('A' for Active; 'I' for Inactive)
REMARK    1  A    between atoms: C_1  and  O_18
REMARK    2  A    between atoms: C_2  and  O_24
REMARK    3  A    between atoms: C_4  and  C_11
REMARK    4  A    between atoms: O_18  and  C_19
REMARK    5  A    between atoms: C_19  and  C_21
REMARK    6  A    between atoms: C_21  and  O_22
REMARK    7  A    between atoms: O_24  and  C_30
REMARK    8  A    between atoms: C_27  and  C_36
REMARK                            x       y       z     vdW  Elec       q    Type
REMARK                         _______ _______ _______ _____ _____    ______ ____
ROOT
ATOM      1  C   UNL     1      36.978 -23.023 -14.618  0.00  0.00    +0.142 C 
ATOM      2  C   UNL     1      34.810 -23.631 -15.491  0.00  0.00    +0.150 C 
ATOM      3  C   UNL     1      35.837 -23.823 -14.567  0.00  0.00    +0.074 C 
ATOM      4  C   UNL     1      36.066 -21.840 -16.516  0.00  0.00    +0.060 C 
ATOM      5  C   UNL     1      37.093 -22.031 -15.592  0.00  0.00    +0.042 C 
ATOM      6  C   UNL     1      34.925 -22.640 -16.466  0.00  0.00    +0.042 C 
ENDROOT
BRANCH   4  11
ATOM      7  O   UNL     1      37.058 -19.933 -17.404  0.00  0.00    -0.270 OA
ATOM      8  N   UNL     1      35.293 -20.900 -18.609  0.00  0.00    -0.268 N 
ATOM      9  N   UNL     1      34.257 -20.321 -20.681  0.00  0.00    -0.252 NA
ATOM     10  N   UNL     1      36.019 -18.151 -20.906  0.00  0.00    -0.269 NA
ATOM     11  C   UNL     1      36.185 -20.805 -17.532  0.00  0.00    +0.251 C 
ATOM     12  C   UNL     1      35.190 -20.060 -19.745  0.00  0.00    +0.131 C 
ATOM     13  C   UNL     1      36.056 -18.994 -19.855  0.00  0.00    +0.185 C 
ATOM     14  C   UNL     1      35.085 -18.412 -21.842  0.00  0.00    +0.057 C 
ATOM     15  C   UNL     1      34.219 -19.478 -21.732  0.00  0.00    +0.167 C 
ATOM     16  C   UNL     1      35.014 -17.500 -23.017  0.00  0.00    +0.049 C 
ATOM     17  H   UNL     1      34.655 -21.649 -18.571  0.00  0.00    +0.156 HD
ENDBRANCH   4  11
BRANCH   1  18
ATOM     18  O   UNL     1      37.979 -23.209 -13.714  0.00  0.00    -0.476 OA
BRANCH  18  19
ATOM     19  C   UNL     1      38.062 -24.490 -13.091  0.00  0.00    +0.195 C 
ATOM     20  C   UNL     1      39.384 -25.138 -13.472  0.00  0.00    +0.050 C 
BRANCH  19  21
ATOM     21  C   UNL     1      37.950 -24.296 -11.584  0.00  0.00    +0.185 C 
BRANCH  21  22
ATOM     22  O   UNL     1      36.664 -24.732 -11.156  0.00  0.00    -0.347 OA
ATOM     23  C   UNL     1      35.889 -23.652 -10.657  0.00  0.00    +0.174 C 
ENDBRANCH  21  22
ENDBRANCH  19  21
ENDBRANCH  18  19
ENDBRANCH   1  18
BRANCH   2  24
ATOM     24  O   UNL     1      33.679 -24.425 -15.442  0.00  0.00    -0.438 OA
BRANCH  24  30
ATOM     25  N   UNL     1      30.747 -22.438 -16.204  0.00  0.00    -0.258 NA
ATOM     26  N   UNL     1      31.851 -23.924 -14.097  0.00  0.00    -0.233 NA
ATOM     27  C   UNL     1      30.124 -22.564 -15.016  0.00  0.00    +0.132 C 
ATOM     28  C   UNL     1      30.666 -23.293 -13.981  0.00  0.00    +0.178 C 
ATOM     29  C   UNL     1      31.933 -23.069 -16.321  0.00  0.00    +0.210 C 
ATOM     30  C   UNL     1      32.474 -23.799 -15.286  0.00  0.00    +0.226 C 
BRANCH  27  36
ATOM     31  O   UNL     1      28.705 -21.029 -13.995  0.00  0.00    -0.269 OA
ATOM     32  N   UNL     1      27.837 -22.227 -15.760  0.00  0.00    -0.275 N 
ATOM     33  C   UNL     1      26.525 -22.263 -17.327  0.00  0.00    +0.043 C 
ATOM     34  C   UNL     1      27.770 -23.069 -16.939  0.00  0.00    +0.096 C 
ATOM     35  C   UNL     1      26.481 -21.727 -15.892  0.00  0.00    +0.096 C 
ATOM     36  C   UNL     1      28.824 -21.878 -14.875  0.00  0.00    +0.264 C 
ENDBRANCH  27  36
ENDBRANCH  24  30
ENDBRANCH   2  24
TORSDOF 8
ENDMDL
MODEL 6
REMARK VINA RESULT:     -10.0      2.279      9.503
REMARK  Name = 16039797
REMARK  8 active torsions:
REMARK  status: ('A' for Active; 'I' for Inactive)
REMARK    1  A    between atoms: C_1  and  O_18
REMARK    2  A    between atoms: C_2  and  O_24
REMARK    3  A    between atoms: C_4  and  C_11
REMARK    4  A    between atoms: O_18  and  C_19
REMARK    5  A    between atoms: C_19  and  C_21
REMARK    6  A    between atoms: C_21  and  O_22
REMARK    7  A    between atoms: O_24  and  C_30
REMARK    8  A    between atoms: C_27  and  C_36
REMARK                            x       y       z     vdW  Elec       q    Type
REMARK                         _______ _______ _______ _____ _____    ______ ____
ROOT
ATOM      1  C   UNL     1      33.318 -21.809 -18.483  0.00  0.00    +0.142 C 
ATOM      2  C   UNL     1      35.659 -21.305 -18.169  0.00  0.00    +0.150 C 
ATOM      3  C   UNL     1      34.511 -21.997 -17.786  0.00  0.00    +0.074 C 
ATOM      4  C   UNL     1      34.420 -20.237 -19.948  0.00  0.00    +0.060 C 
ATOM      5  C   UNL     1      33.272 -20.930 -19.564  0.00  0.00    +0.042 C 
ATOM      6  C   UNL     1      35.613 -20.424 -19.251  0.00  0.00    +0.042 C 
ENDROOT
BRANCH   4  11
ATOM      7  O   UNL     1      34.346 -19.781 -22.227  0.00  0.00    -0.270 OA
ATOM      8  N   UNL     1      34.339 -17.955 -20.754  0.00  0.00    -0.268 N 
ATOM      9  N   UNL     1      34.243 -15.597 -21.120  0.00  0.00    -0.252 NA
ATOM     10  N   UNL     1      34.158 -16.074 -23.882  0.00  0.00    -0.269 NA
ATOM     11  C   UNL     1      34.373 -19.319 -21.075  0.00  0.00    +0.251 C 
ATOM     12  C   UNL     1      34.267 -16.845 -21.630  0.00  0.00    +0.131 C 
ATOM     13  C   UNL     1      34.225 -17.078 -22.987  0.00  0.00    +0.185 C 
ATOM     14  C   UNL     1      34.134 -14.826 -23.372  0.00  0.00    +0.057 C 
ATOM     15  C   UNL     1      34.176 -14.592 -22.015  0.00  0.00    +0.167 C 
ATOM     16  C   UNL     1      34.061 -13.690 -24.332  0.00  0.00    +0.049 C 
ATOM     17  H   UNL     1      34.368 -17.742 -19.793  0.00  0.00    +0.156 HD
ENDBRANCH   4  11
BRANCH   1  18
ATOM     18  O   UNL     1      32.198 -22.487 -18.109  0.00  0.00    -0.476 OA
BRANCH  18  19
ATOM     19  C   UNL     1      31.760 -22.323 -16.761  0.00  0.00    +0.195 C 
ATOM     20  C   UNL     1      30.253 -22.117 -16.754  0.00  0.00    +0.050 C 
BRANCH  19  21
ATOM     21  C   UNL     1      32.156 -23.567 -15.975  0.00  0.00    +0.185 C 
BRANCH  21  22
ATOM     22  O   UNL     1      31.351 -23.649 -14.803  0.00  0.00    -0.347 OA
ATOM     23  C   UNL     1      32.084 -24.177 -13.707  0.00  0.00    +0.174 C 
ENDBRANCH  21  22
ENDBRANCH  19  21
ENDBRANCH  18  19
ENDBRANCH   1  18
BRANCH   2  24
ATOM     24  O   UNL     1      36.842 -21.490 -17.478  0.00  0.00    -0.438 OA
BRANCH  24  30
ATOM     25  N   UNL     1      37.980 -23.407 -14.623  0.00  0.00    -0.258 NA
ATOM     26  N   UNL     1      35.608 -22.758 -15.971  0.00  0.00    -0.233 NA
ATOM     27  C   UNL     1      36.781 -23.867 -14.218  0.00  0.00    +0.132 C 
ATOM     28  C   UNL     1      35.616 -23.549 -14.881  0.00  0.00    +0.178 C 
ATOM     29  C   UNL     1      37.974 -22.615 -15.714  0.00  0.00    +0.210 C 
ATOM     30  C   UNL     1      36.809 -22.296 -16.376  0.00  0.00    +0.226 C 
BRANCH  27  36
ATOM     31  O   UNL     1      37.366 -25.811 -13.082  0.00  0.00    -0.269 OA
ATOM     32  N   UNL     1      36.117 -24.267 -11.918  0.00  0.00    -0.275 N 
ATOM     33  C   UNL     1      35.664 -23.447 -10.100  0.00  0.00    +0.043 C 
ATOM     34  C   UNL     1      35.480 -23.014 -11.560  0.00  0.00    +0.096 C 
ATOM     35  C   UNL     1      35.951 -24.865 -10.606  0.00  0.00    +0.096 C 
ATOM     36  C   UNL     1      36.774 -24.736 -13.025  0.00  0.00    +0.264 C 
ENDBRANCH  27  36
ENDBRANCH  24  30
ENDBRANCH   2  24
TORSDOF 8
ENDMDL
MODEL 7
REMARK VINA RESULT:      -9.5      2.261      9.558
REMARK  Name = 16039797
REMARK  8 active torsions:
REMARK  status: ('A' for Active; 'I' for Inactive)
REMARK    1  A    between atoms: C_1  and  O_18
REMARK    2  A    between atoms: C_2  and  O_24
REMARK    3  A    between atoms: C_4  and  C_11
REMARK    4  A    between atoms: O_18  and  C_19
REMARK    5  A    between atoms: C_19  and  C_21
REMARK    6  A    between atoms: C_21  and  O_22
REMARK    7  A    between atoms: O_24  and  C_30
REMARK    8  A    between atoms: C_27  and  C_36
REMARK                            x       y       z     vdW  Elec       q    Type
REMARK                         _______ _______ _______ _____ _____    ______ ____
ROOT
ATOM      1  C   UNL     1      33.204 -21.525 -18.810  0.00  0.00    +0.142 C 
ATOM      2  C   UNL     1      35.586 -21.187 -18.588  0.00  0.00    +0.150 C 
ATOM      3  C   UNL     1      34.419 -21.848 -18.206  0.00  0.00    +0.074 C 
ATOM      4  C   UNL     1      34.322 -19.878 -20.178  0.00  0.00    +0.060 C 
ATOM      5  C   UNL     1      33.156 -20.540 -19.796  0.00  0.00    +0.042 C 
ATOM      6  C   UNL     1      35.537 -20.201 -19.575  0.00  0.00    +0.042 C 
ENDROOT
BRANCH   4  11
ATOM      7  O   UNL     1      34.269 -19.193 -22.400  0.00  0.00    -0.270 OA
ATOM      8  N   UNL     1      34.206 -17.528 -20.749  0.00  0.00    -0.268 N 
ATOM      9  N   UNL     1      34.068 -15.147 -20.874  0.00  0.00    -0.252 NA
ATOM     10  N   UNL     1      34.029 -15.340 -23.671  0.00  0.00    -0.269 NA
ATOM     11  C   UNL     1      34.272 -18.851 -21.207  0.00  0.00    +0.251 C 
ATOM     12  C   UNL     1      34.124 -16.335 -21.508  0.00  0.00    +0.131 C 
ATOM     13  C   UNL     1      34.104 -16.430 -22.882  0.00  0.00    +0.185 C 
ATOM     14  C   UNL     1      33.973 -14.152 -23.037  0.00  0.00    +0.057 C 
ATOM     15  C   UNL     1      33.993 -14.057 -21.663  0.00  0.00    +0.167 C 
ATOM     16  C   UNL     1      33.890 -12.926 -23.877  0.00  0.00    +0.049 C 
ATOM     17  H   UNL     1      34.217 -17.414 -19.771  0.00  0.00    +0.156 HD
ENDBRANCH   4  11
BRANCH   1  18
ATOM     18  O   UNL     1      32.066 -22.172 -18.437  0.00  0.00    -0.476 OA
BRANCH  18  19
ATOM     19  C   UNL     1      31.713 -22.122 -17.056  0.00  0.00    +0.195 C 
ATOM     20  C   UNL     1      30.197 -22.152 -16.934  0.00  0.00    +0.050 C 
BRANCH  19  21
ATOM     21  C   UNL     1      32.352 -23.314 -16.355  0.00  0.00    +0.185 C 
BRANCH  21  22
ATOM     22  O   UNL     1      31.726 -23.497 -15.089  0.00  0.00    -0.347 OA
ATOM     23  C   UNL     1      32.659 -23.917 -14.105  0.00  0.00    +0.174 C 
ENDBRANCH  21  22
ENDBRANCH  19  21
ENDBRANCH  18  19
ENDBRANCH   1  18
BRANCH   2  24
ATOM     24  O   UNL     1      36.790 -21.507 -17.989  0.00  0.00    -0.438 OA
BRANCH  24  30
ATOM     25  N   UNL     1      35.543 -22.093 -14.639  0.00  0.00    -0.258 NA
ATOM     26  N   UNL     1      37.889 -22.398 -16.146  0.00  0.00    -0.233 NA
ATOM     27  C   UNL     1      36.670 -22.609 -14.110  0.00  0.00    +0.132 C 
ATOM     28  C   UNL     1      37.822 -22.758 -14.849  0.00  0.00    +0.178 C 
ATOM     29  C   UNL     1      35.609 -21.733 -15.937  0.00  0.00    +0.210 C 
ATOM     30  C   UNL     1      36.761 -21.883 -16.676  0.00  0.00    +0.226 C 
BRANCH  27  36
ATOM     31  O   UNL     1      36.245 -22.173 -11.864  0.00  0.00    -0.269 OA
ATOM     32  N   UNL     1      36.954 -24.299 -12.391  0.00  0.00    -0.275 N 
ATOM     33  C   UNL     1      36.903 -26.289 -11.923  0.00  0.00    +0.043 C 
ATOM     34  C   UNL     1      37.275 -25.479 -13.171  0.00  0.00    +0.096 C 
ATOM     35  C   UNL     1      36.977 -24.989 -11.114  0.00  0.00    +0.096 C 
ATOM     36  C   UNL     1      36.611 -23.006 -12.689  0.00  0.00    +0.264 C 
ENDBRANCH  27  36
ENDBRANCH  24  30
ENDBRANCH   2  24
TORSDOF 8
ENDMDL
MODEL 8
REMARK VINA RESULT:      -9.5      2.147      3.524
REMARK  Name = 16039797
REMARK  8 active torsions:
REMARK  status: ('A' for Active; 'I' for Inactive)
REMARK    1  A    between atoms: C_1  and  O_18
REMARK    2  A    between atoms: C_2  and  O_24
REMARK    3  A    between atoms: C_4  and  C_11
REMARK    4  A    between atoms: O_18  and  C_19
REMARK    5  A    between atoms: C_19  and  C_21
REMARK    6  A    between atoms: C_21  and  O_22
REMARK    7  A    between atoms: O_24  and  C_30
REMARK    8  A    between atoms: C_27  and  C_36
REMARK                            x       y       z     vdW  Elec       q    Type
REMARK                         _______ _______ _______ _____ _____    ______ ____
ROOT
ATOM      1  C   UNL     1      32.635 -21.540 -18.413  0.00  0.00    +0.142 C 
ATOM      2  C   UNL     1      34.490 -21.060 -19.884  0.00  0.00    +0.150 C 
ATOM      3  C   UNL     1      33.115 -21.139 -19.659  0.00  0.00    +0.074 C 
ATOM      4  C   UNL     1      34.903 -21.786 -17.617  0.00  0.00    +0.060 C 
ATOM      5  C   UNL     1      33.529 -21.863 -17.391  0.00  0.00    +0.042 C 
ATOM      6  C   UNL     1      35.383 -21.384 -18.863  0.00  0.00    +0.042 C 
ENDROOT
BRANCH   4  11
ATOM      7  O   UNL     1      36.964 -21.608 -16.555  0.00  0.00    -0.270 OA
ATOM      8  N   UNL     1      35.354 -23.005 -15.575  0.00  0.00    -0.268 N 
ATOM      9  N   UNL     1      35.379 -24.340 -13.595  0.00  0.00    -0.252 NA
ATOM     10  N   UNL     1      38.004 -23.486 -13.104  0.00  0.00    -0.269 NA
ATOM     11  C   UNL     1      35.835 -22.122 -16.552  0.00  0.00    +0.251 C 
ATOM     12  C   UNL     1      36.018 -23.489 -14.421  0.00  0.00    +0.131 C 
ATOM     13  C   UNL     1      37.308 -23.069 -14.180  0.00  0.00    +0.185 C 
ATOM     14  C   UNL     1      37.365 -24.339 -12.278  0.00  0.00    +0.057 C 
ATOM     15  C   UNL     1      36.075 -24.758 -12.520  0.00  0.00    +0.167 C 
ATOM     16  C   UNL     1      38.104 -24.821 -11.079  0.00  0.00    +0.049 C 
ATOM     17  H   UNL     1      34.435 -23.331 -15.709  0.00  0.00    +0.156 HD
ENDBRANCH   4  11
BRANCH   1  18
ATOM     18  O   UNL     1      31.294 -21.615 -18.193  0.00  0.00    -0.476 OA
BRANCH  18  19
ATOM     19  C   UNL     1      30.870 -21.949 -16.872  0.00  0.00    +0.195 C 
ATOM     20  C   UNL     1      29.369 -22.192 -16.883  0.00  0.00    +0.050 C 
BRANCH  19  21
ATOM     21  C   UNL     1      31.632 -23.191 -16.425  0.00  0.00    +0.185 C 
BRANCH  21  22
ATOM     22  O   UNL     1      31.220 -23.538 -15.108  0.00  0.00    -0.347 OA
ATOM     23  C   UNL     1      32.077 -22.970 -14.129  0.00  0.00    +0.174 C 
ENDBRANCH  21  22
ENDBRANCH  19  21
ENDBRANCH  18  19
ENDBRANCH   1  18
BRANCH   2  24
ATOM     24  O   UNL     1      34.966 -20.662 -21.120  0.00  0.00    -0.438 OA
BRANCH  24  30
ATOM     25  N   UNL     1      34.094 -17.721 -23.046  0.00  0.00    -0.258 NA
ATOM     26  N   UNL     1      35.227 -18.418 -20.577  0.00  0.00    -0.233 NA
ATOM     27  C   UNL     1      34.504 -16.792 -22.161  0.00  0.00    +0.132 C 
ATOM     28  C   UNL     1      35.061 -17.134 -20.948  0.00  0.00    +0.178 C 
ATOM     29  C   UNL     1      34.259 -19.006 -22.674  0.00  0.00    +0.210 C 
ATOM     30  C   UNL     1      34.815 -19.348 -21.462  0.00  0.00    +0.226 C 
BRANCH  27  36
ATOM     31  O   UNL     1      34.653 -15.048 -23.693  0.00  0.00    -0.269 OA
ATOM     32  N   UNL     1      33.794 -14.534 -21.620  0.00  0.00    -0.275 N 
ATOM     33  C   UNL     1      32.528 -13.353 -20.532  0.00  0.00    +0.043 C 
ATOM     34  C   UNL     1      33.220 -14.701 -20.298  0.00  0.00    +0.096 C 
ATOM     35  C   UNL     1      33.484 -13.119 -21.707  0.00  0.00    +0.096 C 
ATOM     36  C   UNL     1      34.329 -15.380 -22.556  0.00  0.00    +0.264 C 
ENDBRANCH  27  36
ENDBRANCH  24  30
ENDBRANCH   2  24
TORSDOF 8
ENDMDL
MODEL 9
REMARK VINA RESULT:      -9.5      9.838     14.844
REMARK  Name = 16039797
REMARK  8 active torsions:
REMARK  status: ('A' for Active; 'I' for Inactive)
REMARK    1  A    between atoms: C_1  and  O_18
REMARK    2  A    between atoms: C_2  and  O_24
REMARK    3  A    between atoms: C_4  and  C_11
REMARK    4  A    between atoms: O_18  and  C_19
REMARK    5  A    between atoms: C_19  and  C_21
REMARK    6  A    between atoms: C_21  and  O_22
REMARK    7  A    between atoms: O_24  and  C_30
REMARK    8  A    between atoms: C_27  and  C_36
REMARK                            x       y       z     vdW  Elec       q    Type
REMARK                         _______ _______ _______ _____ _____    ______ ____
ROOT
ATOM      1  C   UNL     1      31.507  -9.520 -21.810  0.00  0.00    +0.142 C 
ATOM      2  C   UNL     1      33.323  -8.765 -23.212  0.00  0.00    +0.150 C 
ATOM      3  C   UNL     1      32.272  -8.482 -22.339  0.00  0.00    +0.074 C 
ATOM      4  C   UNL     1      32.841 -11.125 -23.026  0.00  0.00    +0.060 C 
ATOM      5  C   UNL     1      31.791 -10.842 -22.153  0.00  0.00    +0.042 C 
ATOM      6  C   UNL     1      33.607 -10.087 -23.555  0.00  0.00    +0.042 C 
ENDROOT
BRANCH   4  11
ATOM      7  O   UNL     1      33.017 -12.858 -24.567  0.00  0.00    -0.270 OA
ATOM      8  N   UNL     1      33.570 -13.328 -22.335  0.00  0.00    -0.268 N 
ATOM      9  N   UNL     1      34.340 -15.314 -21.256  0.00  0.00    -0.252 NA
ATOM     10  N   UNL     1      34.251 -16.639 -23.726  0.00  0.00    -0.269 NA
ATOM     11  C   UNL     1      33.138 -12.503 -23.384  0.00  0.00    +0.251 C 
ATOM     12  C   UNL     1      33.950 -14.691 -22.385  0.00  0.00    +0.131 C 
ATOM     13  C   UNL     1      33.906 -15.342 -23.598  0.00  0.00    +0.185 C 
ATOM     14  C   UNL     1      34.641 -17.262 -22.595  0.00  0.00    +0.057 C 
ATOM     15  C   UNL     1      34.685 -16.610 -21.382  0.00  0.00    +0.167 C 
ATOM     16  C   UNL     1      35.029 -18.695 -22.698  0.00  0.00    +0.049 C 
ATOM     17  H   UNL     1      33.616 -12.903 -21.449  0.00  0.00    +0.156 HD
ENDBRANCH   4  11
BRANCH   1  18
ATOM     18  O   UNL     1      30.483  -9.243 -20.957  0.00  0.00    -0.476 OA
BRANCH  18  19
ATOM     19  C   UNL     1      30.831  -8.764 -19.659  0.00  0.00    +0.195 C 
ATOM     20  C   UNL     1      31.259  -9.942 -18.797  0.00  0.00    +0.050 C 
BRANCH  19  21
ATOM     21  C   UNL     1      31.955  -7.746 -19.810  0.00  0.00    +0.185 C 
BRANCH  21  22
ATOM     22  O   UNL     1      31.517  -6.494 -19.292  0.00  0.00    -0.347 OA
ATOM     23  C   UNL     1      31.494  -5.495 -20.301  0.00  0.00    +0.174 C 
ENDBRANCH  21  22
ENDBRANCH  19  21
ENDBRANCH  18  19
ENDBRANCH   1  18
BRANCH   2  24
ATOM     24  O   UNL     1      34.082  -7.735 -23.737  0.00  0.00    -0.438 OA
BRANCH  24  30
ATOM     25  N   UNL     1      33.224  -4.280 -24.404  0.00  0.00    -0.258 NA
ATOM     26  N   UNL     1      32.332  -6.871 -24.999  0.00  0.00    -0.233 NA
ATOM     27  C   UNL     1      32.142  -4.502 -25.174  0.00  0.00    +0.132 C 
ATOM     28  C   UNL     1      31.703  -5.775 -25.467  0.00  0.00    +0.178 C 
ATOM     29  C   UNL     1      33.854  -5.376 -23.936  0.00  0.00    +0.210 C 
ATOM     30  C   UNL     1      33.416  -6.648 -24.229  0.00  0.00    +0.226 C 
BRANCH  27  36
ATOM     31  O   UNL     1      30.643  -2.736 -24.957  0.00  0.00    -0.269 OA
ATOM     32  N   UNL     1      31.752  -2.912 -26.967  0.00  0.00    -0.275 N 
ATOM     33  C   UNL     1      32.527  -1.938 -28.588  0.00  0.00    +0.043 C 
ATOM     34  C   UNL     1      32.728  -3.321 -27.958  0.00  0.00    +0.096 C 
ATOM     35  C   UNL     1      31.259  -1.787 -27.740  0.00  0.00    +0.096 C 
ATOM     36  C   UNL     1      31.442  -3.310 -25.693  0.00  0.00    +0.264 C 
ENDBRANCH  27  36
ENDBRANCH  24  30
ENDBRANCH   2  24
TORSDOF 8
ENDMDL
