MODEL 1
REMARK VINA RESULT:     -11.4      0.000      0.000
REMARK  Name = 6914568
REMARK  4 active torsions:
REMARK  status: ('A' for Active; 'I' for Inactive)
REMARK    1  A    between atoms: C_3  and  C_14
REMARK    2  A    between atoms: C_7  and  N_26
REMARK    3  A    between atoms: C_11  and  N_17
REMARK    4  A    between atoms: C_27  and  C_30
REMARK                            x       y       z     vdW  Elec       q    Type
REMARK                         _______ _______ _______ _____ _____    ______ ____
ROOT
ATOM      1  N   UNL     1      36.697 -23.892 -14.077  0.00  0.00    -0.296 N 
ATOM      2  N   UNL     1      37.557 -22.445 -15.801  0.00  0.00    -0.229 NA
ATOM      3  C   UNL     1      35.832 -21.620 -17.317  0.00  0.00    +0.019 C 
ATOM      4  C   UNL     1      35.204 -23.077 -15.524  0.00  0.00    +0.046 C 
ATOM      5  C   UNL     1      34.829 -22.309 -16.638  0.00  0.00    +0.006 C 
ATOM      6  C   UNL     1      36.552 -23.092 -15.180  0.00  0.00    +0.133 C 
ATOM      7  C   UNL     1      34.531 -23.903 -14.585  0.00  0.00    +0.068 C 
ATOM      8  C   UNL     1      37.139 -21.721 -16.865  0.00  0.00    +0.100 C 
ATOM      9  C   UNL     1      35.475 -24.391 -13.708  0.00  0.00    +0.078 C 
ATOM     10  H   UNL     1      37.549 -24.081 -13.621  0.00  0.00    +0.154 HD
ENDROOT
BRANCH   3  14
ATOM     11  C   UNL     1      34.887 -19.234 -20.723  0.00  0.00    +0.048 C 
ATOM     12  C   UNL     1      36.146 -19.139 -20.098  0.00  0.00    +0.015 C 
ATOM     13  C   UNL     1      33.949 -20.140 -20.190  0.00  0.00    +0.015 C 
ATOM     14  C   UNL     1      35.512 -20.811 -18.473  0.00  0.00    +0.002 C 
ATOM     15  C   UNL     1      36.455 -19.920 -18.985  0.00  0.00    +0.001 C 
ATOM     16  C   UNL     1      34.259 -20.921 -19.077  0.00  0.00    +0.001 C 
BRANCH  11  17
ATOM     17  N   UNL     1      34.577 -18.450 -21.840  0.00  0.00    -0.312 N 
ATOM     18  N   UNL     1      34.196 -16.867 -24.187  0.00  0.00    +0.388 N 
ATOM     19  C   UNL     1      34.277 -19.096 -23.122  0.00  0.00    +0.068 C 
ATOM     20  C   UNL     1      35.170 -17.109 -21.929  0.00  0.00    +0.068 C 
ATOM     21  C   UNL     1      33.494 -18.147 -24.032  0.00  0.00    -0.056 C 
ATOM     22  C   UNL     1      34.357 -16.225 -22.877  0.00  0.00    -0.056 C 
ATOM     23  C   UNL     1      33.466 -15.989 -25.101  0.00  0.00    -0.101 C 
ATOM     24  H   UNL     1      35.119 -17.043 -24.584  0.00  0.00    -0.080 HD
ENDBRANCH  11  17
ENDBRANCH   3  14
BRANCH   7  26
ATOM     25  O   UNL     1      32.198 -22.056 -14.376  0.00  0.00    -0.270 OA
ATOM     26  N   UNL     1      33.185 -24.187 -14.531  0.00  0.00    -0.279 N 
ATOM     27  C   UNL     1      32.120 -23.279 -14.431  0.00  0.00    +0.251 C 
ATOM     28  H   UNL     1      32.942 -25.140 -14.566  0.00  0.00    +0.155 HD
BRANCH  27  30
ATOM     29  N   UNL     1      29.140 -25.212 -13.276  0.00  0.00    -0.242 NA
ATOM     30  C   UNL     1      30.763 -23.886 -14.422  0.00  0.00    +0.073 C 
ATOM     31  C   UNL     1      29.921 -23.693 -15.489  0.00  0.00    +0.008 C 
ATOM     32  C   UNL     1      30.360 -24.633 -13.349  0.00  0.00    +0.103 C 
ATOM     33  C   UNL     1      28.658 -24.273 -15.451  0.00  0.00    +0.021 C 
ATOM     34  C   UNL     1      28.319 -25.016 -14.333  0.00  0.00    +0.099 C 
ENDBRANCH  27  30
ENDBRANCH   7  26
TORSDOF 4
ENDMDL
MODEL 2
REMARK VINA RESULT:     -10.6      8.721     16.234
REMARK  Name = 6914568
REMARK  4 active torsions:
REMARK  status: ('A' for Active; 'I' for Inactive)
REMARK    1  A    between atoms: C_3  and  C_14
REMARK    2  A    between atoms: C_7  and  N_26
REMARK    3  A    between atoms: C_11  and  N_17
REMARK    4  A    between atoms: C_27  and  C_30
REMARK                            x       y       z     vdW  Elec       q    Type
REMARK                         _______ _______ _______ _____ _____    ______ ____
ROOT
ATOM      1  N   UNL     1      30.740  -5.830 -21.900  0.00  0.00    -0.296 N 
ATOM      2  N   UNL     1      30.781  -8.022 -20.901  0.00  0.00    -0.229 NA
ATOM      3  C   UNL     1      31.927  -9.686 -22.272  0.00  0.00    +0.019 C 
ATOM      4  C   UNL     1      31.764  -7.433 -23.069  0.00  0.00    +0.046 C 
ATOM      5  C   UNL     1      32.208  -8.751 -23.266  0.00  0.00    +0.006 C 
ATOM      6  C   UNL     1      31.077  -7.159 -21.891  0.00  0.00    +0.133 C 
ATOM      7  C   UNL     1      31.833  -6.217 -23.799  0.00  0.00    +0.068 C 
ATOM      8  C   UNL     1      31.231  -9.275 -21.144  0.00  0.00    +0.100 C 
ATOM      9  C   UNL     1      31.195  -5.249 -23.055  0.00  0.00    +0.078 C 
ATOM     10  H   UNL     1      30.246  -5.364 -21.186  0.00  0.00    +0.154 HD
ENDROOT
BRANCH   3  14
ATOM     11  C   UNL     1      33.192 -13.736 -22.692  0.00  0.00    +0.048 C 
ATOM     12  C   UNL     1      32.505 -13.307 -21.540  0.00  0.00    +0.015 C 
ATOM     13  C   UNL     1      33.447 -12.788 -23.702  0.00  0.00    +0.015 C 
ATOM     14  C   UNL     1      32.355 -11.060 -22.415  0.00  0.00    +0.002 C 
ATOM     15  C   UNL     1      32.091 -11.982 -21.402  0.00  0.00    +0.001 C 
ATOM     16  C   UNL     1      33.033 -11.464 -23.565  0.00  0.00    +0.001 C 
BRANCH  11  17
ATOM     17  N   UNL     1      33.608 -15.065 -22.829  0.00  0.00    -0.312 N 
ATOM     18  N   UNL     1      34.674 -17.687 -23.218  0.00  0.00    +0.388 N 
ATOM     19  C   UNL     1      34.476 -15.664 -21.810  0.00  0.00    +0.068 C 
ATOM     20  C   UNL     1      33.754 -15.607 -24.186  0.00  0.00    +0.068 C 
ATOM     21  C   UNL     1      34.395 -17.191 -21.865  0.00  0.00    -0.056 C 
ATOM     22  C   UNL     1      33.695 -17.136 -24.163  0.00  0.00    -0.056 C 
ATOM     23  C   UNL     1      34.646 -19.148 -23.245  0.00  0.00    -0.101 C 
ATOM     24  H   UNL     1      35.607 -17.381 -23.495  0.00  0.00    -0.080 HD
ENDBRANCH  11  17
ENDBRANCH   3  14
BRANCH   7  26
ATOM     25  O   UNL     1      34.350  -4.772 -24.486  0.00  0.00    -0.270 OA
ATOM     26  N   UNL     1      32.421  -6.007 -25.026  0.00  0.00    -0.279 N 
ATOM     27  C   UNL     1      33.611  -5.317 -25.299  0.00  0.00    +0.251 C 
ATOM     28  H   UNL     1      31.950  -6.385 -25.802  0.00  0.00    +0.155 HD
BRANCH  27  30
ATOM     29  N   UNL     1      35.747  -4.983 -28.345  0.00  0.00    -0.242 NA
ATOM     30  C   UNL     1      34.012  -5.278 -26.730  0.00  0.00    +0.073 C 
ATOM     31  C   UNL     1      33.073  -5.489 -27.709  0.00  0.00    +0.008 C 
ATOM     32  C   UNL     1      35.316  -5.031 -27.065  0.00  0.00    +0.103 C 
ATOM     33  C   UNL     1      33.479  -5.447 -29.039  0.00  0.00    +0.021 C 
ATOM     34  C   UNL     1      34.814  -5.192 -29.301  0.00  0.00    +0.099 C 
ENDBRANCH  27  30
ENDBRANCH   7  26
TORSDOF 4
ENDMDL
MODEL 3
REMARK VINA RESULT:     -10.2      2.042      4.998
REMARK  Name = 6914568
REMARK  4 active torsions:
REMARK  status: ('A' for Active; 'I' for Inactive)
REMARK    1  A    between atoms: C_3  and  C_14
REMARK    2  A    between atoms: C_7  and  N_26
REMARK    3  A    between atoms: C_11  and  N_17
REMARK    4  A    between atoms: C_27  and  C_30
REMARK                            x       y       z     vdW  Elec       q    Type
REMARK                         _______ _______ _______ _____ _____    ______ ____
ROOT
ATOM      1  N   UNL     1      31.781 -24.584 -14.193  0.00  0.00    -0.296 N 
ATOM      2  N   UNL     1      30.891 -23.102 -15.872  0.00  0.00    -0.229 NA
ATOM      3  C   UNL     1      32.606 -22.141 -17.318  0.00  0.00    +0.019 C 
ATOM      4  C   UNL     1      33.263 -23.646 -15.574  0.00  0.00    +0.046 C 
ATOM      5  C   UNL     1      33.624 -22.816 -16.649  0.00  0.00    +0.006 C 
ATOM      6  C   UNL     1      31.911 -23.731 -15.258  0.00  0.00    +0.133 C 
ATOM      7  C   UNL     1      33.955 -24.480 -14.657  0.00  0.00    +0.068 C 
ATOM      8  C   UNL     1      31.296 -22.318 -16.898  0.00  0.00    +0.100 C 
ATOM      9  C   UNL     1      33.017 -25.044 -13.819  0.00  0.00    +0.078 C 
ATOM     10  H   UNL     1      30.930 -24.827 -13.761  0.00  0.00    +0.154 HD
ENDROOT
BRANCH   3  14
ATOM     11  C   UNL     1      33.507 -19.575 -20.602  0.00  0.00    +0.048 C 
ATOM     12  C   UNL     1      34.531 -20.239 -19.898  0.00  0.00    +0.015 C 
ATOM     13  C   UNL     1      32.177 -19.784 -20.189  0.00  0.00    +0.015 C 
ATOM     14  C   UNL     1      32.912 -21.271 -18.432  0.00  0.00    +0.002 C 
ATOM     15  C   UNL     1      34.236 -21.079 -18.825  0.00  0.00    +0.001 C 
ATOM     16  C   UNL     1      31.882 -20.624 -19.116  0.00  0.00    +0.001 C 
BRANCH  11  17
ATOM     17  N   UNL     1      33.804 -18.732 -21.679  0.00  0.00    -0.312 N 
ATOM     18  N   UNL     1      34.654 -17.101 -23.865  0.00  0.00    +0.388 N 
ATOM     19  C   UNL     1      33.770 -19.260 -23.047  0.00  0.00    +0.068 C 
ATOM     20  C   UNL     1      34.738 -17.622 -21.450  0.00  0.00    +0.068 C 
ATOM     21  C   UNL     1      33.618 -18.123 -24.059  0.00  0.00    -0.056 C 
ATOM     22  C   UNL     1      34.553 -16.537 -22.514  0.00  0.00    -0.056 C 
ATOM     23  C   UNL     1      34.531 -16.047 -24.871  0.00  0.00    -0.101 C 
ATOM     24  H   UNL     1      35.570 -17.537 -23.972  0.00  0.00    -0.080 HD
ENDBRANCH  11  17
ENDBRANCH   3  14
BRANCH   7  26
ATOM     25  O   UNL     1      36.124 -22.757 -13.552  0.00  0.00    -0.270 OA
ATOM     26  N   UNL     1      35.310 -24.708 -14.587  0.00  0.00    -0.279 N 
ATOM     27  C   UNL     1      36.295 -23.862 -14.056  0.00  0.00    +0.251 C 
ATOM     28  H   UNL     1      35.625 -25.565 -14.953  0.00  0.00    +0.155 HD
BRANCH  27  30
ATOM     29  N   UNL     1      39.324 -25.854 -13.153  0.00  0.00    -0.242 NA
ATOM     30  C   UNL     1      37.682 -24.395 -14.094  0.00  0.00    +0.073 C 
ATOM     31  C   UNL     1      38.560 -23.949 -15.051  0.00  0.00    +0.008 C 
ATOM     32  C   UNL     1      38.078 -25.328 -13.175  0.00  0.00    +0.103 C 
ATOM     33  C   UNL     1      39.851 -24.466 -15.061  0.00  0.00    +0.021 C 
ATOM     34  C   UNL     1      40.180 -25.407 -14.100  0.00  0.00    +0.099 C 
ENDBRANCH  27  30
ENDBRANCH   7  26
TORSDOF 4
ENDMDL
MODEL 4
REMARK VINA RESULT:     -10.0      9.655     14.742
REMARK  Name = 6914568
REMARK  4 active torsions:
REMARK  status: ('A' for Active; 'I' for Inactive)
REMARK    1  A    between atoms: C_3  and  C_14
REMARK    2  A    between atoms: C_7  and  N_26
REMARK    3  A    between atoms: C_11  and  N_17
REMARK    4  A    between atoms: C_27  and  C_30
REMARK                            x       y       z     vdW  Elec       q    Type
REMARK                         _______ _______ _______ _____ _____    ______ ____
ROOT
ATOM      1  N   UNL     1      31.148 -10.244 -19.576  0.00  0.00    -0.296 N 
ATOM      2  N   UNL     1      31.289  -7.973 -20.369  0.00  0.00    -0.229 NA
ATOM      3  C   UNL     1      32.193  -7.795 -22.629  0.00  0.00    +0.019 C 
ATOM      4  C   UNL     1      31.962  -9.962 -21.636  0.00  0.00    +0.046 C 
ATOM      5  C   UNL     1      32.345  -9.175 -22.735  0.00  0.00    +0.006 C 
ATOM      6  C   UNL     1      31.457  -9.300 -20.521  0.00  0.00    +0.133 C 
ATOM      7  C   UNL     1      31.950 -11.349 -21.333  0.00  0.00    +0.068 C 
ATOM      8  C   UNL     1      31.673  -7.266 -21.457  0.00  0.00    +0.100 C 
ATOM      9  C   UNL     1      31.444 -11.492 -20.059  0.00  0.00    +0.078 C 
ATOM     10  H   UNL     1      30.771 -10.054 -18.686  0.00  0.00    +0.154 HD
ENDROOT
BRANCH   3  14
ATOM     11  C   UNL     1      33.303  -5.246 -25.862  0.00  0.00    +0.048 C 
ATOM     12  C   UNL     1      31.953  -5.394 -25.487  0.00  0.00    +0.015 C 
ATOM     13  C   UNL     1      34.275  -5.963 -25.138  0.00  0.00    +0.015 C 
ATOM     14  C   UNL     1      32.569  -6.929 -23.725  0.00  0.00    +0.002 C 
ATOM     15  C   UNL     1      31.590  -6.227 -24.429  0.00  0.00    +0.001 C 
ATOM     16  C   UNL     1      33.912  -6.796 -24.080  0.00  0.00    +0.001 C 
BRANCH  11  17
ATOM     17  N   UNL     1      33.666  -4.410 -26.924  0.00  0.00    -0.312 N 
ATOM     18  N   UNL     1      34.320  -2.889 -29.252  0.00  0.00    +0.388 N 
ATOM     19  C   UNL     1      32.663  -3.530 -27.534  0.00  0.00    +0.068 C 
ATOM     20  C   UNL     1      34.745  -4.855 -27.816  0.00  0.00    +0.068 C 
ATOM     21  C   UNL     1      33.340  -2.382 -28.284  0.00  0.00    -0.056 C 
ATOM     22  C   UNL     1      35.356  -3.662 -28.556  0.00  0.00    -0.056 C 
ATOM     23  C   UNL     1      34.921  -1.786 -30.000  0.00  0.00    -0.101 C 
ATOM     24  H   UNL     1      33.843  -3.500 -29.915  0.00  0.00    -0.080 HD
ENDBRANCH  11  17
ENDBRANCH   3  14
BRANCH   7  26
ATOM     25  O   UNL     1      33.998 -13.458 -20.829  0.00  0.00    -0.270 OA
ATOM     26  N   UNL     1      32.361 -12.387 -22.138  0.00  0.00    -0.279 N 
ATOM     27  C   UNL     1      33.333 -13.358 -21.855  0.00  0.00    +0.251 C 
ATOM     28  H   UNL     1      31.921 -12.456 -23.015  0.00  0.00    +0.155 HD
BRANCH  27  30
ATOM     29  N   UNL     1      33.172 -15.069 -25.172  0.00  0.00    -0.242 NA
ATOM     30  C   UNL     1      33.543 -14.379 -22.915  0.00  0.00    +0.073 C 
ATOM     31  C   UNL     1      34.261 -15.515 -22.636  0.00  0.00    +0.008 C 
ATOM     32  C   UNL     1      33.019 -14.181 -24.163  0.00  0.00    +0.103 C 
ATOM     33  C   UNL     1      34.441 -16.453 -23.648  0.00  0.00    +0.021 C 
ATOM     34  C   UNL     1      33.881 -16.184 -24.886  0.00  0.00    +0.099 C 
ENDBRANCH  27  30
ENDBRANCH   7  26
TORSDOF 4
ENDMDL
MODEL 5
REMARK VINA RESULT:      -9.6      9.817     17.439
REMARK  Name = 6914568
REMARK  4 active torsions:
REMARK  status: ('A' for Active; 'I' for Inactive)
REMARK    1  A    between atoms: C_3  and  C_14
REMARK    2  A    between atoms: C_7  and  N_26
REMARK    3  A    between atoms: C_11  and  N_17
REMARK    4  A    between atoms: C_27  and  C_30
REMARK                            x       y       z     vdW  Elec       q    Type
REMARK                         _______ _______ _______ _____ _____    ______ ____
ROOT
ATOM      1  N   UNL     1      30.969  -4.143 -22.905  0.00  0.00    -0.296 N 
ATOM      2  N   UNL     1      30.434  -6.355 -22.115  0.00  0.00    -0.229 NA
ATOM      3  C   UNL     1      31.989  -8.063 -22.906  0.00  0.00    +0.019 C 
ATOM      4  C   UNL     1      32.327  -5.786 -23.567  0.00  0.00    +0.046 C 
ATOM      5  C   UNL     1      32.741  -7.128 -23.613  0.00  0.00    +0.006 C 
ATOM      6  C   UNL     1      31.194  -5.492 -22.816  0.00  0.00    +0.133 C 
ATOM      7  C   UNL     1      32.785  -4.562 -24.121  0.00  0.00    +0.068 C 
ATOM      8  C   UNL     1      30.879  -7.631 -22.194  0.00  0.00    +0.100 C 
ATOM      9  C   UNL     1      31.929  -3.568 -23.696  0.00  0.00    +0.078 C 
ATOM     10  H   UNL     1      30.229  -3.660 -22.468  0.00  0.00    +0.154 HD
ENDROOT
BRANCH   3  14
ATOM     11  C   UNL     1      33.091 -12.182 -22.925  0.00  0.00    +0.048 C 
ATOM     12  C   UNL     1      31.975 -11.734 -22.192  0.00  0.00    +0.015 C 
ATOM     13  C   UNL     1      33.832 -11.230 -23.652  0.00  0.00    +0.015 C 
ATOM     14  C   UNL     1      32.362  -9.461 -22.913  0.00  0.00    +0.002 C 
ATOM     15  C   UNL     1      31.614 -10.387 -22.186  0.00  0.00    +0.001 C 
ATOM     16  C   UNL     1      33.471  -9.883 -23.646  0.00  0.00    +0.001 C 
BRANCH  11  17
ATOM     17  N   UNL     1      33.453 -13.534 -22.929  0.00  0.00    -0.312 N 
ATOM     18  N   UNL     1      33.948 -16.347 -22.862  0.00  0.00    +0.388 N 
ATOM     19  C   UNL     1      33.170 -14.359 -24.109  0.00  0.00    +0.068 C 
ATOM     20  C   UNL     1      33.474 -14.248 -21.646  0.00  0.00    +0.068 C 
ATOM     21  C   UNL     1      34.062 -15.602 -24.122  0.00  0.00    -0.056 C 
ATOM     22  C   UNL     1      34.358 -15.494 -21.740  0.00  0.00    -0.056 C 
ATOM     23  C   UNL     1      34.764 -17.560 -22.908  0.00  0.00    -0.101 C 
ATOM     24  H   UNL     1      32.975 -16.622 -22.729  0.00  0.00    -0.080 HD
ENDBRANCH  11  17
ENDBRANCH   3  14
BRANCH   7  26
ATOM     25  O   UNL     1      33.221  -5.376 -26.957  0.00  0.00    -0.270 OA
ATOM     26  N   UNL     1      33.877  -4.365 -24.935  0.00  0.00    -0.279 N 
ATOM     27  C   UNL     1      34.035  -4.769 -26.269  0.00  0.00    +0.251 C 
ATOM     28  H   UNL     1      34.636  -3.884 -24.534  0.00  0.00    +0.155 HD
BRANCH  27  30
ATOM     29  N   UNL     1      36.966  -4.815 -28.585  0.00  0.00    -0.242 NA
ATOM     30  C   UNL     1      35.324  -4.387 -26.903  0.00  0.00    +0.073 C 
ATOM     31  C   UNL     1      36.030  -3.312 -26.423  0.00  0.00    +0.008 C 
ATOM     32  C   UNL     1      35.801  -5.109 -27.963  0.00  0.00    +0.103 C 
ATOM     33  C   UNL     1      37.232  -2.978 -27.037  0.00  0.00    +0.021 C 
ATOM     34  C   UNL     1      37.652  -3.754 -28.104  0.00  0.00    +0.099 C 
ENDBRANCH  27  30
ENDBRANCH   7  26
TORSDOF 4
ENDMDL
MODEL 6
REMARK VINA RESULT:      -9.3      3.762     10.654
REMARK  Name = 6914568
REMARK  4 active torsions:
REMARK  status: ('A' for Active; 'I' for Inactive)
REMARK    1  A    between atoms: C_3  and  C_14
REMARK    2  A    between atoms: C_7  and  N_26
REMARK    3  A    between atoms: C_11  and  N_17
REMARK    4  A    between atoms: C_27  and  C_30
REMARK                            x       y       z     vdW  Elec       q    Type
REMARK                         _______ _______ _______ _____ _____    ______ ____
ROOT
ATOM      1  N   UNL     1      33.988 -16.876 -25.303  0.00  0.00    -0.296 N 
ATOM      2  N   UNL     1      34.571 -19.004 -24.334  0.00  0.00    -0.229 NA
ATOM      3  C   UNL     1      34.394 -19.036 -21.899  0.00  0.00    +0.019 C 
ATOM      4  C   UNL     1      33.863 -17.020 -23.078  0.00  0.00    +0.046 C 
ATOM      5  C   UNL     1      33.980 -17.706 -21.858  0.00  0.00    +0.006 C 
ATOM      6  C   UNL     1      34.168 -17.722 -24.240  0.00  0.00    +0.133 C 
ATOM      7  C   UNL     1      33.489 -15.709 -23.475  0.00  0.00    +0.068 C 
ATOM      8  C   UNL     1      34.666 -19.615 -23.130  0.00  0.00    +0.100 C 
ATOM      9  C   UNL     1      33.576 -15.650 -24.850  0.00  0.00    +0.078 C 
ATOM     10  H   UNL     1      34.134 -17.113 -26.248  0.00  0.00    +0.154 HD
ENDROOT
BRANCH   3  14
ATOM     11  C   UNL     1      34.811 -21.285 -18.300  0.00  0.00    +0.048 C 
ATOM     12  C   UNL     1      35.926 -20.673 -18.907  0.00  0.00    +0.015 C 
ATOM     13  C   UNL     1      33.554 -21.130 -18.917  0.00  0.00    +0.015 C 
ATOM     14  C   UNL     1      34.535 -19.798 -20.678  0.00  0.00    +0.002 C 
ATOM     15  C   UNL     1      35.790 -19.937 -20.083  0.00  0.00    +0.001 C 
ATOM     16  C   UNL     1      33.418 -20.395 -20.094  0.00  0.00    +0.001 C 
BRANCH  11  17
ATOM     17  N   UNL     1      34.949 -22.023 -17.120  0.00  0.00    -0.312 N 
ATOM     18  N   UNL     1      35.202 -23.307 -14.580  0.00  0.00    +0.388 N 
ATOM     19  C   UNL     1      33.754 -22.489 -16.409  0.00  0.00    +0.068 C 
ATOM     20  C   UNL     1      36.128 -21.771 -16.281  0.00  0.00    +0.068 C 
ATOM     21  C   UNL     1      34.099 -23.658 -15.484  0.00  0.00    -0.056 C 
ATOM     22  C   UNL     1      36.397 -22.964 -15.361  0.00  0.00    -0.056 C 
ATOM     23  C   UNL     1      35.488 -24.412 -13.666  0.00  0.00    -0.101 C 
ATOM     24  H   UNL     1      34.928 -22.497 -14.024  0.00  0.00    -0.080 HD
ENDBRANCH  11  17
ENDBRANCH   3  14
BRANCH   7  26
ATOM     25  O   UNL     1      32.581 -12.964 -24.206  0.00  0.00    -0.270 OA
ATOM     26  N   UNL     1      33.106 -14.664 -22.666  0.00  0.00    -0.279 N 
ATOM     27  C   UNL     1      32.685 -13.385 -23.059  0.00  0.00    +0.251 C 
ATOM     28  H   UNL     1      33.130 -14.834 -21.697  0.00  0.00    +0.155 HD
BRANCH  27  30
ATOM     29  N   UNL     1      31.505 -10.322 -21.275  0.00  0.00    -0.242 NA
ATOM     30  C   UNL     1      32.305 -12.470 -21.951  0.00  0.00    +0.073 C 
ATOM     31  C   UNL     1      32.394 -12.897 -20.650  0.00  0.00    +0.008 C 
ATOM     32  C   UNL     1      31.867 -11.204 -22.234  0.00  0.00    +0.103 C 
ATOM     33  C   UNL     1      32.031 -12.018 -19.635  0.00  0.00    +0.021 C 
ATOM     34  C   UNL     1      31.598 -10.754 -19.997  0.00  0.00    +0.099 C 
ENDBRANCH  27  30
ENDBRANCH   7  26
TORSDOF 4
ENDMDL
MODEL 7
REMARK VINA RESULT:      -9.1      3.880     10.805
REMARK  Name = 6914568
REMARK  4 active torsions:
REMARK  status: ('A' for Active; 'I' for Inactive)
REMARK    1  A    between atoms: C_3  and  C_14
REMARK    2  A    between atoms: C_7  and  N_26
REMARK    3  A    between atoms: C_11  and  N_17
REMARK    4  A    between atoms: C_27  and  C_30
REMARK                            x       y       z     vdW  Elec       q    Type
REMARK                         _______ _______ _______ _____ _____    ______ ____
ROOT
ATOM      1  N   UNL     1      33.986 -16.630 -25.375  0.00  0.00    -0.296 N 
ATOM      2  N   UNL     1      34.495 -18.784 -24.422  0.00  0.00    -0.229 NA
ATOM      3  C   UNL     1      34.226 -18.854 -21.997  0.00  0.00    +0.019 C 
ATOM      4  C   UNL     1      33.774 -16.809 -23.159  0.00  0.00    +0.046 C 
ATOM      5  C   UNL     1      33.834 -17.518 -21.948  0.00  0.00    +0.006 C 
ATOM      6  C   UNL     1      34.111 -17.497 -24.321  0.00  0.00    +0.133 C 
ATOM      7  C   UNL     1      33.438 -15.485 -23.546  0.00  0.00    +0.068 C 
ATOM      8  C   UNL     1      34.534 -19.417 -23.227  0.00  0.00    +0.100 C 
ATOM      9  C   UNL     1      33.578 -15.405 -24.915  0.00  0.00    +0.078 C 
ATOM     10  H   UNL     1      34.163 -16.853 -26.318  0.00  0.00    +0.154 HD
ENDROOT
BRANCH   3  14
ATOM     11  C   UNL     1      34.469 -21.166 -18.423  0.00  0.00    +0.048 C 
ATOM     12  C   UNL     1      33.225 -20.885 -19.021  0.00  0.00    +0.015 C 
ATOM     13  C   UNL     1      35.630 -20.662 -19.040  0.00  0.00    +0.015 C 
ATOM     14  C   UNL     1      34.308 -19.639 -20.785  0.00  0.00    +0.002 C 
ATOM     15  C   UNL     1      33.146 -20.129 -20.190  0.00  0.00    +0.001 C 
ATOM     16  C   UNL     1      35.551 -19.907 -20.210  0.00  0.00    +0.001 C 
BRANCH  11  17
ATOM     17  N   UNL     1      34.548 -21.924 -17.249  0.00  0.00    -0.312 N 
ATOM     18  N   UNL     1      34.757 -23.678 -15.004  0.00  0.00    +0.388 N 
ATOM     19  C   UNL     1      35.855 -22.178 -16.633  0.00  0.00    +0.068 C 
ATOM     20  C   UNL     1      33.529 -22.958 -17.025  0.00  0.00    +0.068 C 
ATOM     21  C   UNL     1      35.690 -22.556 -15.160  0.00  0.00    -0.056 C 
ATOM     22  C   UNL     1      33.440 -23.310 -15.538  0.00  0.00    -0.056 C 
ATOM     23  C   UNL     1      34.649 -24.065 -13.598  0.00  0.00    -0.101 C 
ATOM     24  H   UNL     1      35.113 -24.478 -15.527  0.00  0.00    -0.080 HD
ENDBRANCH  11  17
ENDBRANCH   3  14
BRANCH   7  26
ATOM     25  O   UNL     1      32.634 -12.703 -24.260  0.00  0.00    -0.270 OA
ATOM     26  N   UNL     1      33.042 -14.448 -22.733  0.00  0.00    -0.279 N 
ATOM     27  C   UNL     1      32.673 -13.150 -23.118  0.00  0.00    +0.251 C 
ATOM     28  H   UNL     1      33.016 -14.639 -21.769  0.00  0.00    +0.155 HD
BRANCH  27  30
ATOM     29  N   UNL     1      31.483 -10.096 -21.326  0.00  0.00    -0.242 NA
ATOM     30  C   UNL     1      32.263 -12.249 -22.010  0.00  0.00    +0.073 C 
ATOM     31  C   UNL     1      32.282 -12.704 -20.715  0.00  0.00    +0.008 C 
ATOM     32  C   UNL     1      31.868 -10.968 -22.286  0.00  0.00    +0.103 C 
ATOM     33  C   UNL     1      31.892 -11.837 -19.700  0.00  0.00    +0.021 C 
ATOM     34  C   UNL     1      31.506 -10.556 -20.055  0.00  0.00    +0.099 C 
ENDBRANCH  27  30
ENDBRANCH   7  26
TORSDOF 4
ENDMDL
