MODEL 1
REMARK VINA RESULT:     -13.2      0.000      0.000
REMARK  Name = 9909438
REMARK  10 active torsions:
REMARK  status: ('A' for Active; 'I' for Inactive)
REMARK    1  A    between atoms: C_1  and  C_2
REMARK    2  A    between atoms: C_1  and  C_18
REMARK    3  A    between atoms: C_2  and  C_7
REMARK    4  A    between atoms: N_4  and  C_10
REMARK    5  A    between atoms: C_10  and  C_11
REMARK    6  A    between atoms: C_18  and  C_19
REMARK    7  A    between atoms: C_22  and  O_25
REMARK    8  A    between atoms: O_25  and  C_26
REMARK    9  A    between atoms: C_26  and  C_30
REMARK   10  A    between atoms: C_30  and  O_31
REMARK                            x       y       z     vdW  Elec       q    Type
REMARK                         _______ _______ _______ _____ _____    ______ ____
ROOT
ATOM      1  C   UNL     1      34.101 -21.815 -19.076  0.00  0.00    +0.014 C 
ENDROOT
BRANCH   1   2
ATOM      2  C   UNL     1      33.325 -20.738 -19.831  0.00  0.00    +0.078 C 
BRANCH   2   7
ATOM      3  O   UNL     1      37.129 -18.178 -20.957  0.00  0.00    -0.191 OA
ATOM      4  N   UNL     1      34.991 -18.289 -21.869  0.00  0.00    -0.151 N 
ATOM      5  N   UNL     1      33.882 -19.010 -21.553  0.00  0.00    -0.229 N 
ATOM      6  N   UNL     1      35.492 -19.593 -20.098  0.00  0.00    -0.308 NA
ATOM      7  C   UNL     1      34.250 -19.768 -20.482  0.00  0.00    +0.187 C 
ATOM      8  C   UNL     1      35.992 -18.632 -20.977  0.00  0.00    +0.286 C 
ATOM      9  H   UNL     1      33.004 -18.989 -21.999  0.00  0.00    +0.173 HD
BRANCH   4  10
ATOM     10  C   UNL     1      34.980 -17.355 -22.960  0.00  0.00    +0.152 C 
BRANCH  10  11
ATOM     11  C   UNL     1      34.365 -16.042 -22.569  0.00  0.00    +0.000 C 
ATOM     12  C   UNL     1      34.310 -15.682 -21.228  0.00  0.00    -0.003 C 
ATOM     13  C   UNL     1      33.855 -15.202 -23.552  0.00  0.00    -0.003 C 
ATOM     14  C   UNL     1      33.226 -13.613 -21.845  0.00  0.00    -0.022 C 
ATOM     15  C   UNL     1      33.739 -14.461 -20.865  0.00  0.00    -0.005 C 
ATOM     16  C   UNL     1      33.285 -13.983 -23.188  0.00  0.00    -0.005 C 
ATOM     17  C   UNL     1      32.615 -12.309 -21.456  0.00  0.00    +0.031 C 
ENDBRANCH  10  11
ENDBRANCH   4  10
ENDBRANCH   2   7
ENDBRANCH   1   2
BRANCH   1  18
ATOM     18  C   UNL     1      33.600 -21.998 -17.639  0.00  0.00    +0.027 C 
BRANCH  18  19
ATOM     19  C   UNL     1      34.727 -22.331 -16.696  0.00  0.00    -0.022 C 
ATOM     20  C   UNL     1      34.467 -23.094 -15.568  0.00  0.00    -0.001 C 
ATOM     21  C   UNL     1      36.005 -21.870 -16.972  0.00  0.00    -0.001 C 
ATOM     22  C   UNL     1      36.801 -22.947 -14.961  0.00  0.00    +0.139 C 
ATOM     23  C   UNL     1      35.510 -23.405 -14.695  0.00  0.00    +0.037 C 
ATOM     24  C   UNL     1      37.049 -22.179 -16.099  0.00  0.00    +0.037 C 
BRANCH  22  25
ATOM     25  O   UNL     1      37.819 -23.248 -14.109  0.00  0.00    -0.472 OA
BRANCH  25  26
ATOM     26  C   UNL     1      38.233 -24.612 -14.047  0.00  0.00    +0.221 C 
ATOM     27  C   UNL     1      38.197 -25.050 -12.586  0.00  0.00    +0.055 C 
ATOM     28  C   UNL     1      37.288 -25.432 -14.921  0.00  0.00    +0.055 C 
BRANCH  26  30
ATOM     29  O   UNL     1      40.596 -24.031 -14.101  0.00  0.00    -0.246 OA
ATOM     30  C   UNL     1      39.652 -24.635 -14.596  0.00  0.00    +0.350 C 
BRANCH  30  31
ATOM     31  O   UNL     1      39.786 -25.401 -15.710  0.00  0.00    -0.478 OA
ATOM     32  H   UNL     1      39.049 -25.870 -16.047  0.00  0.00    +0.295 HD
ENDBRANCH  30  31
ENDBRANCH  26  30
ENDBRANCH  25  26
ENDBRANCH  22  25
ENDBRANCH  18  19
ENDBRANCH   1  18
TORSDOF 10
ENDMDL
MODEL 2
REMARK VINA RESULT:     -12.7      1.008      1.764
REMARK  Name = 9909438
REMARK  10 active torsions:
REMARK  status: ('A' for Active; 'I' for Inactive)
REMARK    1  A    between atoms: C_1  and  C_2
REMARK    2  A    between atoms: C_1  and  C_18
REMARK    3  A    between atoms: C_2  and  C_7
REMARK    4  A    between atoms: N_4  and  C_10
REMARK    5  A    between atoms: C_10  and  C_11
REMARK    6  A    between atoms: C_18  and  C_19
REMARK    7  A    between atoms: C_22  and  O_25
REMARK    8  A    between atoms: O_25  and  C_26
REMARK    9  A    between atoms: C_26  and  C_30
REMARK   10  A    between atoms: C_30  and  O_31
REMARK                            x       y       z     vdW  Elec       q    Type
REMARK                         _______ _______ _______ _____ _____    ______ ____
ROOT
ATOM      1  C   UNL     1      34.380 -21.697 -18.942  0.00  0.00    +0.014 C 
ENDROOT
BRANCH   1   2
ATOM      2  C   UNL     1      33.555 -20.729 -19.786  0.00  0.00    +0.078 C 
BRANCH   2   7
ATOM      3  O   UNL     1      37.266 -18.127 -21.111  0.00  0.00    -0.191 OA
ATOM      4  N   UNL     1      35.069 -18.223 -21.873  0.00  0.00    -0.151 N 
ATOM      5  N   UNL     1      33.986 -18.956 -21.498  0.00  0.00    -0.229 N 
ATOM      6  N   UNL     1      35.696 -19.569 -20.175  0.00  0.00    -0.308 NA
ATOM      7  C   UNL     1      34.430 -19.740 -20.476  0.00  0.00    +0.187 C 
ATOM      8  C   UNL     1      36.131 -18.585 -21.063  0.00  0.00    +0.286 C 
ATOM      9  H   UNL     1      33.080 -18.928 -21.882  0.00  0.00    +0.173 HD
BRANCH   4  10
ATOM     10  C   UNL     1      34.980 -17.262 -22.937  0.00  0.00    +0.152 C 
BRANCH  10  11
ATOM     11  C   UNL     1      34.357 -15.975 -22.480  0.00  0.00    +0.000 C 
ATOM     12  C   UNL     1      33.892 -15.065 -23.422  0.00  0.00    -0.003 C 
ATOM     13  C   UNL     1      34.253 -15.706 -21.120  0.00  0.00    -0.003 C 
ATOM     14  C   UNL     1      33.205 -13.591 -21.635  0.00  0.00    -0.022 C 
ATOM     15  C   UNL     1      33.313 -13.868 -22.997  0.00  0.00    -0.005 C 
ATOM     16  C   UNL     1      33.675 -14.510 -20.696  0.00  0.00    -0.005 C 
ATOM     17  C   UNL     1      32.587 -12.311 -21.182  0.00  0.00    +0.031 C 
ENDBRANCH  10  11
ENDBRANCH   4  10
ENDBRANCH   2   7
ENDBRANCH   1   2
BRANCH   1  18
ATOM     18  C   UNL     1      33.695 -22.048 -17.617  0.00  0.00    +0.027 C 
BRANCH  18  19
ATOM     19  C   UNL     1      34.699 -22.363 -16.538  0.00  0.00    -0.022 C 
ATOM     20  C   UNL     1      34.283 -23.024 -15.392  0.00  0.00    -0.001 C 
ATOM     21  C   UNL     1      36.023 -21.987 -16.709  0.00  0.00    -0.001 C 
ATOM     22  C   UNL     1      36.548 -22.944 -14.554  0.00  0.00    +0.139 C 
ATOM     23  C   UNL     1      35.212 -23.317 -14.394  0.00  0.00    +0.037 C 
ATOM     24  C   UNL     1      36.953 -22.279 -15.711  0.00  0.00    +0.037 C 
BRANCH  22  25
ATOM     25  O   UNL     1      37.455 -23.228 -13.580  0.00  0.00    -0.472 OA
BRANCH  25  26
ATOM     26  C   UNL     1      37.825 -24.596 -13.415  0.00  0.00    +0.221 C 
ATOM     27  C   UNL     1      37.171 -25.400 -14.535  0.00  0.00    +0.055 C 
ATOM     28  C   UNL     1      39.348 -24.681 -13.454  0.00  0.00    +0.055 C 
BRANCH  26  30
ATOM     29  O   UNL     1      37.499 -24.399 -11.011  0.00  0.00    -0.246 OA
ATOM     30  C   UNL     1      37.284 -25.006 -12.053  0.00  0.00    +0.350 C 
BRANCH  30  31
ATOM     31  O   UNL     1      36.523 -26.131 -12.091  0.00  0.00    -0.478 OA
ATOM     32  H   UNL     1      36.919 -26.968 -11.954  0.00  0.00    +0.295 HD
ENDBRANCH  30  31
ENDBRANCH  26  30
ENDBRANCH  25  26
ENDBRANCH  22  25
ENDBRANCH  18  19
ENDBRANCH   1  18
TORSDOF 10
ENDMDL
MODEL 3
REMARK VINA RESULT:     -12.5      2.289      3.173
REMARK  Name = 9909438
REMARK  10 active torsions:
REMARK  status: ('A' for Active; 'I' for Inactive)
REMARK    1  A    between atoms: C_1  and  C_2
REMARK    2  A    between atoms: C_1  and  C_18
REMARK    3  A    between atoms: C_2  and  C_7
REMARK    4  A    between atoms: N_4  and  C_10
REMARK    5  A    between atoms: C_10  and  C_11
REMARK    6  A    between atoms: C_18  and  C_19
REMARK    7  A    between atoms: C_22  and  O_25
REMARK    8  A    between atoms: O_25  and  C_26
REMARK    9  A    between atoms: C_26  and  C_30
REMARK   10  A    between atoms: C_30  and  O_31
REMARK                            x       y       z     vdW  Elec       q    Type
REMARK                         _______ _______ _______ _____ _____    ______ ____
ROOT
ATOM      1  C   UNL     1      34.606 -20.068 -20.141  0.00  0.00    +0.014 C 
ENDROOT
BRANCH   1   2
ATOM      2  C   UNL     1      35.635 -19.157 -20.805  0.00  0.00    +0.078 C 
BRANCH   2   7
ATOM      3  O   UNL     1      33.132 -18.027 -24.646  0.00  0.00    -0.191 OA
ATOM      4  N   UNL     1      34.533 -16.780 -23.268  0.00  0.00    -0.151 N 
ATOM      5  N   UNL     1      35.269 -17.090 -22.167  0.00  0.00    -0.229 N 
ATOM      6  N   UNL     1      34.214 -18.966 -22.811  0.00  0.00    -0.308 NA
ATOM      7  C   UNL     1      35.035 -18.414 -21.948  0.00  0.00    +0.187 C 
ATOM      8  C   UNL     1      33.880 -17.928 -23.682  0.00  0.00    +0.286 C 
ATOM      9  H   UNL     1      35.846 -16.488 -21.641  0.00  0.00    +0.173 HD
BRANCH   4  10
ATOM     10  C   UNL     1      34.537 -15.451 -23.811  0.00  0.00    +0.152 C 
BRANCH  10  11
ATOM     11  C   UNL     1      33.774 -14.489 -22.948  0.00  0.00    +0.000 C 
ATOM     12  C   UNL     1      32.950 -13.539 -23.541  0.00  0.00    -0.003 C 
ATOM     13  C   UNL     1      33.899 -14.556 -21.565  0.00  0.00    -0.003 C 
ATOM     14  C   UNL     1      32.360 -12.706 -21.352  0.00  0.00    -0.022 C 
ATOM     15  C   UNL     1      32.240 -12.645 -22.739  0.00  0.00    -0.005 C 
ATOM     16  C   UNL     1      33.189 -13.662 -20.764  0.00  0.00    -0.005 C 
ATOM     17  C   UNL     1      31.601 -11.750 -20.495  0.00  0.00    +0.031 C 
ENDBRANCH  10  11
ENDBRANCH   4  10
ENDBRANCH   2   7
ENDBRANCH   1   2
BRANCH   1  18
ATOM     18  C   UNL     1      35.182 -21.446 -19.795  0.00  0.00    +0.027 C 
BRANCH  18  19
ATOM     19  C   UNL     1      35.162 -21.699 -18.309  0.00  0.00    -0.022 C 
ATOM     20  C   UNL     1      34.029 -22.247 -17.727  0.00  0.00    -0.001 C 
ATOM     21  C   UNL     1      36.277 -21.380 -17.549  0.00  0.00    -0.001 C 
ATOM     22  C   UNL     1      35.125 -22.167 -15.576  0.00  0.00    +0.139 C 
ATOM     23  C   UNL     1      34.010 -22.483 -16.353  0.00  0.00    +0.037 C 
ATOM     24  C   UNL     1      36.258 -21.615 -16.174  0.00  0.00    +0.037 C 
BRANCH  22  25
ATOM     25  O   UNL     1      35.107 -22.394 -14.234  0.00  0.00    -0.472 OA
BRANCH  25  26
ATOM     26  C   UNL     1      35.564 -23.670 -13.786  0.00  0.00    +0.221 C 
ATOM     27  C   UNL     1      35.170 -24.707 -14.833  0.00  0.00    +0.055 C 
ATOM     28  C   UNL     1      37.075 -23.589 -13.591  0.00  0.00    +0.055 C 
BRANCH  26  30
ATOM     29  O   UNL     1      35.271 -24.651 -11.577  0.00  0.00    -0.246 OA
ATOM     30  C   UNL     1      34.849 -23.920 -12.465  0.00  0.00    +0.350 C 
BRANCH  30  31
ATOM     31  O   UNL     1      33.675 -23.246 -12.352  0.00  0.00    -0.478 OA
ATOM     32  H   UNL     1      32.897 -23.593 -12.739  0.00  0.00    +0.295 HD
ENDBRANCH  30  31
ENDBRANCH  26  30
ENDBRANCH  25  26
ENDBRANCH  22  25
ENDBRANCH  18  19
ENDBRANCH   1  18
TORSDOF 10
ENDMDL
MODEL 4
REMARK VINA RESULT:     -12.4      1.815      2.647
REMARK  Name = 9909438
REMARK  10 active torsions:
REMARK  status: ('A' for Active; 'I' for Inactive)
REMARK    1  A    between atoms: C_1  and  C_2
REMARK    2  A    between atoms: C_1  and  C_18
REMARK    3  A    between atoms: C_2  and  C_7
REMARK    4  A    between atoms: N_4  and  C_10
REMARK    5  A    between atoms: C_10  and  C_11
REMARK    6  A    between atoms: C_18  and  C_19
REMARK    7  A    between atoms: C_22  and  O_25
REMARK    8  A    between atoms: O_25  and  C_26
REMARK    9  A    between atoms: C_26  and  C_30
REMARK   10  A    between atoms: C_30  and  O_31
REMARK                            x       y       z     vdW  Elec       q    Type
REMARK                         _______ _______ _______ _____ _____    ______ ____
ROOT
ATOM      1  C   UNL     1      34.619 -19.947 -20.187  0.00  0.00    +0.014 C 
ENDROOT
BRANCH   1   2
ATOM      2  C   UNL     1      35.649 -19.075 -20.900  0.00  0.00    +0.078 C 
BRANCH   2   7
ATOM      3  O   UNL     1      33.121 -17.979 -24.735  0.00  0.00    -0.191 OA
ATOM      4  N   UNL     1      34.493 -16.709 -23.349  0.00  0.00    -0.151 N 
ATOM      5  N   UNL     1      35.237 -17.008 -22.250  0.00  0.00    -0.229 N 
ATOM      6  N   UNL     1      34.224 -18.904 -22.905  0.00  0.00    -0.308 NA
ATOM      7  C   UNL     1      35.032 -18.339 -22.039  0.00  0.00    +0.187 C 
ATOM      8  C   UNL     1      33.867 -17.869 -23.770  0.00  0.00    +0.286 C 
ATOM      9  H   UNL     1      35.799 -16.397 -21.721  0.00  0.00    +0.173 HD
BRANCH   4  10
ATOM     10  C   UNL     1      34.467 -15.377 -23.884  0.00  0.00    +0.152 C 
BRANCH  10  11
ATOM     11  C   UNL     1      33.725 -14.426 -22.991  0.00  0.00    +0.000 C 
ATOM     12  C   UNL     1      33.884 -14.513 -21.613  0.00  0.00    -0.003 C 
ATOM     13  C   UNL     1      32.885 -13.470 -23.550  0.00  0.00    -0.003 C 
ATOM     14  C   UNL     1      32.350 -12.668 -21.335  0.00  0.00    -0.022 C 
ATOM     15  C   UNL     1      33.194 -13.630 -20.782  0.00  0.00    -0.005 C 
ATOM     16  C   UNL     1      32.196 -12.587 -22.719  0.00  0.00    -0.005 C 
ATOM     17  C   UNL     1      31.612 -11.724 -20.446  0.00  0.00    +0.031 C 
ENDBRANCH  10  11
ENDBRANCH   4  10
ENDBRANCH   2   7
ENDBRANCH   1   2
BRANCH   1  18
ATOM     18  C   UNL     1      35.152 -21.351 -19.882  0.00  0.00    +0.027 C 
BRANCH  18  19
ATOM     19  C   UNL     1      35.143 -21.640 -18.403  0.00  0.00    -0.022 C 
ATOM     20  C   UNL     1      36.275 -21.365 -17.650  0.00  0.00    -0.001 C 
ATOM     21  C   UNL     1      34.005 -22.173 -17.820  0.00  0.00    -0.001 C 
ATOM     22  C   UNL     1      35.128 -22.167 -15.681  0.00  0.00    +0.139 C 
ATOM     23  C   UNL     1      36.268 -21.630 -16.280  0.00  0.00    +0.037 C 
ATOM     24  C   UNL     1      33.997 -22.439 -16.450  0.00  0.00    +0.037 C 
BRANCH  22  25
ATOM     25  O   UNL     1      35.121 -22.427 -14.345  0.00  0.00    -0.472 OA
BRANCH  25  26
ATOM     26  C   UNL     1      35.525 -23.733 -13.936  0.00  0.00    +0.221 C 
ATOM     27  C   UNL     1      35.035 -23.954 -12.508  0.00  0.00    +0.055 C 
ATOM     28  C   UNL     1      34.929 -24.741 -14.915  0.00  0.00    +0.055 C 
BRANCH  26  30
ATOM     29  O   UNL     1      37.770 -23.035 -13.302  0.00  0.00    -0.246 OA
ATOM     30  C   UNL     1      37.046 -23.731 -14.004  0.00  0.00    +0.350 C 
BRANCH  30  31
ATOM     31  O   UNL     1      37.545 -24.589 -14.932  0.00  0.00    -0.478 OA
ATOM     32  H   UNL     1      37.005 -24.877 -15.641  0.00  0.00    +0.295 HD
ENDBRANCH  30  31
ENDBRANCH  26  30
ENDBRANCH  25  26
ENDBRANCH  22  25
ENDBRANCH  18  19
ENDBRANCH   1  18
TORSDOF 10
ENDMDL
MODEL 5
REMARK VINA RESULT:     -12.4      5.527     13.154
REMARK  Name = 9909438
REMARK  10 active torsions:
REMARK  status: ('A' for Active; 'I' for Inactive)
REMARK    1  A    between atoms: C_1  and  C_2
REMARK    2  A    between atoms: C_1  and  C_18
REMARK    3  A    between atoms: C_2  and  C_7
REMARK    4  A    between atoms: N_4  and  C_10
REMARK    5  A    between atoms: C_10  and  C_11
REMARK    6  A    between atoms: C_18  and  C_19
REMARK    7  A    between atoms: C_22  and  O_25
REMARK    8  A    between atoms: O_25  and  C_26
REMARK    9  A    between atoms: C_26  and  C_30
REMARK   10  A    between atoms: C_30  and  O_31
REMARK                            x       y       z     vdW  Elec       q    Type
REMARK                         _______ _______ _______ _____ _____    ______ ____
ROOT
ATOM      1  C   UNL     1      32.741 -13.175 -21.612  0.00  0.00    +0.014 C 
ENDROOT
BRANCH   1   2
ATOM      2  C   UNL     1      33.795 -14.056 -20.946  0.00  0.00    +0.078 C 
BRANCH   2   7
ATOM      3  O   UNL     1      34.123 -17.096 -24.544  0.00  0.00    -0.191 OA
ATOM      4  N   UNL     1      34.854 -17.198 -22.337  0.00  0.00    -0.151 N 
ATOM      5  N   UNL     1      34.760 -16.340 -21.286  0.00  0.00    -0.229 N 
ATOM      6  N   UNL     1      33.756 -15.357 -23.040  0.00  0.00    -0.308 NA
ATOM      7  C   UNL     1      34.090 -15.259 -21.774  0.00  0.00    +0.187 C 
ATOM      8  C   UNL     1      34.235 -16.610 -23.426  0.00  0.00    +0.286 C 
ATOM      9  H   UNL     1      35.101 -16.470 -20.372  0.00  0.00    +0.173 HD
BRANCH   4  10
ATOM     10  C   UNL     1      35.501 -18.473 -22.196  0.00  0.00    +0.152 C 
BRANCH  10  11
ATOM     11  C   UNL     1      34.805 -19.348 -21.194  0.00  0.00    +0.000 C 
ATOM     12  C   UNL     1      35.557 -20.077 -20.281  0.00  0.00    -0.003 C 
ATOM     13  C   UNL     1      33.417 -19.421 -21.191  0.00  0.00    -0.003 C 
ATOM     14  C   UNL     1      33.519 -20.969 -19.340  0.00  0.00    -0.022 C 
ATOM     15  C   UNL     1      34.910 -20.891 -19.349  0.00  0.00    -0.005 C 
ATOM     16  C   UNL     1      32.772 -20.234 -20.260  0.00  0.00    -0.005 C 
ATOM     17  C   UNL     1      32.828 -21.839 -18.344  0.00  0.00    +0.031 C 
ENDBRANCH  10  11
ENDBRANCH   4  10
ENDBRANCH   2   7
ENDBRANCH   1   2
BRANCH   1  18
ATOM     18  C   UNL     1      31.755 -12.577 -20.602  0.00  0.00    +0.027 C 
BRANCH  18  19
ATOM     19  C   UNL     1      31.544 -11.103 -20.839  0.00  0.00    -0.022 C 
ATOM     20  C   UNL     1      31.343 -10.262 -19.755  0.00  0.00    -0.001 C 
ATOM     21  C   UNL     1      31.554 -10.613 -22.135  0.00  0.00    -0.001 C 
ATOM     22  C   UNL     1      31.157  -8.392 -21.272  0.00  0.00    +0.139 C 
ATOM     23  C   UNL     1      31.148  -8.898 -19.972  0.00  0.00    +0.037 C 
ATOM     24  C   UNL     1      31.359  -9.249 -22.354  0.00  0.00    +0.037 C 
BRANCH  22  25
ATOM     25  O   UNL     1      30.965  -7.061 -21.486  0.00  0.00    -0.472 OA
BRANCH  25  26
ATOM     26  C   UNL     1      32.061  -6.194 -21.200  0.00  0.00    +0.221 C 
ATOM     27  C   UNL     1      32.350  -6.273 -19.705  0.00  0.00    +0.055 C 
ATOM     28  C   UNL     1      33.251  -6.642 -22.044  0.00  0.00    +0.055 C 
BRANCH  26  30
ATOM     29  O   UNL     1      31.905  -4.239 -22.644  0.00  0.00    -0.246 OA
ATOM     30  C   UNL     1      31.595  -4.800 -21.599  0.00  0.00    +0.350 C 
BRANCH  30  31
ATOM     31  O   UNL     1      30.787  -4.217 -20.676  0.00  0.00    -0.478 OA
ATOM     32  H   UNL     1      30.335  -3.424 -20.884  0.00  0.00    +0.295 HD
ENDBRANCH  30  31
ENDBRANCH  26  30
ENDBRANCH  25  26
ENDBRANCH  22  25
ENDBRANCH  18  19
ENDBRANCH   1  18
TORSDOF 10
ENDMDL
MODEL 6
REMARK VINA RESULT:     -12.1      6.176     13.201
REMARK  Name = 9909438
REMARK  10 active torsions:
REMARK  status: ('A' for Active; 'I' for Inactive)
REMARK    1  A    between atoms: C_1  and  C_2
REMARK    2  A    between atoms: C_1  and  C_18
REMARK    3  A    between atoms: C_2  and  C_7
REMARK    4  A    between atoms: N_4  and  C_10
REMARK    5  A    between atoms: C_10  and  C_11
REMARK    6  A    between atoms: C_18  and  C_19
REMARK    7  A    between atoms: C_22  and  O_25
REMARK    8  A    between atoms: O_25  and  C_26
REMARK    9  A    between atoms: C_26  and  C_30
REMARK   10  A    between atoms: C_30  and  O_31
REMARK                            x       y       z     vdW  Elec       q    Type
REMARK                         _______ _______ _______ _____ _____    ______ ____
ROOT
ATOM      1  C   UNL     1      32.478 -13.060 -20.606  0.00  0.00    +0.014 C 
ENDROOT
BRANCH   1   2
ATOM      2  C   UNL     1      33.885 -13.417 -21.077  0.00  0.00    +0.078 C 
BRANCH   2   7
ATOM      3  O   UNL     1      33.380 -15.133 -25.447  0.00  0.00    -0.191 OA
ATOM      4  N   UNL     1      34.046 -16.118 -23.446  0.00  0.00    -0.151 N 
ATOM      5  N   UNL     1      34.187 -15.644 -22.178  0.00  0.00    -0.229 N 
ATOM      6  N   UNL     1      33.499 -13.929 -23.458  0.00  0.00    -0.308 NA
ATOM      7  C   UNL     1      33.842 -14.328 -22.255  0.00  0.00    +0.187 C 
ATOM      8  C   UNL     1      33.617 -15.074 -24.247  0.00  0.00    +0.286 C 
ATOM      9  H   UNL     1      34.475 -16.142 -21.380  0.00  0.00    +0.173 HD
BRANCH   4  10
ATOM     10  C   UNL     1      34.316 -17.494 -23.755  0.00  0.00    +0.152 C 
BRANCH  10  11
ATOM     11  C   UNL     1      34.727 -18.273 -22.540  0.00  0.00    +0.000 C 
ATOM     12  C   UNL     1      36.013 -18.127 -22.034  0.00  0.00    -0.003 C 
ATOM     13  C   UNL     1      33.818 -19.132 -21.934  0.00  0.00    -0.003 C 
ATOM     14  C   UNL     1      35.490 -19.715 -20.290  0.00  0.00    -0.022 C 
ATOM     15  C   UNL     1      36.396 -18.852 -20.904  0.00  0.00    -0.005 C 
ATOM     16  C   UNL     1      34.201 -19.855 -20.805  0.00  0.00    -0.005 C 
ATOM     17  C   UNL     1      35.899 -20.489 -19.082  0.00  0.00    +0.031 C 
ENDBRANCH  10  11
ENDBRANCH   4  10
ENDBRANCH   2   7
ENDBRANCH   1   2
BRANCH   1  18
ATOM     18  C   UNL     1      31.568 -12.623 -21.760  0.00  0.00    +0.027 C 
BRANCH  18  19
ATOM     19  C   UNL     1      31.529 -11.123 -21.900  0.00  0.00    -0.022 C 
ATOM     20  C   UNL     1      30.825 -10.371 -20.972  0.00  0.00    -0.001 C 
ATOM     21  C   UNL     1      32.200 -10.520 -22.953  0.00  0.00    -0.001 C 
ATOM     22  C   UNL     1      31.460  -8.363 -22.154  0.00  0.00    +0.139 C 
ATOM     23  C   UNL     1      30.789  -8.983 -21.099  0.00  0.00    +0.037 C 
ATOM     24  C   UNL     1      32.164  -9.130 -23.081  0.00  0.00    +0.037 C 
BRANCH  22  25
ATOM     25  O   UNL     1      31.424  -7.008 -22.281  0.00  0.00    -0.472 OA
BRANCH  25  26
ATOM     26  C   UNL     1      32.437  -6.266 -21.602  0.00  0.00    +0.221 C 
ATOM     27  C   UNL     1      32.567  -6.827 -20.190  0.00  0.00    +0.055 C 
ATOM     28  C   UNL     1      33.732  -6.396 -22.399  0.00  0.00    +0.055 C 
BRANCH  26  30
ATOM     29  O   UNL     1      31.896  -4.096 -22.564  0.00  0.00    -0.246 OA
ATOM     30  C   UNL     1      31.945  -4.825 -21.581  0.00  0.00    +0.350 C 
BRANCH  30  31
ATOM     31  O   UNL     1      31.555  -4.407 -20.349  0.00  0.00    -0.478 OA
ATOM     32  H   UNL     1      31.912  -4.811 -19.583  0.00  0.00    +0.295 HD
ENDBRANCH  30  31
ENDBRANCH  26  30
ENDBRANCH  25  26
ENDBRANCH  22  25
ENDBRANCH  18  19
ENDBRANCH   1  18
TORSDOF 10
ENDMDL
MODEL 7
REMARK VINA RESULT:     -12.0      3.292      4.751
REMARK  Name = 9909438
REMARK  10 active torsions:
REMARK  status: ('A' for Active; 'I' for Inactive)
REMARK    1  A    between atoms: C_1  and  C_2
REMARK    2  A    between atoms: C_1  and  C_18
REMARK    3  A    between atoms: C_2  and  C_7
REMARK    4  A    between atoms: N_4  and  C_10
REMARK    5  A    between atoms: C_10  and  C_11
REMARK    6  A    between atoms: C_18  and  C_19
REMARK    7  A    between atoms: C_22  and  O_25
REMARK    8  A    between atoms: O_25  and  C_26
REMARK    9  A    between atoms: C_26  and  C_30
REMARK   10  A    between atoms: C_30  and  O_31
REMARK                            x       y       z     vdW  Elec       q    Type
REMARK                         _______ _______ _______ _____ _____    ______ ____
ROOT
ATOM      1  C   UNL     1      35.176 -20.206 -20.058  0.00  0.00    +0.014 C 
ENDROOT
BRANCH   1   2
ATOM      2  C   UNL     1      36.036 -19.166 -20.772  0.00  0.00    +0.078 C 
BRANCH   2   7
ATOM      3  O   UNL     1      32.972 -18.254 -24.247  0.00  0.00    -0.191 OA
ATOM      4  N   UNL     1      34.586 -16.945 -23.200  0.00  0.00    -0.151 N 
ATOM      5  N   UNL     1      35.484 -17.192 -22.207  0.00  0.00    -0.229 N 
ATOM      6  N   UNL     1      34.320 -19.086 -22.540  0.00  0.00    -0.308 NA
ATOM      7  C   UNL     1      35.272 -18.492 -21.859  0.00  0.00    +0.187 C 
ATOM      8  C   UNL     1      33.864 -18.105 -23.421  0.00  0.00    +0.286 C 
ATOM      9  H   UNL     1      36.142 -16.569 -21.824  0.00  0.00    +0.173 HD
BRANCH   4  10
ATOM     10  C   UNL     1      34.519 -15.658 -23.832  0.00  0.00    +0.152 C 
BRANCH  10  11
ATOM     11  C   UNL     1      33.792 -14.653 -22.987  0.00  0.00    +0.000 C 
ATOM     12  C   UNL     1      32.974 -13.708 -23.595  0.00  0.00    -0.003 C 
ATOM     13  C   UNL     1      33.945 -14.676 -21.606  0.00  0.00    -0.003 C 
ATOM     14  C   UNL     1      32.445 -12.792 -21.423  0.00  0.00    -0.022 C 
ATOM     15  C   UNL     1      32.297 -12.774 -22.809  0.00  0.00    -0.005 C 
ATOM     16  C   UNL     1      33.269 -13.743 -20.821  0.00  0.00    -0.005 C 
ATOM     17  C   UNL     1      31.722 -11.793 -20.583  0.00  0.00    +0.031 C 
ENDBRANCH  10  11
ENDBRANCH   4  10
ENDBRANCH   2   7
ENDBRANCH   1   2
BRANCH   1  18
ATOM     18  C   UNL     1      35.918 -20.885 -18.901  0.00  0.00    +0.027 C 
BRANCH  18  19
ATOM     19  C   UNL     1      34.974 -21.648 -18.008  0.00  0.00    -0.022 C 
ATOM     20  C   UNL     1      35.345 -21.918 -16.699  0.00  0.00    -0.001 C 
ATOM     21  C   UNL     1      33.751 -22.066 -18.509  0.00  0.00    -0.001 C 
ATOM     22  C   UNL     1      33.237 -23.050 -16.362  0.00  0.00    +0.139 C 
ATOM     23  C   UNL     1      34.472 -22.623 -15.871  0.00  0.00    +0.037 C 
ATOM     24  C   UNL     1      32.877 -22.773 -17.681  0.00  0.00    +0.037 C 
BRANCH  22  25
ATOM     25  O   UNL     1      32.385 -23.740 -15.556  0.00  0.00    -0.472 OA
BRANCH  25  26
ATOM     26  C   UNL     1      31.183 -23.078 -15.165  0.00  0.00    +0.221 C 
ATOM     27  C   UNL     1      31.524 -22.098 -14.048  0.00  0.00    +0.055 C 
ATOM     28  C   UNL     1      30.608 -22.379 -16.394  0.00  0.00    +0.055 C 
BRANCH  26  30
ATOM     29  O   UNL     1      29.061 -24.252 -14.945  0.00  0.00    -0.246 OA
ATOM     30  C   UNL     1      30.253 -24.178 -14.671  0.00  0.00    +0.350 C 
BRANCH  30  31
ATOM     31  O   UNL     1      30.872 -25.093 -13.881  0.00  0.00    -0.478 OA
ATOM     32  H   UNL     1      30.401 -25.507 -13.186  0.00  0.00    +0.295 HD
ENDBRANCH  30  31
ENDBRANCH  26  30
ENDBRANCH  25  26
ENDBRANCH  22  25
ENDBRANCH  18  19
ENDBRANCH   1  18
TORSDOF 10
ENDMDL
MODEL 8
REMARK VINA RESULT:     -11.5      3.577      9.927
REMARK  Name = 9909438
REMARK  10 active torsions:
REMARK  status: ('A' for Active; 'I' for Inactive)
REMARK    1  A    between atoms: C_1  and  C_2
REMARK    2  A    between atoms: C_1  and  C_18
REMARK    3  A    between atoms: C_2  and  C_7
REMARK    4  A    between atoms: N_4  and  C_10
REMARK    5  A    between atoms: C_10  and  C_11
REMARK    6  A    between atoms: C_18  and  C_19
REMARK    7  A    between atoms: C_22  and  O_25
REMARK    8  A    between atoms: O_25  and  C_26
REMARK    9  A    between atoms: C_26  and  C_30
REMARK   10  A    between atoms: C_30  and  O_31
REMARK                            x       y       z     vdW  Elec       q    Type
REMARK                         _______ _______ _______ _____ _____    ______ ____
ROOT
ATOM      1  C   UNL     1      36.526 -21.596 -17.260  0.00  0.00    +0.014 C 
ENDROOT
BRANCH   1   2
ATOM      2  C   UNL     1      36.572 -21.558 -15.735  0.00  0.00    +0.078 C 
BRANCH   2   7
ATOM      3  O   UNL     1      34.928 -25.821 -14.544  0.00  0.00    -0.191 OA
ATOM      4  N   UNL     1      34.253 -23.669 -13.974  0.00  0.00    -0.151 N 
ATOM      5  N   UNL     1      34.706 -22.432 -14.314  0.00  0.00    -0.229 N 
ATOM      6  N   UNL     1      36.014 -23.931 -15.359  0.00  0.00    -0.308 NA
ATOM      7  C   UNL     1      35.759 -22.661 -15.146  0.00  0.00    +0.187 C 
ATOM      8  C   UNL     1      35.046 -24.605 -14.614  0.00  0.00    +0.286 C 
ATOM      9  H   UNL     1      34.350 -21.561 -14.023  0.00  0.00    +0.173 HD
BRANCH   4  10
ATOM     10  C   UNL     1      33.124 -23.829 -13.100  0.00  0.00    +0.152 C 
BRANCH  10  11
ATOM     11  C   UNL     1      31.826 -23.838 -13.855  0.00  0.00    +0.000 C 
ATOM     12  C   UNL     1      30.843 -24.760 -13.516  0.00  0.00    -0.003 C 
ATOM     13  C   UNL     1      31.622 -22.927 -14.884  0.00  0.00    -0.003 C 
ATOM     14  C   UNL     1      29.423 -23.858 -15.251  0.00  0.00    -0.022 C 
ATOM     15  C   UNL     1      29.636 -24.769 -14.217  0.00  0.00    -0.005 C 
ATOM     16  C   UNL     1      30.416 -22.937 -15.584  0.00  0.00    -0.005 C 
ATOM     17  C   UNL     1      28.134 -23.868 -16.000  0.00  0.00    +0.031 C 
ENDBRANCH  10  11
ENDBRANCH   4  10
ENDBRANCH   2   7
ENDBRANCH   1   2
BRANCH   1  18
ATOM     18  C   UNL     1      35.113 -21.849 -17.797  0.00  0.00    +0.027 C 
BRANCH  18  19
ATOM     19  C   UNL     1      34.802 -20.968 -18.980  0.00  0.00    -0.022 C 
ATOM     20  C   UNL     1      33.483 -20.799 -19.374  0.00  0.00    -0.001 C 
ATOM     21  C   UNL     1      35.839 -20.341 -19.653  0.00  0.00    -0.001 C 
ATOM     22  C   UNL     1      34.228 -19.345 -21.154  0.00  0.00    +0.139 C 
ATOM     23  C   UNL     1      33.194 -19.983 -20.468  0.00  0.00    +0.037 C 
ATOM     24  C   UNL     1      35.550 -19.525 -20.748  0.00  0.00    +0.037 C 
BRANCH  22  25
ATOM     25  O   UNL     1      33.947 -18.550 -22.222  0.00  0.00    -0.472 OA
BRANCH  25  26
ATOM     26  C   UNL     1      34.741 -17.375 -22.384  0.00  0.00    +0.221 C 
ATOM     27  C   UNL     1      34.442 -16.439 -21.217  0.00  0.00    +0.055 C 
ATOM     28  C   UNL     1      36.207 -17.798 -22.426  0.00  0.00    +0.055 C 
BRANCH  26  30
ATOM     29  O   UNL     1      33.638 -17.349 -24.554  0.00  0.00    -0.246 OA
ATOM     30  C   UNL     1      34.305 -16.765 -23.709  0.00  0.00    +0.350 C 
BRANCH  30  31
ATOM     31  O   UNL     1      34.728 -15.485 -23.877  0.00  0.00    -0.478 OA
ATOM     32  H   UNL     1      35.341 -15.280 -24.555  0.00  0.00    +0.295 HD
ENDBRANCH  30  31
ENDBRANCH  26  30
ENDBRANCH  25  26
ENDBRANCH  22  25
ENDBRANCH  18  19
ENDBRANCH   1  18
TORSDOF 10
ENDMDL
MODEL 9
REMARK VINA RESULT:     -11.3      4.130     10.355
REMARK  Name = 9909438
REMARK  10 active torsions:
REMARK  status: ('A' for Active; 'I' for Inactive)
REMARK    1  A    between atoms: C_1  and  C_2
REMARK    2  A    between atoms: C_1  and  C_18
REMARK    3  A    between atoms: C_2  and  C_7
REMARK    4  A    between atoms: N_4  and  C_10
REMARK    5  A    between atoms: C_10  and  C_11
REMARK    6  A    between atoms: C_18  and  C_19
REMARK    7  A    between atoms: C_22  and  O_25
REMARK    8  A    between atoms: O_25  and  C_26
REMARK    9  A    between atoms: C_26  and  C_30
REMARK   10  A    between atoms: C_30  and  O_31
REMARK                            x       y       z     vdW  Elec       q    Type
REMARK                         _______ _______ _______ _____ _____    ______ ____
ROOT
ATOM      1  C   UNL     1      33.021 -23.044 -17.629  0.00  0.00    +0.014 C 
ENDROOT
BRANCH   1   2
ATOM      2  C   UNL     1      31.949 -22.554 -16.660  0.00  0.00    +0.078 C 
BRANCH   2   7
ATOM      3  O   UNL     1      31.300 -24.848 -12.584  0.00  0.00    -0.191 OA
ATOM      4  N   UNL     1      33.119 -23.686 -13.454  0.00  0.00    -0.151 N 
ATOM      5  N   UNL     1      33.321 -23.011 -14.618  0.00  0.00    -0.229 N 
ATOM      6  N   UNL     1      31.227 -23.826 -14.675  0.00  0.00    -0.308 NA
ATOM      7  C   UNL     1      32.149 -23.132 -15.301  0.00  0.00    +0.187 C 
ATOM      8  C   UNL     1      31.830 -24.190 -13.470  0.00  0.00    +0.286 C 
ATOM      9  H   UNL     1      34.136 -22.538 -14.904  0.00  0.00    +0.173 HD
BRANCH   4  10
ATOM     10  C   UNL     1      34.150 -23.768 -12.458  0.00  0.00    +0.152 C 
BRANCH  10  11
ATOM     11  C   UNL     1      35.484 -24.107 -13.057  0.00  0.00    +0.000 C 
ATOM     12  C   UNL     1      36.641 -23.572 -12.504  0.00  0.00    -0.003 C 
ATOM     13  C   UNL     1      35.549 -24.952 -14.159  0.00  0.00    -0.003 C 
ATOM     14  C   UNL     1      37.954 -24.734 -14.166  0.00  0.00    -0.022 C 
ATOM     15  C   UNL     1      37.882 -23.887 -13.061  0.00  0.00    -0.005 C 
ATOM     16  C   UNL     1      36.788 -25.267 -14.715  0.00  0.00    -0.005 C 
ATOM     17  C   UNL     1      39.280 -25.070 -14.761  0.00  0.00    +0.031 C 
ENDBRANCH  10  11
ENDBRANCH   4  10
ENDBRANCH   2   7
ENDBRANCH   1   2
BRANCH   1  18
ATOM     18  C   UNL     1      34.245 -22.122 -17.663  0.00  0.00    +0.027 C 
BRANCH  18  19
ATOM     19  C   UNL     1      34.227 -21.219 -18.870  0.00  0.00    -0.022 C 
ATOM     20  C   UNL     1      33.013 -20.755 -19.355  0.00  0.00    -0.001 C 
ATOM     21  C   UNL     1      35.423 -20.867 -19.476  0.00  0.00    -0.001 C 
ATOM     22  C   UNL     1      34.192 -19.557 -21.090  0.00  0.00    +0.139 C 
ATOM     23  C   UNL     1      32.995 -19.919 -20.471  0.00  0.00    +0.037 C 
ATOM     24  C   UNL     1      35.406 -20.032 -20.593  0.00  0.00    +0.037 C 
BRANCH  22  25
ATOM     25  O   UNL     1      34.176 -18.742 -22.180  0.00  0.00    -0.472 OA
BRANCH  25  26
ATOM     26  C   UNL     1      34.946 -17.544 -22.107  0.00  0.00    +0.221 C 
ATOM     27  C   UNL     1      34.567 -16.817 -20.820  0.00  0.00    +0.055 C 
ATOM     28  C   UNL     1      36.422 -17.928 -22.141  0.00  0.00    +0.055 C 
BRANCH  26  30
ATOM     29  O   UNL     1      33.872 -17.155 -24.257  0.00  0.00    -0.246 OA
ATOM     30  C   UNL     1      34.558 -16.731 -23.335  0.00  0.00    +0.350 C 
BRANCH  30  31
ATOM     31  O   UNL     1      35.049 -15.465 -23.320  0.00  0.00    -0.478 OA
ATOM     32  H   UNL     1      35.975 -15.322 -23.321  0.00  0.00    +0.295 HD
ENDBRANCH  30  31
ENDBRANCH  26  30
ENDBRANCH  25  26
ENDBRANCH  22  25
ENDBRANCH  18  19
ENDBRANCH   1  18
TORSDOF 10
ENDMDL
