MODEL 1
REMARK VINA RESULT:     -14.1      0.000      0.000
REMARK  Name = 5289110
REMARK  6 active torsions:
REMARK  status: ('A' for Active; 'I' for Inactive)
REMARK    1  A    between atoms: C_3  and  C_9
REMARK    2  A    between atoms: C_4  and  C_22
REMARK    3  A    between atoms: N_8  and  C_11
REMARK    4  A    between atoms: C_11  and  C_13
REMARK    5  A    between atoms: N_21  and  C_24
REMARK    6  A    between atoms: C_24  and  C_26
REMARK                            x       y       z     vdW  Elec       q    Type
REMARK                         _______ _______ _______ _____ _____    ______ ____
ROOT
ATOM      1  N   UNL     1      33.024 -17.093 -24.985  0.00  0.00    -0.244 NA
ATOM      2  N   UNL     1      33.876 -18.691 -23.395  0.00  0.00    -0.244 NA
ATOM      3  C   UNL     1      33.536 -16.111 -24.215  0.00  0.00    +0.115 C 
ATOM      4  C   UNL     1      34.346 -17.651 -22.702  0.00  0.00    +0.115 C 
ATOM      5  C   UNL     1      34.221 -16.336 -23.038  0.00  0.00    +0.100 C 
ATOM      6  C   UNL     1      33.227 -18.341 -24.522  0.00  0.00    +0.250 C 
ENDROOT
BRANCH   3   9
ATOM      7  O   UNL     1      33.160 -14.533 -25.909  0.00  0.00    -0.269 OA
ATOM      8  N   UNL     1      33.306 -13.736 -23.737  0.00  0.00    -0.296 N 
ATOM      9  C   UNL     1      33.329 -14.756 -24.697  0.00  0.00    +0.260 C 
ATOM     10  H   UNL     1      33.447 -13.982 -22.794  0.00  0.00    +0.150 HD
BRANCH   8  11
ATOM     11  C   UNL     1      33.089 -12.343 -24.054  0.00  0.00    +0.117 C 
BRANCH  11  13
ATOM     12  F   UNL     1      30.457  -9.637 -19.888  0.00  0.00    -0.205 F 
ATOM     13  C   UNL     1      32.385 -11.618 -22.943  0.00  0.00    -0.003 C 
ATOM     14  C   UNL     1      32.113 -10.261 -23.071  0.00  0.00    -0.005 C 
ATOM     15  C   UNL     1      31.459  -9.588 -22.039  0.00  0.00    +0.005 C 
ATOM     16  C   UNL     1      32.014 -12.311 -21.796  0.00  0.00    -0.000 C 
ATOM     17  C   UNL     1      31.083 -10.276 -20.885  0.00  0.00    +0.136 C 
ATOM     18  C   UNL     1      31.360 -11.638 -20.765  0.00  0.00    +0.029 C 
ATOM     19  C   UNL     1      31.163  -8.132 -22.172  0.00  0.00    +0.033 C 
ENDBRANCH  11  13
ENDBRANCH   8  11
ENDBRANCH   3   9
BRANCH   4  22
ATOM     20  O   UNL     1      35.319 -17.140 -20.630  0.00  0.00    -0.269 OA
ATOM     21  N   UNL     1      35.377 -19.359 -21.301  0.00  0.00    -0.296 N 
ATOM     22  C   UNL     1      35.064 -18.016 -21.453  0.00  0.00    +0.260 C 
ATOM     23  H   UNL     1      35.130 -19.987 -22.018  0.00  0.00    +0.150 HD
BRANCH  21  24
ATOM     24  C   UNL     1      36.050 -19.872 -20.135  0.00  0.00    +0.117 C 
BRANCH  24  26
ATOM     25  F   UNL     1      32.653 -22.992 -16.921  0.00  0.00    -0.205 F 
ATOM     26  C   UNL     1      35.151 -20.700 -19.279  0.00  0.00    -0.003 C 
ATOM     27  C   UNL     1      35.633 -21.259 -18.096  0.00  0.00    -0.005 C 
ATOM     28  C   UNL     1      34.792 -22.033 -17.297  0.00  0.00    +0.005 C 
ATOM     29  C   UNL     1      33.827 -20.915 -19.663  0.00  0.00    -0.000 C 
ATOM     30  C   UNL     1      33.469 -22.249 -17.682  0.00  0.00    +0.136 C 
ATOM     31  C   UNL     1      32.987 -21.690 -18.865  0.00  0.00    +0.029 C 
ATOM     32  C   UNL     1      35.311 -22.629 -16.032  0.00  0.00    +0.033 C 
ENDBRANCH  24  26
ENDBRANCH  21  24
ENDBRANCH   4  22
TORSDOF 6
ENDMDL
MODEL 2
REMARK VINA RESULT:     -14.1      0.055      9.829
REMARK  Name = 5289110
REMARK  6 active torsions:
REMARK  status: ('A' for Active; 'I' for Inactive)
REMARK    1  A    between atoms: C_3  and  C_9
REMARK    2  A    between atoms: C_4  and  C_22
REMARK    3  A    between atoms: N_8  and  C_11
REMARK    4  A    between atoms: C_11  and  C_13
REMARK    5  A    between atoms: N_21  and  C_24
REMARK    6  A    between atoms: C_24  and  C_26
REMARK                            x       y       z     vdW  Elec       q    Type
REMARK                         _______ _______ _______ _____ _____    ______ ____
ROOT
ATOM      1  N   UNL     1      33.874 -18.676 -23.432  0.00  0.00    -0.244 NA
ATOM      2  N   UNL     1      33.041 -17.062 -25.016  0.00  0.00    -0.244 NA
ATOM      3  C   UNL     1      34.348 -17.651 -22.694  0.00  0.00    +0.115 C 
ATOM      4  C   UNL     1      33.545 -16.118 -24.218  0.00  0.00    +0.115 C 
ATOM      5  C   UNL     1      34.210 -16.323 -23.046  0.00  0.00    +0.100 C 
ATOM      6  C   UNL     1      33.241 -18.315 -24.565  0.00  0.00    +0.250 C 
ENDROOT
BRANCH   3   9
ATOM      7  O   UNL     1      35.297 -17.160 -20.607  0.00  0.00    -0.269 OA
ATOM      8  N   UNL     1      35.360 -19.371 -21.302  0.00  0.00    -0.296 N 
ATOM      9  C   UNL     1      35.035 -18.019 -21.468  0.00  0.00    +0.260 C 
ATOM     10  H   UNL     1      35.124 -19.998 -22.023  0.00  0.00    +0.150 HD
BRANCH   8  11
ATOM     11  C   UNL     1      36.022 -19.897 -20.130  0.00  0.00    +0.117 C 
BRANCH  11  13
ATOM     12  F   UNL     1      32.537 -22.965 -16.959  0.00  0.00    -0.205 F 
ATOM     13  C   UNL     1      35.093 -20.716 -19.280  0.00  0.00    -0.003 C 
ATOM     14  C   UNL     1      35.558 -21.280 -18.098  0.00  0.00    -0.005 C 
ATOM     15  C   UNL     1      34.696 -22.041 -17.309  0.00  0.00    +0.005 C 
ATOM     16  C   UNL     1      33.777 -20.904 -19.686  0.00  0.00    -0.000 C 
ATOM     17  C   UNL     1      33.373 -22.234 -17.710  0.00  0.00    +0.136 C 
ATOM     18  C   UNL     1      32.914 -21.665 -18.897  0.00  0.00    +0.029 C 
ATOM     19  C   UNL     1      35.190 -22.646 -16.039  0.00  0.00    +0.033 C 
ENDBRANCH  11  13
ENDBRANCH   8  11
ENDBRANCH   3   9
BRANCH   4  22
ATOM     20  O   UNL     1      33.163 -14.528 -25.900  0.00  0.00    -0.269 OA
ATOM     21  N   UNL     1      33.332 -13.740 -23.725  0.00  0.00    -0.296 N 
ATOM     22  C   UNL     1      33.337 -14.727 -24.700  0.00  0.00    +0.260 C 
ATOM     23  H   UNL     1      33.481 -14.000 -22.787  0.00  0.00    +0.150 HD
BRANCH  21  24
ATOM     24  C   UNL     1      33.118 -12.348 -24.032  0.00  0.00    +0.117 C 
BRANCH  24  26
ATOM     25  F   UNL     1      30.436  -9.649 -19.894  0.00  0.00    -0.205 F 
ATOM     26  C   UNL     1      32.406 -11.629 -22.935  0.00  0.00    -0.003 C 
ATOM     27  C   UNL     1      32.146 -10.264 -23.050  0.00  0.00    -0.005 C 
ATOM     28  C   UNL     1      31.481  -9.592 -22.024  0.00  0.00    +0.005 C 
ATOM     29  C   UNL     1      32.000 -12.323 -21.796  0.00  0.00    -0.000 C 
ATOM     30  C   UNL     1      31.075 -10.286 -20.885  0.00  0.00    +0.136 C 
ATOM     31  C   UNL     1      31.335 -11.651 -20.770  0.00  0.00    +0.029 C 
ATOM     32  C   UNL     1      31.204  -8.131 -22.151  0.00  0.00    +0.033 C 
ENDBRANCH  24  26
ENDBRANCH  21  24
ENDBRANCH   4  22
TORSDOF 6
ENDMDL
MODEL 3
REMARK VINA RESULT:     -13.4      2.456      3.687
REMARK  Name = 5289110
REMARK  6 active torsions:
REMARK  status: ('A' for Active; 'I' for Inactive)
REMARK    1  A    between atoms: C_3  and  C_9
REMARK    2  A    between atoms: C_4  and  C_22
REMARK    3  A    between atoms: N_8  and  C_11
REMARK    4  A    between atoms: C_11  and  C_13
REMARK    5  A    between atoms: N_21  and  C_24
REMARK    6  A    between atoms: C_24  and  C_26
REMARK                            x       y       z     vdW  Elec       q    Type
REMARK                         _______ _______ _______ _____ _____    ______ ____
ROOT
ATOM      1  N   UNL     1      32.518 -13.117 -23.661  0.00  0.00    -0.244 NA
ATOM      2  N   UNL     1      33.811 -15.150 -23.644  0.00  0.00    -0.244 NA
ATOM      3  C   UNL     1      32.664 -13.056 -22.321  0.00  0.00    +0.115 C 
ATOM      4  C   UNL     1      33.901 -15.003 -22.320  0.00  0.00    +0.115 C 
ATOM      5  C   UNL     1      33.361 -13.992 -21.582  0.00  0.00    +0.100 C 
ATOM      6  C   UNL     1      33.108 -14.175 -24.249  0.00  0.00    +0.250 C 
ENDROOT
BRANCH   3   9
ATOM      7  O   UNL     1      31.695 -11.990 -20.471  0.00  0.00    -0.269 OA
ATOM      8  N   UNL     1      31.857 -10.764 -22.432  0.00  0.00    -0.296 N 
ATOM      9  C   UNL     1      32.035 -11.923 -21.666  0.00  0.00    +0.260 C 
ATOM     10  H   UNL     1      32.149 -10.778 -23.372  0.00  0.00    +0.150 HD
BRANCH   8  11
ATOM     11  C   UNL     1      31.269  -9.548 -21.919  0.00  0.00    +0.117 C 
BRANCH  11  13
ATOM     12  F   UNL     1      34.210  -5.002 -23.433  0.00  0.00    -0.205 F 
ATOM     13  C   UNL     1      32.053  -8.332 -22.321  0.00  0.00    -0.003 C 
ATOM     14  C   UNL     1      31.625  -7.072 -21.918  0.00  0.00    -0.005 C 
ATOM     15  C   UNL     1      32.353  -5.943 -22.291  0.00  0.00    +0.005 C 
ATOM     16  C   UNL     1      33.199  -8.478 -23.095  0.00  0.00    -0.000 C 
ATOM     17  C   UNL     1      33.505  -6.081 -23.068  0.00  0.00    +0.136 C 
ATOM     18  C   UNL     1      33.927  -7.348 -23.468  0.00  0.00    +0.029 C 
ATOM     19  C   UNL     1      31.899  -4.589 -21.859  0.00  0.00    +0.033 C 
ENDBRANCH  11  13
ENDBRANCH   8  11
ENDBRANCH   3   9
BRANCH   4  22
ATOM     20  O   UNL     1      34.679 -16.110 -20.404  0.00  0.00    -0.269 OA
ATOM     21  N   UNL     1      35.324 -16.977 -22.455  0.00  0.00    -0.296 N 
ATOM     22  C   UNL     1      34.673 -16.070 -21.632  0.00  0.00    +0.260 C 
ATOM     23  H   UNL     1      35.260 -16.862 -23.431  0.00  0.00    +0.150 HD
BRANCH  21  24
ATOM     24  C   UNL     1      36.092 -18.082 -21.938  0.00  0.00    +0.117 C 
BRANCH  24  26
ATOM     25  F   UNL     1      32.949 -21.625 -18.911  0.00  0.00    -0.205 F 
ATOM     26  C   UNL     1      35.261 -19.023 -21.133  0.00  0.00    -0.003 C 
ATOM     27  C   UNL     1      35.845 -19.771 -20.111  0.00  0.00    -0.005 C 
ATOM     28  C   UNL     1      35.067 -20.651 -19.359  0.00  0.00    +0.005 C 
ATOM     29  C   UNL     1      33.898 -19.154 -21.401  0.00  0.00    -0.000 C 
ATOM     30  C   UNL     1      33.705 -20.782 -19.628  0.00  0.00    +0.136 C 
ATOM     31  C   UNL     1      33.120 -20.034 -20.650  0.00  0.00    +0.029 C 
ATOM     32  C   UNL     1      35.695 -21.450 -18.267  0.00  0.00    +0.033 C 
ENDBRANCH  24  26
ENDBRANCH  21  24
ENDBRANCH   4  22
TORSDOF 6
ENDMDL
MODEL 4
REMARK VINA RESULT:     -13.3      2.220     10.652
REMARK  Name = 5289110
REMARK  6 active torsions:
REMARK  status: ('A' for Active; 'I' for Inactive)
REMARK    1  A    between atoms: C_3  and  C_9
REMARK    2  A    between atoms: C_4  and  C_22
REMARK    3  A    between atoms: N_8  and  C_11
REMARK    4  A    between atoms: C_11  and  C_13
REMARK    5  A    between atoms: N_21  and  C_24
REMARK    6  A    between atoms: C_24  and  C_26
REMARK                            x       y       z     vdW  Elec       q    Type
REMARK                         _______ _______ _______ _____ _____    ______ ____
ROOT
ATOM      1  N   UNL     1      34.021 -15.218 -23.598  0.00  0.00    -0.244 NA
ATOM      2  N   UNL     1      32.697 -13.208 -23.503  0.00  0.00    -0.244 NA
ATOM      3  C   UNL     1      34.037 -15.228 -22.250  0.00  0.00    +0.115 C 
ATOM      4  C   UNL     1      32.769 -13.303 -22.173  0.00  0.00    +0.115 C 
ATOM      5  C   UNL     1      33.414 -14.276 -21.468  0.00  0.00    +0.100 C 
ATOM      6  C   UNL     1      33.343 -14.195 -24.151  0.00  0.00    +0.250 C 
ENDROOT
BRANCH   3   9
ATOM      7  O   UNL     1      34.849 -16.411 -20.395  0.00  0.00    -0.269 OA
ATOM      8  N   UNL     1      35.332 -17.274 -22.491  0.00  0.00    -0.296 N 
ATOM      9  C   UNL     1      34.763 -16.324 -21.633  0.00  0.00    +0.260 C 
ATOM     10  H   UNL     1      35.226 -17.145 -23.461  0.00  0.00    +0.150 HD
BRANCH   8  11
ATOM     11  C   UNL     1      36.064 -18.432 -22.032  0.00  0.00    +0.117 C 
BRANCH  11  13
ATOM     12  F   UNL     1      32.985 -21.617 -18.569  0.00  0.00    -0.205 F 
ATOM     13  C   UNL     1      35.244 -19.283 -21.104  0.00  0.00    -0.003 C 
ATOM     14  C   UNL     1      35.864 -19.958 -20.061  0.00  0.00    -0.005 C 
ATOM     15  C   UNL     1      35.103 -20.749 -19.200  0.00  0.00    +0.005 C 
ATOM     16  C   UNL     1      33.871 -19.387 -21.301  0.00  0.00    -0.000 C 
ATOM     17  C   UNL     1      33.725 -20.859 -19.390  0.00  0.00    +0.136 C 
ATOM     18  C   UNL     1      33.110 -20.177 -20.440  0.00  0.00    +0.029 C 
ATOM     19  C   UNL     1      35.764 -21.474 -18.077  0.00  0.00    +0.033 C 
ENDBRANCH  11  13
ENDBRANCH   8  11
ENDBRANCH   3   9
BRANCH   4  22
ATOM     20  O   UNL     1      32.064 -12.232 -20.209  0.00  0.00    -0.269 OA
ATOM     21  N   UNL     1      31.461 -11.246 -22.219  0.00  0.00    -0.296 N 
ATOM     22  C   UNL     1      32.063 -12.222 -21.437  0.00  0.00    +0.260 C 
ATOM     23  H   UNL     1      31.515 -11.325 -23.199  0.00  0.00    +0.150 HD
BRANCH  21  24
ATOM     24  C   UNL     1      30.760 -10.122 -21.654  0.00  0.00    +0.117 C 
BRANCH  24  26
ATOM     25  F   UNL     1      33.453  -5.269 -22.547  0.00  0.00    -0.205 F 
ATOM     26  C   UNL     1      31.474  -8.833 -21.888  0.00  0.00    -0.003 C 
ATOM     27  C   UNL     1      31.341  -7.785 -20.977  0.00  0.00    -0.005 C 
ATOM     28  C   UNL     1      32.008  -6.580 -21.197  0.00  0.00    +0.005 C 
ATOM     29  C   UNL     1      32.275  -8.675 -23.019  0.00  0.00    -0.000 C 
ATOM     30  C   UNL     1      32.808  -6.423 -22.328  0.00  0.00    +0.136 C 
ATOM     31  C   UNL     1      32.942  -7.470 -23.239  0.00  0.00    +0.029 C 
ATOM     32  C   UNL     1      31.863  -5.462 -20.219  0.00  0.00    +0.033 C 
ENDBRANCH  24  26
ENDBRANCH  21  24
ENDBRANCH   4  22
TORSDOF 6
ENDMDL
MODEL 5
REMARK VINA RESULT:     -13.2      2.476      3.940
REMARK  Name = 5289110
REMARK  6 active torsions:
REMARK  status: ('A' for Active; 'I' for Inactive)
REMARK    1  A    between atoms: C_3  and  C_9
REMARK    2  A    between atoms: C_4  and  C_22
REMARK    3  A    between atoms: N_8  and  C_11
REMARK    4  A    between atoms: C_11  and  C_13
REMARK    5  A    between atoms: N_21  and  C_24
REMARK    6  A    between atoms: C_24  and  C_26
REMARK                            x       y       z     vdW  Elec       q    Type
REMARK                         _______ _______ _______ _____ _____    ______ ____
ROOT
ATOM      1  N   UNL     1      36.051 -18.342 -20.907  0.00  0.00    -0.244 NA
ATOM      2  N   UNL     1      35.482 -20.221 -19.509  0.00  0.00    -0.244 NA
ATOM      3  C   UNL     1      34.797 -18.379 -21.403  0.00  0.00    +0.115 C 
ATOM      4  C   UNL     1      34.266 -20.177 -20.060  0.00  0.00    +0.115 C 
ATOM      5  C   UNL     1      33.842 -19.294 -21.008  0.00  0.00    +0.100 C 
ATOM      6  C   UNL     1      36.322 -19.278 -19.978  0.00  0.00    +0.250 C 
ENDROOT
BRANCH   3   9
ATOM      7  O   UNL     1      34.008 -17.710 -23.508  0.00  0.00    -0.269 OA
ATOM      8  N   UNL     1      34.721 -16.040 -22.067  0.00  0.00    -0.296 N 
ATOM      9  C   UNL     1      34.484 -17.377 -22.407  0.00  0.00    +0.260 C 
ATOM     10  H   UNL     1      35.099 -15.846 -21.179  0.00  0.00    +0.150 HD
BRANCH   8  11
ATOM     11  C   UNL     1      34.440 -14.928 -22.947  0.00  0.00    +0.117 C 
BRANCH  11  13
ATOM     12  F   UNL     1      31.085 -11.130 -20.512  0.00  0.00    -0.205 F 
ATOM     13  C   UNL     1      33.544 -13.912 -22.299  0.00  0.00    -0.003 C 
ATOM     14  C   UNL     1      33.267 -12.719 -22.957  0.00  0.00    -0.005 C 
ATOM     15  C   UNL     1      32.434 -11.776 -22.355  0.00  0.00    +0.005 C 
ATOM     16  C   UNL     1      33.000 -14.174 -21.046  0.00  0.00    -0.000 C 
ATOM     17  C   UNL     1      31.885 -12.031 -21.098  0.00  0.00    +0.136 C 
ATOM     18  C   UNL     1      32.168 -13.230 -20.445  0.00  0.00    +0.029 C 
ATOM     19  C   UNL     1      32.133 -10.495 -23.058  0.00  0.00    +0.033 C 
ENDBRANCH  11  13
ENDBRANCH   8  11
ENDBRANCH   3   9
BRANCH   4  22
ATOM     20  O   UNL     1      32.142 -21.157 -19.889  0.00  0.00    -0.269 OA
ATOM     21  N   UNL     1      33.875 -22.196 -18.750  0.00  0.00    -0.296 N 
ATOM     22  C   UNL     1      33.324 -21.211 -19.557  0.00  0.00    +0.260 C 
ATOM     23  H   UNL     1      34.836 -22.153 -18.540  0.00  0.00    +0.150 HD
BRANCH  21  24
ATOM     24  C   UNL     1      33.096 -23.279 -18.206  0.00  0.00    +0.117 C 
BRANCH  24  26
ATOM     25  F   UNL     1      31.480 -22.295 -12.913  0.00  0.00    -0.205 F 
ATOM     26  C   UNL     1      32.664 -23.017 -16.802  0.00  0.00    -0.003 C 
ATOM     27  C   UNL     1      31.314 -22.822 -16.513  0.00  0.00    -0.005 C 
ATOM     28  C   UNL     1      30.911 -22.577 -15.200  0.00  0.00    +0.005 C 
ATOM     29  C   UNL     1      33.610 -22.970 -15.779  0.00  0.00    -0.000 C 
ATOM     30  C   UNL     1      31.858 -22.529 -14.177  0.00  0.00    +0.136 C 
ATOM     31  C   UNL     1      33.208 -22.725 -14.467  0.00  0.00    +0.029 C 
ATOM     32  C   UNL     1      29.465 -22.369 -14.893  0.00  0.00    +0.033 C 
ENDBRANCH  24  26
ENDBRANCH  21  24
ENDBRANCH   4  22
TORSDOF 6
ENDMDL
MODEL 6
REMARK VINA RESULT:     -13.1      2.009     10.308
REMARK  Name = 5289110
REMARK  6 active torsions:
REMARK  status: ('A' for Active; 'I' for Inactive)
REMARK    1  A    between atoms: C_3  and  C_9
REMARK    2  A    between atoms: C_4  and  C_22
REMARK    3  A    between atoms: N_8  and  C_11
REMARK    4  A    between atoms: C_11  and  C_13
REMARK    5  A    between atoms: N_21  and  C_24
REMARK    6  A    between atoms: C_24  and  C_26
REMARK                            x       y       z     vdW  Elec       q    Type
REMARK                         _______ _______ _______ _____ _____    ______ ____
ROOT
ATOM      1  N   UNL     1      35.579 -19.778 -20.148  0.00  0.00    -0.244 NA
ATOM      2  N   UNL     1      36.120 -17.955 -21.628  0.00  0.00    -0.244 NA
ATOM      3  C   UNL     1      34.281 -19.609 -20.474  0.00  0.00    +0.115 C 
ATOM      4  C   UNL     1      34.813 -17.865 -21.887  0.00  0.00    +0.115 C 
ATOM      5  C   UNL     1      33.831 -18.648 -21.357  0.00  0.00    +0.100 C 
ATOM      6  C   UNL     1      36.432 -18.929 -20.752  0.00  0.00    +0.250 C 
ENDROOT
BRANCH   3   9
ATOM      7  O   UNL     1      32.141 -20.511 -20.151  0.00  0.00    -0.269 OA
ATOM      8  N   UNL     1      33.862 -21.392 -18.873  0.00  0.00    -0.296 N 
ATOM      9  C   UNL     1      33.344 -20.515 -19.834  0.00  0.00    +0.260 C 
ATOM     10  H   UNL     1      34.824 -21.342 -18.669  0.00  0.00    +0.150 HD
BRANCH   8  11
ATOM     11  C   UNL     1      33.064 -22.367 -18.165  0.00  0.00    +0.117 C 
BRANCH  11  13
ATOM     12  F   UNL     1      34.935 -23.234 -12.935  0.00  0.00    -0.205 F 
ATOM     13  C   UNL     1      33.566 -22.597 -16.769  0.00  0.00    -0.003 C 
ATOM     14  C   UNL     1      34.906 -22.375 -16.474  0.00  0.00    -0.005 C 
ATOM     15  C   UNL     1      35.373 -22.589 -15.177  0.00  0.00    +0.005 C 
ATOM     16  C   UNL     1      32.686 -23.031 -15.784  0.00  0.00    -0.000 C 
ATOM     17  C   UNL     1      34.495 -23.025 -14.183  0.00  0.00    +0.136 C 
ATOM     18  C   UNL     1      33.152 -23.245 -14.487  0.00  0.00    +0.029 C 
ATOM     19  C   UNL     1      36.810 -22.351 -14.855  0.00  0.00    +0.033 C 
ENDBRANCH  11  13
ENDBRANCH   8  11
ENDBRANCH   3   9
BRANCH   4  22
ATOM     20  O   UNL     1      34.093 -17.104 -23.985  0.00  0.00    -0.269 OA
ATOM     21  N   UNL     1      34.516 -15.495 -22.370  0.00  0.00    -0.296 N 
ATOM     22  C   UNL     1      34.448 -16.795 -22.850  0.00  0.00    +0.260 C 
ATOM     23  H   UNL     1      34.812 -15.348 -21.443  0.00  0.00    +0.150 HD
BRANCH  21  24
ATOM     24  C   UNL     1      34.169 -14.351 -23.175  0.00  0.00    +0.117 C 
BRANCH  24  26
ATOM     25  F   UNL     1      30.841 -10.748 -20.429  0.00  0.00    -0.205 F 
ATOM     26  C   UNL     1      33.286 -13.393 -22.449  0.00  0.00    -0.003 C 
ATOM     27  C   UNL     1      32.991 -12.151 -23.012  0.00  0.00    -0.005 C 
ATOM     28  C   UNL     1      32.166 -11.255 -22.332  0.00  0.00    +0.005 C 
ATOM     29  C   UNL     1      32.754 -13.739 -21.207  0.00  0.00    -0.000 C 
ATOM     30  C   UNL     1      31.635 -11.602 -21.090  0.00  0.00    +0.136 C 
ATOM     31  C   UNL     1      31.929 -12.844 -20.527  0.00  0.00    +0.029 C 
ATOM     32  C   UNL     1      31.853  -9.928 -22.937  0.00  0.00    +0.033 C 
ENDBRANCH  24  26
ENDBRANCH  21  24
ENDBRANCH   4  22
TORSDOF 6
ENDMDL
MODEL 7
REMARK VINA RESULT:     -13.1      2.024      3.268
REMARK  Name = 5289110
REMARK  6 active torsions:
REMARK  status: ('A' for Active; 'I' for Inactive)
REMARK    1  A    between atoms: C_3  and  C_9
REMARK    2  A    between atoms: C_4  and  C_22
REMARK    3  A    between atoms: N_8  and  C_11
REMARK    4  A    between atoms: C_11  and  C_13
REMARK    5  A    between atoms: N_21  and  C_24
REMARK    6  A    between atoms: C_24  and  C_26
REMARK                            x       y       z     vdW  Elec       q    Type
REMARK                         _______ _______ _______ _____ _____    ______ ____
ROOT
ATOM      1  N   UNL     1      36.120 -18.002 -21.562  0.00  0.00    -0.244 NA
ATOM      2  N   UNL     1      35.558 -19.817 -20.080  0.00  0.00    -0.244 NA
ATOM      3  C   UNL     1      34.810 -17.890 -21.862  0.00  0.00    +0.115 C 
ATOM      4  C   UNL     1      34.286 -19.630 -20.440  0.00  0.00    +0.115 C 
ATOM      5  C   UNL     1      33.827 -18.694 -21.319  0.00  0.00    +0.100 C 
ATOM      6  C   UNL     1      36.419 -18.972 -20.678  0.00  0.00    +0.250 C 
ENDROOT
BRANCH   3   9
ATOM      7  O   UNL     1      34.131 -17.139 -23.977  0.00  0.00    -0.269 OA
ATOM      8  N   UNL     1      34.504 -15.527 -22.353  0.00  0.00    -0.296 N 
ATOM      9  C   UNL     1      34.464 -16.849 -22.814  0.00  0.00    +0.260 C 
ATOM     10  H   UNL     1      34.777 -15.368 -21.421  0.00  0.00    +0.150 HD
BRANCH   8  11
ATOM     11  C   UNL     1      34.167 -14.384 -23.170  0.00  0.00    +0.117 C 
BRANCH  11  13
ATOM     12  F   UNL     1      30.851 -10.762 -20.433  0.00  0.00    -0.205 F 
ATOM     13  C   UNL     1      33.281 -13.415 -22.442  0.00  0.00    -0.003 C 
ATOM     14  C   UNL     1      32.998 -12.179 -23.011  0.00  0.00    -0.005 C 
ATOM     15  C   UNL     1      32.175 -11.279 -22.334  0.00  0.00    +0.005 C 
ATOM     16  C   UNL     1      32.753 -13.763 -21.203  0.00  0.00    -0.000 C 
ATOM     17  C   UNL     1      31.642 -11.621 -21.091  0.00  0.00    +0.136 C 
ATOM     18  C   UNL     1      31.930 -12.863 -20.527  0.00  0.00    +0.029 C 
ATOM     19  C   UNL     1      31.867  -9.952 -22.942  0.00  0.00    +0.033 C 
ENDBRANCH  11  13
ENDBRANCH   8  11
ENDBRANCH   3   9
BRANCH   4  22
ATOM     20  O   UNL     1      32.142 -20.533 -20.145  0.00  0.00    -0.269 OA
ATOM     21  N   UNL     1      33.842 -21.407 -18.831  0.00  0.00    -0.296 N 
ATOM     22  C   UNL     1      33.319 -20.554 -19.793  0.00  0.00    +0.260 C 
ATOM     23  H   UNL     1      34.802 -21.347 -18.618  0.00  0.00    +0.150 HD
BRANCH  21  24
ATOM     24  C   UNL     1      33.037 -22.376 -18.133  0.00  0.00    +0.117 C 
BRANCH  24  26
ATOM     25  F   UNL     1      34.850 -23.301 -12.893  0.00  0.00    -0.205 F 
ATOM     26  C   UNL     1      33.521 -22.621 -16.743  0.00  0.00    -0.003 C 
ATOM     27  C   UNL     1      34.862 -22.409 -16.424  0.00  0.00    -0.005 C 
ATOM     28  C   UNL     1      35.314 -22.638 -15.125  0.00  0.00    +0.005 C 
ATOM     29  C   UNL     1      32.632 -23.060 -15.763  0.00  0.00    -0.000 C 
ATOM     30  C   UNL     1      34.425 -23.078 -14.145  0.00  0.00    +0.136 C 
ATOM     31  C   UNL     1      33.084 -23.290 -14.464  0.00  0.00    +0.029 C 
ATOM     32  C   UNL     1      36.749 -22.411 -14.787  0.00  0.00    +0.033 C 
ENDBRANCH  24  26
ENDBRANCH  21  24
ENDBRANCH   4  22
TORSDOF 6
ENDMDL
MODEL 8
REMARK VINA RESULT:     -12.9      2.132      3.224
REMARK  Name = 5289110
REMARK  6 active torsions:
REMARK  status: ('A' for Active; 'I' for Inactive)
REMARK    1  A    between atoms: C_3  and  C_9
REMARK    2  A    between atoms: C_4  and  C_22
REMARK    3  A    between atoms: N_8  and  C_11
REMARK    4  A    between atoms: C_11  and  C_13
REMARK    5  A    between atoms: N_21  and  C_24
REMARK    6  A    between atoms: C_24  and  C_26
REMARK                            x       y       z     vdW  Elec       q    Type
REMARK                         _______ _______ _______ _____ _____    ______ ____
ROOT
ATOM      1  N   UNL     1      33.390 -12.791 -21.111  0.00  0.00    -0.244 NA
ATOM      2  N   UNL     1      34.157 -15.025 -20.630  0.00  0.00    -0.244 NA
ATOM      3  C   UNL     1      33.402 -13.109 -22.422  0.00  0.00    +0.115 C 
ATOM      4  C   UNL     1      34.136 -15.244 -21.948  0.00  0.00    +0.115 C 
ATOM      5  C   UNL     1      33.773 -14.347 -22.908  0.00  0.00    +0.100 C 
ATOM      6  C   UNL     1      33.774 -13.781 -20.283  0.00  0.00    +0.250 C 
ENDROOT
BRANCH   3   9
ATOM      7  O   UNL     1      33.044 -12.225 -24.564  0.00  0.00    -0.269 OA
ATOM      8  N   UNL     1      32.519 -10.867 -22.760  0.00  0.00    -0.296 N 
ATOM      9  C   UNL     1      32.991 -12.055 -23.333  0.00  0.00    +0.260 C 
ATOM     10  H   UNL     1      32.504 -10.799 -21.778  0.00  0.00    +0.150 HD
BRANCH   8  11
ATOM     11  C   UNL     1      32.053  -9.737 -23.530  0.00  0.00    +0.117 C 
BRANCH  11  13
ATOM     12  F   UNL     1      32.010  -5.008 -20.489  0.00  0.00    -0.205 F 
ATOM     13  C   UNL     1      32.042  -8.472 -22.721  0.00  0.00    -0.003 C 
ATOM     14  C   UNL     1      32.466  -7.281 -23.298  0.00  0.00    -0.005 C 
ATOM     15  C   UNL     1      32.455  -6.106 -22.546  0.00  0.00    +0.005 C 
ATOM     16  C   UNL     1      31.608  -8.505 -21.400  0.00  0.00    -0.000 C 
ATOM     17  C   UNL     1      32.022  -6.131 -21.220  0.00  0.00    +0.136 C 
ATOM     18  C   UNL     1      31.598  -7.330 -20.648  0.00  0.00    +0.029 C 
ATOM     19  C   UNL     1      32.908  -4.825 -23.162  0.00  0.00    +0.033 C 
ENDBRANCH  11  13
ENDBRANCH   8  11
ENDBRANCH   3   9
BRANCH   4  22
ATOM     20  O   UNL     1      34.592 -16.897 -23.547  0.00  0.00    -0.269 OA
ATOM     21  N   UNL     1      34.907 -17.469 -21.321  0.00  0.00    -0.296 N 
ATOM     22  C   UNL     1      34.556 -16.610 -22.352  0.00  0.00    +0.260 C 
ATOM     23  H   UNL     1      34.846 -17.146 -20.393  0.00  0.00    +0.150 HD
BRANCH  21  24
ATOM     24  C   UNL     1      35.359 -18.818 -21.555  0.00  0.00    +0.117 C 
BRANCH  24  26
ATOM     25  F   UNL     1      33.578 -22.382 -17.589  0.00  0.00    -0.205 F 
ATOM     26  C   UNL     1      34.890 -19.764 -20.501  0.00  0.00    -0.003 C 
ATOM     27  C   UNL     1      35.788 -20.259 -19.557  0.00  0.00    -0.005 C 
ATOM     28  C   UNL     1      35.348 -21.144 -18.572  0.00  0.00    +0.005 C 
ATOM     29  C   UNL     1      33.551 -20.152 -20.460  0.00  0.00    -0.000 C 
ATOM     30  C   UNL     1      34.010 -21.532 -18.532  0.00  0.00    +0.136 C 
ATOM     31  C   UNL     1      33.111 -21.037 -19.476  0.00  0.00    +0.029 C 
ATOM     32  C   UNL     1      36.313 -21.671 -17.563  0.00  0.00    +0.033 C 
ENDBRANCH  24  26
ENDBRANCH  21  24
ENDBRANCH   4  22
TORSDOF 6
ENDMDL
MODEL 9
REMARK VINA RESULT:     -12.9      2.145     11.052
REMARK  Name = 5289110
REMARK  6 active torsions:
REMARK  status: ('A' for Active; 'I' for Inactive)
REMARK    1  A    between atoms: C_3  and  C_9
REMARK    2  A    between atoms: C_4  and  C_22
REMARK    3  A    between atoms: N_8  and  C_11
REMARK    4  A    between atoms: C_11  and  C_13
REMARK    5  A    between atoms: N_21  and  C_24
REMARK    6  A    between atoms: C_24  and  C_26
REMARK                            x       y       z     vdW  Elec       q    Type
REMARK                         _______ _______ _______ _____ _____    ______ ____
ROOT
ATOM      1  N   UNL     1      34.131 -14.968 -20.677  0.00  0.00    -0.244 NA
ATOM      2  N   UNL     1      33.368 -12.734 -21.158  0.00  0.00    -0.244 NA
ATOM      3  C   UNL     1      34.116 -15.219 -22.002  0.00  0.00    +0.115 C 
ATOM      4  C   UNL     1      33.387 -13.077 -22.449  0.00  0.00    +0.115 C 
ATOM      5  C   UNL     1      33.746 -14.291 -22.955  0.00  0.00    +0.100 C 
ATOM      6  C   UNL     1      33.750 -13.724 -20.330  0.00  0.00    +0.250 C 
ENDROOT
BRANCH   3   9
ATOM      7  O   UNL     1      34.556 -16.879 -23.599  0.00  0.00    -0.269 OA
ATOM      8  N   UNL     1      34.894 -17.437 -21.375  0.00  0.00    -0.296 N 
ATOM      9  C   UNL     1      34.524 -16.555 -22.398  0.00  0.00    +0.260 C 
ATOM     10  H   UNL     1      34.845 -17.117 -20.446  0.00  0.00    +0.150 HD
BRANCH   8  11
ATOM     11  C   UNL     1      35.343 -18.791 -21.608  0.00  0.00    +0.117 C 
BRANCH  11  13
ATOM     12  F   UNL     1      33.515 -22.327 -17.638  0.00  0.00    -0.205 F 
ATOM     13  C   UNL     1      34.858 -19.735 -20.546  0.00  0.00    -0.003 C 
ATOM     14  C   UNL     1      35.755 -20.244 -19.615  0.00  0.00    -0.005 C 
ATOM     15  C   UNL     1      35.304 -21.121 -18.629  0.00  0.00    +0.005 C 
ATOM     16  C   UNL     1      33.514 -20.092 -20.506  0.00  0.00    -0.000 C 
ATOM     17  C   UNL     1      33.957 -21.484 -18.581  0.00  0.00    +0.136 C 
ATOM     18  C   UNL     1      33.063 -20.969 -19.519  0.00  0.00    +0.029 C 
ATOM     19  C   UNL     1      36.263 -21.669 -17.626  0.00  0.00    +0.033 C 
ENDBRANCH  11  13
ENDBRANCH   8  11
ENDBRANCH   3   9
BRANCH   4  22
ATOM     20  O   UNL     1      33.048 -12.186 -24.592  0.00  0.00    -0.269 OA
ATOM     21  N   UNL     1      32.480 -10.840 -22.790  0.00  0.00    -0.296 N 
ATOM     22  C   UNL     1      32.967 -11.998 -23.380  0.00  0.00    +0.260 C 
ATOM     23  H   UNL     1      32.454 -10.784 -21.808  0.00  0.00    +0.150 HD
BRANCH  21  24
ATOM     24  C   UNL     1      32.012  -9.715 -23.560  0.00  0.00    +0.117 C 
BRANCH  24  26
ATOM     25  F   UNL     1      32.080  -4.936 -20.601  0.00  0.00    -0.205 F 
ATOM     26  C   UNL     1      32.031  -8.445 -22.777  0.00  0.00    -0.003 C 
ATOM     27  C   UNL     1      32.475  -7.265 -23.373  0.00  0.00    -0.005 C 
ATOM     28  C   UNL     1      32.493  -6.078 -22.640  0.00  0.00    +0.005 C 
ATOM     29  C   UNL     1      31.604  -8.438 -21.449  0.00  0.00    -0.000 C 
ATOM     30  C   UNL     1      32.066  -6.072 -21.313  0.00  0.00    +0.136 C 
ATOM     31  C   UNL     1      31.623  -7.252 -20.717  0.00  0.00    +0.029 C 
ATOM     32  C   UNL     1      32.967  -4.817 -23.281  0.00  0.00    +0.033 C 
ENDBRANCH  24  26
ENDBRANCH  21  24
ENDBRANCH   4  22
TORSDOF 6
ENDMDL
