MODEL 1
REMARK VINA RESULT:     -11.3      0.000      0.000
REMARK  Name = 24875319
REMARK  4 active torsions:
REMARK  status: ('A' for Active; 'I' for Inactive)
REMARK    1  A    between atoms: C_3  and  C_16
REMARK    2  A    between atoms: C_5  and  O_9
REMARK    3  A    between atoms: O_9  and  C_10
REMARK    4  A    between atoms: C_16  and  C_20
REMARK                            x       y       z     vdW  Elec       q    Type
REMARK                         _______ _______ _______ _____ _____    ______ ____
ROOT
ATOM      1 CL   UNL     1      31.663 -21.920 -17.875  0.00  0.00    -0.079 Cl
ATOM      2  F   UNL     1      36.180 -21.136 -20.079  0.00  0.00    -0.201 F 
ATOM      3  C   UNL     1      34.389 -19.723 -20.725  0.00  0.00    +0.014 C 
ATOM      4  C   UNL     1      34.893 -20.778 -19.964  0.00  0.00    +0.172 C 
ATOM      5  C   UNL     1      34.058 -21.462 -19.080  0.00  0.00    +0.183 C 
ATOM      6  C   UNL     1      33.050 -19.354 -20.604  0.00  0.00    -0.001 C 
ATOM      7  C   UNL     1      32.718 -21.091 -18.959  0.00  0.00    +0.094 C 
ATOM      8  C   UNL     1      32.214 -20.037 -19.721  0.00  0.00    +0.014 C 
ENDROOT
BRANCH   5   9
ATOM      9  O   UNL     1      34.575 -22.488 -18.348  0.00  0.00    -0.450 OA
BRANCH   9  10
ATOM     10  C   UNL     1      35.204 -22.172 -17.156  0.00  0.00    +0.145 C 
ATOM     11  C   UNL     1      34.634 -22.560 -15.943  0.00  0.00    +0.037 C 
ATOM     12  C   UNL     1      36.407 -21.467 -17.167  0.00  0.00    +0.037 C 
ATOM     13  C   UNL     1      35.268 -22.243 -14.742  0.00  0.00    +0.003 C 
ATOM     14  C   UNL     1      37.041 -21.149 -15.966  0.00  0.00    +0.003 C 
ATOM     15  C   UNL     1      36.471 -21.537 -14.753  0.00  0.00    +0.000 C 
ENDBRANCH   9  10
ENDBRANCH   5   9
BRANCH   3  16
ATOM     16  C   UNL     1      35.282 -18.987 -21.675  0.00  0.00    +0.076 C 
BRANCH  16  20
ATOM     17  O   UNL     1      33.747 -13.751 -22.098  0.00  0.00    -0.268 OA
ATOM     18  N   UNL     1      34.760 -16.854 -20.701  0.00  0.00    -0.183 NA
ATOM     19  N   UNL     1      34.378 -15.559 -20.827  0.00  0.00    -0.203 N 
ATOM     20  C   UNL     1      34.858 -17.545 -21.792  0.00  0.00    +0.081 C 
ATOM     21  C   UNL     1      34.588 -17.024 -23.147  0.00  0.00    +0.021 C 
ATOM     22  C   UNL     1      34.216 -15.749 -23.239  0.00  0.00    +0.061 C 
ATOM     23  C   UNL     1      34.092 -14.929 -22.016  0.00  0.00    +0.265 C 
ATOM     24  H   UNL     1      34.300 -15.027 -20.003  0.00  0.00    +0.178 HD
ENDBRANCH  16  20
ENDBRANCH   3  16
TORSDOF 4
ENDMDL
MODEL 2
REMARK VINA RESULT:     -10.9      4.137      8.178
REMARK  Name = 24875319
REMARK  4 active torsions:
REMARK  status: ('A' for Active; 'I' for Inactive)
REMARK    1  A    between atoms: C_3  and  C_16
REMARK    2  A    between atoms: C_5  and  O_9
REMARK    3  A    between atoms: O_9  and  C_10
REMARK    4  A    between atoms: C_16  and  C_20
REMARK                            x       y       z     vdW  Elec       q    Type
REMARK                         _______ _______ _______ _____ _____    ______ ____
ROOT
ATOM      1 CL   UNL     1      31.164 -23.174 -16.714  0.00  0.00    -0.079 Cl
ATOM      2  F   UNL     1      36.193 -22.449 -16.961  0.00  0.00    -0.201 F 
ATOM      3  C   UNL     1      35.179 -22.348 -14.821  0.00  0.00    +0.014 C 
ATOM      4  C   UNL     1      35.091 -22.525 -16.201  0.00  0.00    +0.172 C 
ATOM      5  C   UNL     1      33.855 -22.781 -16.795  0.00  0.00    +0.183 C 
ATOM      6  C   UNL     1      34.030 -22.426 -14.033  0.00  0.00    -0.001 C 
ATOM      7  C   UNL     1      32.706 -22.860 -16.007  0.00  0.00    +0.094 C 
ATOM      8  C   UNL     1      32.794 -22.683 -14.626  0.00  0.00    +0.014 C 
ENDROOT
BRANCH   5   9
ATOM      9  O   UNL     1      33.796 -22.951 -18.146  0.00  0.00    -0.450 OA
BRANCH   9  10
ATOM     10  C   UNL     1      33.783 -21.815 -18.935  0.00  0.00    +0.145 C 
ATOM     11  C   UNL     1      34.976 -21.312 -19.455  0.00  0.00    +0.037 C 
ATOM     12  C   UNL     1      32.576 -21.171 -19.211  0.00  0.00    +0.037 C 
ATOM     13  C   UNL     1      34.961 -20.167 -20.251  0.00  0.00    +0.003 C 
ATOM     14  C   UNL     1      32.562 -20.026 -20.007  0.00  0.00    +0.003 C 
ATOM     15  C   UNL     1      33.755 -19.523 -20.527  0.00  0.00    +0.000 C 
ENDBRANCH   9  10
ENDBRANCH   5   9
BRANCH   3  16
ATOM     16  C   UNL     1      36.503 -22.072 -14.180  0.00  0.00    +0.076 C 
BRANCH  16  20
ATOM     17  O   UNL     1      39.682 -26.524 -14.328  0.00  0.00    -0.268 OA
ATOM     18  N   UNL     1      38.398 -23.287 -15.019  0.00  0.00    -0.183 NA
ATOM     19  N   UNL     1      39.173 -24.400 -15.042  0.00  0.00    -0.203 N 
ATOM     20  C   UNL     1      37.379 -23.299 -14.221  0.00  0.00    +0.081 C 
ATOM     21  C   UNL     1      37.008 -24.426 -13.344  0.00  0.00    +0.021 C 
ATOM     22  C   UNL     1      37.788 -25.505 -13.387  0.00  0.00    +0.061 C 
ATOM     23  C   UNL     1      38.961 -25.529 -14.286  0.00  0.00    +0.265 C 
ATOM     24  H   UNL     1      39.950 -24.399 -15.646  0.00  0.00    +0.178 HD
ENDBRANCH  16  20
ENDBRANCH   3  16
TORSDOF 4
ENDMDL
MODEL 3
REMARK VINA RESULT:     -10.9      2.258      3.311
REMARK  Name = 24875319
REMARK  4 active torsions:
REMARK  status: ('A' for Active; 'I' for Inactive)
REMARK    1  A    between atoms: C_3  and  C_16
REMARK    2  A    between atoms: C_5  and  O_9
REMARK    3  A    between atoms: O_9  and  C_10
REMARK    4  A    between atoms: C_16  and  C_20
REMARK                            x       y       z     vdW  Elec       q    Type
REMARK                         _______ _______ _______ _____ _____    ______ ____
ROOT
ATOM      1 CL   UNL     1      32.403 -22.855 -15.029  0.00  0.00    -0.079 Cl
ATOM      2  F   UNL     1      36.821 -21.699 -17.271  0.00  0.00    -0.201 F 
ATOM      3  C   UNL     1      34.887 -21.770 -18.640  0.00  0.00    +0.014 C 
ATOM      4  C   UNL     1      35.501 -21.898 -17.394  0.00  0.00    +0.172 C 
ATOM      5  C   UNL     1      34.741 -22.232 -16.273  0.00  0.00    +0.183 C 
ATOM      6  C   UNL     1      33.514 -21.978 -18.766  0.00  0.00    -0.001 C 
ATOM      7  C   UNL     1      33.367 -22.439 -16.399  0.00  0.00    +0.094 C 
ATOM      8  C   UNL     1      32.753 -22.312 -17.645  0.00  0.00    +0.014 C 
ENDROOT
BRANCH   5   9
ATOM      9  O   UNL     1      35.365 -22.350 -15.068  0.00  0.00    -0.450 OA
BRANCH   9  10
ATOM     10  C   UNL     1      36.108 -23.494 -14.839  0.00  0.00    +0.145 C 
ATOM     11  C   UNL     1      37.476 -23.398 -14.581  0.00  0.00    +0.037 C 
ATOM     12  C   UNL     1      35.491 -24.745 -14.867  0.00  0.00    +0.037 C 
ATOM     13  C   UNL     1      38.225 -24.552 -14.350  0.00  0.00    +0.003 C 
ATOM     14  C   UNL     1      36.240 -25.899 -14.636  0.00  0.00    +0.003 C 
ATOM     15  C   UNL     1      37.607 -25.802 -14.378  0.00  0.00    +0.000 C 
ENDBRANCH   9  10
ENDBRANCH   5   9
BRANCH   3  16
ATOM     16  C   UNL     1      35.699 -21.412 -19.846  0.00  0.00    +0.076 C 
BRANCH  16  20
ATOM     17  O   UNL     1      34.613 -16.294 -21.451  0.00  0.00    -0.268 OA
ATOM     18  N   UNL     1      36.307 -19.100 -20.087  0.00  0.00    -0.183 NA
ATOM     19  N   UNL     1      36.019 -17.838 -20.492  0.00  0.00    -0.203 N 
ATOM     20  C   UNL     1      35.400 -20.002 -20.288  0.00  0.00    +0.081 C 
ATOM     21  C   UNL     1      34.089 -19.753 -20.920  0.00  0.00    +0.021 C 
ATOM     22  C   UNL     1      33.835 -18.504 -21.307  0.00  0.00    +0.061 C 
ATOM     23  C   UNL     1      34.847 -17.448 -21.095  0.00  0.00    +0.265 C 
ATOM     24  H   UNL     1      36.704 -17.147 -20.343  0.00  0.00    +0.178 HD
ENDBRANCH  16  20
ENDBRANCH   3  16
TORSDOF 4
ENDMDL
MODEL 4
REMARK VINA RESULT:     -10.7      4.786      9.813
REMARK  Name = 24875319
REMARK  4 active torsions:
REMARK  status: ('A' for Active; 'I' for Inactive)
REMARK    1  A    between atoms: C_3  and  C_16
REMARK    2  A    between atoms: C_5  and  O_9
REMARK    3  A    between atoms: O_9  and  C_10
REMARK    4  A    between atoms: C_16  and  C_20
REMARK                            x       y       z     vdW  Elec       q    Type
REMARK                         _______ _______ _______ _____ _____    ______ ____
ROOT
ATOM      1 CL   UNL     1      31.509 -11.215 -20.106  0.00  0.00    -0.079 Cl
ATOM      2  F   UNL     1      33.153 -13.154 -24.513  0.00  0.00    -0.201 F 
ATOM      3  C   UNL     1      33.788 -14.273 -22.522  0.00  0.00    +0.014 C 
ATOM      4  C   UNL     1      33.119 -13.238 -23.175  0.00  0.00    +0.172 C 
ATOM      5  C   UNL     1      32.411 -12.289 -22.437  0.00  0.00    +0.183 C 
ATOM      6  C   UNL     1      33.751 -14.358 -21.130  0.00  0.00    -0.001 C 
ATOM      7  C   UNL     1      32.375 -12.375 -21.045  0.00  0.00    +0.094 C 
ATOM      8  C   UNL     1      33.044 -13.410 -20.391  0.00  0.00    +0.014 C 
ENDROOT
BRANCH   5   9
ATOM      9  O   UNL     1      31.766 -11.289 -23.099  0.00  0.00    -0.450 OA
BRANCH   9  10
ATOM     10  C   UNL     1      32.377 -10.049 -23.141  0.00  0.00    +0.145 C 
ATOM     11  C   UNL     1      31.675  -8.911 -22.741  0.00  0.00    +0.037 C 
ATOM     12  C   UNL     1      33.695  -9.934 -23.584  0.00  0.00    +0.037 C 
ATOM     13  C   UNL     1      32.291  -7.661 -22.783  0.00  0.00    +0.003 C 
ATOM     14  C   UNL     1      34.312  -8.684 -23.626  0.00  0.00    +0.003 C 
ATOM     15  C   UNL     1      33.610  -7.546 -23.226  0.00  0.00    +0.000 C 
ENDBRANCH   9  10
ENDBRANCH   5   9
BRANCH   3  16
ATOM     16  C   UNL     1      34.549 -15.293 -23.310  0.00  0.00    +0.076 C 
BRANCH  16  20
ATOM     17  O   UNL     1      34.673 -20.078 -20.658  0.00  0.00    -0.268 OA
ATOM     18  N   UNL     1      35.069 -16.625 -21.380  0.00  0.00    -0.183 NA
ATOM     19  N   UNL     1      35.092 -17.820 -20.740  0.00  0.00    -0.203 N 
ATOM     20  C   UNL     1      34.583 -16.612 -22.580  0.00  0.00    +0.081 C 
ATOM     21  C   UNL     1      34.057 -17.794 -23.290  0.00  0.00    +0.021 C 
ATOM     22  C   UNL     1      34.092 -18.954 -22.635  0.00  0.00    +0.061 C 
ATOM     23  C   UNL     1      34.639 -19.008 -21.264  0.00  0.00    +0.265 C 
ATOM     24  H   UNL     1      35.459 -17.839 -19.827  0.00  0.00    +0.178 HD
ENDBRANCH  16  20
ENDBRANCH   3  16
TORSDOF 4
ENDMDL
MODEL 5
REMARK VINA RESULT:     -10.6      6.504      8.996
REMARK  Name = 24875319
REMARK  4 active torsions:
REMARK  status: ('A' for Active; 'I' for Inactive)
REMARK    1  A    between atoms: C_3  and  C_16
REMARK    2  A    between atoms: C_5  and  O_9
REMARK    3  A    between atoms: O_9  and  C_10
REMARK    4  A    between atoms: C_16  and  C_20
REMARK                            x       y       z     vdW  Elec       q    Type
REMARK                         _______ _______ _______ _____ _____    ______ ____
ROOT
ATOM      1 CL   UNL     1      33.816 -15.307 -20.237  0.00  0.00    -0.079 Cl
ATOM      2  F   UNL     1      33.350 -11.819 -23.911  0.00  0.00    -0.201 F 
ATOM      3  C   UNL     1      31.972 -11.581 -21.997  0.00  0.00    +0.014 C 
ATOM      4  C   UNL     1      32.955 -12.267 -22.709  0.00  0.00    +0.172 C 
ATOM      5  C   UNL     1      33.531 -13.418 -22.173  0.00  0.00    +0.183 C 
ATOM      6  C   UNL     1      31.562 -12.048 -20.748  0.00  0.00    -0.001 C 
ATOM      7  C   UNL     1      33.122 -13.885 -20.924  0.00  0.00    +0.094 C 
ATOM      8  C   UNL     1      32.138 -13.200 -20.211  0.00  0.00    +0.014 C 
ENDROOT
BRANCH   5   9
ATOM      9  O   UNL     1      34.491 -14.068 -22.890  0.00  0.00    -0.450 OA
BRANCH   9  10
ATOM     10  C   UNL     1      34.199 -15.342 -23.345  0.00  0.00    +0.145 C 
ATOM     11  C   UNL     1      34.768 -16.453 -22.721  0.00  0.00    +0.037 C 
ATOM     12  C   UNL     1      33.336 -15.516 -24.427  0.00  0.00    +0.037 C 
ATOM     13  C   UNL     1      34.474 -17.736 -23.180  0.00  0.00    +0.003 C 
ATOM     14  C   UNL     1      33.042 -16.800 -24.885  0.00  0.00    +0.003 C 
ATOM     15  C   UNL     1      33.611 -17.911 -24.262  0.00  0.00    +0.000 C 
ENDBRANCH   9  10
ENDBRANCH   5   9
BRANCH   3  16
ATOM     16  C   UNL     1      31.351 -10.345 -22.569  0.00  0.00    +0.076 C 
BRANCH  16  20
ATOM     17  O   UNL     1      32.420  -6.008 -19.408  0.00  0.00    -0.268 OA
ATOM     18  N   UNL     1      32.353  -8.192 -22.206  0.00  0.00    -0.183 NA
ATOM     19  N   UNL     1      32.607  -7.127 -21.406  0.00  0.00    -0.203 N 
ATOM     20  C   UNL     1      31.646  -9.150 -21.698  0.00  0.00    +0.081 C 
ATOM     21  C   UNL     1      31.103  -9.161 -20.325  0.00  0.00    +0.021 C 
ATOM     22  C   UNL     1      31.369  -8.101 -19.564  0.00  0.00    +0.061 C 
ATOM     23  C   UNL     1      32.173  -6.988 -20.109  0.00  0.00    +0.265 C 
ATOM     24  H   UNL     1      33.145  -6.394 -21.785  0.00  0.00    +0.178 HD
ENDBRANCH  16  20
ENDBRANCH   3  16
TORSDOF 4
ENDMDL
MODEL 6
REMARK VINA RESULT:     -10.5      7.313     10.187
REMARK  Name = 24875319
REMARK  4 active torsions:
REMARK  status: ('A' for Active; 'I' for Inactive)
REMARK    1  A    between atoms: C_3  and  C_16
REMARK    2  A    between atoms: C_5  and  O_9
REMARK    3  A    between atoms: O_9  and  C_10
REMARK    4  A    between atoms: C_16  and  C_20
REMARK                            x       y       z     vdW  Elec       q    Type
REMARK                         _______ _______ _______ _____ _____    ______ ____
ROOT
ATOM      1 CL   UNL     1      31.978 -13.799 -20.066  0.00  0.00    -0.079 Cl
ATOM      2  F   UNL     1      33.917 -10.774 -23.667  0.00  0.00    -0.201 F 
ATOM      3  C   UNL     1      31.832 -10.153 -22.723  0.00  0.00    +0.014 C 
ATOM      4  C   UNL     1      32.920 -11.022 -22.804  0.00  0.00    +0.172 C 
ATOM      5  C   UNL     1      32.974 -12.150 -21.986  0.00  0.00    +0.183 C 
ATOM      6  C   UNL     1      30.796 -10.413 -21.826  0.00  0.00    -0.001 C 
ATOM      7  C   UNL     1      31.938 -12.410 -21.088  0.00  0.00    +0.094 C 
ATOM      8  C   UNL     1      30.850 -11.542 -21.008  0.00  0.00    +0.014 C 
ENDROOT
BRANCH   5   9
ATOM      9  O   UNL     1      34.048 -12.982 -22.084  0.00  0.00    -0.450 OA
BRANCH   9  10
ATOM     10  C   UNL     1      33.919 -14.106 -22.880  0.00  0.00    +0.145 C 
ATOM     11  C   UNL     1      33.255 -14.021 -24.104  0.00  0.00    +0.037 C 
ATOM     12  C   UNL     1      34.453 -15.325 -22.461  0.00  0.00    +0.037 C 
ATOM     13  C   UNL     1      33.125 -15.154 -24.907  0.00  0.00    +0.003 C 
ATOM     14  C   UNL     1      34.323 -16.458 -23.264  0.00  0.00    +0.003 C 
ATOM     15  C   UNL     1      33.659 -16.373 -24.487  0.00  0.00    +0.000 C 
ENDBRANCH   9  10
ENDBRANCH   5   9
BRANCH   3  16
ATOM     16  C   UNL     1      31.770  -8.941 -23.600  0.00  0.00    +0.076 C 
BRANCH  16  20
ATOM     17  O   UNL     1      30.661  -4.475 -20.637  0.00  0.00    -0.268 OA
ATOM     18  N   UNL     1      30.400  -7.037 -23.081  0.00  0.00    -0.183 NA
ATOM     19  N   UNL     1      30.143  -5.933 -22.336  0.00  0.00    -0.203 N 
ATOM     20  C   UNL     1      31.464  -7.710 -22.784  0.00  0.00    +0.081 C 
ATOM     21  C   UNL     1      32.406  -7.364 -21.700  0.00  0.00    +0.021 C 
ATOM     22  C   UNL     1      32.127  -6.276 -20.985  0.00  0.00    +0.061 C 
ATOM     23  C   UNL     1      30.920  -5.481 -21.295  0.00  0.00    +0.265 C 
ATOM     24  H   UNL     1      29.335  -5.416 -22.556  0.00  0.00    +0.178 HD
ENDBRANCH  16  20
ENDBRANCH   3  16
TORSDOF 4
ENDMDL
MODEL 7
REMARK VINA RESULT:     -10.4      5.642     10.570
REMARK  Name = 24875319
REMARK  4 active torsions:
REMARK  status: ('A' for Active; 'I' for Inactive)
REMARK    1  A    between atoms: C_3  and  C_16
REMARK    2  A    between atoms: C_5  and  O_9
REMARK    3  A    between atoms: O_9  and  C_10
REMARK    4  A    between atoms: C_16  and  C_20
REMARK                            x       y       z     vdW  Elec       q    Type
REMARK                         _______ _______ _______ _____ _____    ______ ____
ROOT
ATOM      1 CL   UNL     1      30.697 -10.147 -20.167  0.00  0.00    -0.079 Cl
ATOM      2  F   UNL     1      33.024 -11.593 -24.454  0.00  0.00    -0.201 F 
ATOM      3  C   UNL     1      33.139 -13.064 -22.598  0.00  0.00    +0.014 C 
ATOM      4  C   UNL     1      32.711 -11.871 -23.179  0.00  0.00    +0.172 C 
ATOM      5  C   UNL     1      31.956 -10.964 -22.436  0.00  0.00    +0.183 C 
ATOM      6  C   UNL     1      32.813 -13.350 -21.273  0.00  0.00    -0.001 C 
ATOM      7  C   UNL     1      31.629 -11.251 -21.110  0.00  0.00    +0.094 C 
ATOM      8  C   UNL     1      32.057 -12.444 -20.529  0.00  0.00    +0.014 C 
ENDROOT
BRANCH   5   9
ATOM      9  O   UNL     1      31.550  -9.806 -23.028  0.00  0.00    -0.450 OA
BRANCH   9  10
ATOM     10  C   UNL     1      32.353  -8.689 -22.871  0.00  0.00    +0.145 C 
ATOM     11  C   UNL     1      33.603  -8.637 -23.487  0.00  0.00    +0.037 C 
ATOM     12  C   UNL     1      31.912  -7.616 -22.096  0.00  0.00    +0.037 C 
ATOM     13  C   UNL     1      34.412  -7.512 -23.329  0.00  0.00    +0.003 C 
ATOM     14  C   UNL     1      32.720  -6.491 -21.938  0.00  0.00    +0.003 C 
ATOM     15  C   UNL     1      33.971  -6.438 -22.554  0.00  0.00    +0.000 C 
ENDBRANCH   9  10
ENDBRANCH   5   9
BRANCH   3  16
ATOM     16  C   UNL     1      33.950 -14.040 -23.392  0.00  0.00    +0.076 C 
BRANCH  16  20
ATOM     17  O   UNL     1      34.879 -18.586 -20.491  0.00  0.00    -0.268 OA
ATOM     18  N   UNL     1      34.302 -15.179 -21.307  0.00  0.00    -0.183 NA
ATOM     19  N   UNL     1      34.533 -16.317 -20.606  0.00  0.00    -0.203 N 
ATOM     20  C   UNL     1      34.206 -15.292 -22.593  0.00  0.00    +0.081 C 
ATOM     21  C   UNL     1      34.328 -16.560 -23.339  0.00  0.00    +0.021 C 
ATOM     22  C   UNL     1      34.554 -17.661 -22.624  0.00  0.00    +0.061 C 
ATOM     23  C   UNL     1      34.670 -17.571 -21.153  0.00  0.00    +0.265 C 
ATOM     24  H   UNL     1      34.607 -16.239 -19.627  0.00  0.00    +0.178 HD
ENDBRANCH  16  20
ENDBRANCH   3  16
TORSDOF 4
ENDMDL
MODEL 8
REMARK VINA RESULT:     -10.2      8.163     13.207
REMARK  Name = 24875319
REMARK  4 active torsions:
REMARK  status: ('A' for Active; 'I' for Inactive)
REMARK    1  A    between atoms: C_3  and  C_16
REMARK    2  A    between atoms: C_5  and  O_9
REMARK    3  A    between atoms: O_9  and  C_10
REMARK    4  A    between atoms: C_16  and  C_20
REMARK                            x       y       z     vdW  Elec       q    Type
REMARK                         _______ _______ _______ _____ _____    ______ ____
ROOT
ATOM      1 CL   UNL     1      32.436  -5.879 -19.468  0.00  0.00    -0.079 Cl
ATOM      2  F   UNL     1      32.469  -9.061 -23.438  0.00  0.00    -0.201 F 
ATOM      3  C   UNL     1      31.280  -9.740 -21.503  0.00  0.00    +0.014 C 
ATOM      4  C   UNL     1      32.063  -8.809 -22.185  0.00  0.00    +0.172 C 
ATOM      5  C   UNL     1      32.424  -7.613 -21.565  0.00  0.00    +0.183 C 
ATOM      6  C   UNL     1      30.859  -9.476 -20.199  0.00  0.00    -0.001 C 
ATOM      7  C   UNL     1      32.003  -7.349 -20.261  0.00  0.00    +0.094 C 
ATOM      8  C   UNL     1      31.220  -8.280 -19.578  0.00  0.00    +0.014 C 
ENDROOT
BRANCH   5   9
ATOM      9  O   UNL     1      33.189  -6.720 -22.253  0.00  0.00    -0.450 OA
BRANCH   9  10
ATOM     10  C   UNL     1      32.536  -5.772 -23.019  0.00  0.00    +0.145 C 
ATOM     11  C   UNL     1      31.142  -5.713 -23.017  0.00  0.00    +0.037 C 
ATOM     12  C   UNL     1      33.270  -4.874 -23.794  0.00  0.00    +0.037 C 
ATOM     13  C   UNL     1      30.483  -4.757 -23.790  0.00  0.00    +0.003 C 
ATOM     14  C   UNL     1      32.611  -3.917 -24.567  0.00  0.00    +0.003 C 
ATOM     15  C   UNL     1      31.217  -3.859 -24.565  0.00  0.00    +0.000 C 
ENDBRANCH   9  10
ENDBRANCH   5   9
BRANCH   3  16
ATOM     16  C   UNL     1      30.890 -11.025 -22.165  0.00  0.00    +0.076 C 
BRANCH  16  20
ATOM     17  O   UNL     1      34.296 -15.053 -20.707  0.00  0.00    -0.268 OA
ATOM     18  N   UNL     1      31.571 -12.778 -20.670  0.00  0.00    -0.183 NA
ATOM     19  N   UNL     1      32.427 -13.772 -20.326  0.00  0.00    -0.203 N 
ATOM     20  C   UNL     1      31.829 -12.135 -21.763  0.00  0.00    +0.081 C 
ATOM     21  C   UNL     1      32.977 -12.407 -22.651  0.00  0.00    +0.021 C 
ATOM     22  C   UNL     1      33.800 -13.389 -22.287  0.00  0.00    +0.061 C 
ATOM     23  C   UNL     1      33.537 -14.146 -21.045  0.00  0.00    +0.265 C 
ATOM     24  H   UNL     1      32.237 -14.267 -19.496  0.00  0.00    +0.178 HD
ENDBRANCH  16  20
ENDBRANCH   3  16
TORSDOF 4
ENDMDL
MODEL 9
REMARK VINA RESULT:     -10.1      8.877     12.517
REMARK  Name = 24875319
REMARK  4 active torsions:
REMARK  status: ('A' for Active; 'I' for Inactive)
REMARK    1  A    between atoms: C_3  and  C_16
REMARK    2  A    between atoms: C_5  and  O_9
REMARK    3  A    between atoms: O_9  and  C_10
REMARK    4  A    between atoms: C_16  and  C_20
REMARK                            x       y       z     vdW  Elec       q    Type
REMARK                         _______ _______ _______ _____ _____    ______ ____
ROOT
ATOM      1 CL   UNL     1      30.917  -9.587 -18.900  0.00  0.00    -0.079 Cl
ATOM      2  F   UNL     1      31.952  -8.843 -23.825  0.00  0.00    -0.201 F 
ATOM      3  C   UNL     1      32.577  -7.133 -22.306  0.00  0.00    +0.014 C 
ATOM      4  C   UNL     1      32.006  -8.378 -22.568  0.00  0.00    +0.172 C 
ATOM      5  C   UNL     1      31.492  -9.144 -21.522  0.00  0.00    +0.183 C 
ATOM      6  C   UNL     1      32.631  -6.651 -20.999  0.00  0.00    -0.001 C 
ATOM      7  C   UNL     1      31.547  -8.662 -20.214  0.00  0.00    +0.094 C 
ATOM      8  C   UNL     1      32.116  -7.416 -19.951  0.00  0.00    +0.014 C 
ENDROOT
BRANCH   5   9
ATOM      9  O   UNL     1      30.941 -10.357 -21.804  0.00  0.00    -0.450 OA
BRANCH   9  10
ATOM     10  C   UNL     1      31.775 -11.461 -21.787  0.00  0.00    +0.145 C 
ATOM     11  C   UNL     1      32.684 -11.664 -22.827  0.00  0.00    +0.037 C 
ATOM     12  C   UNL     1      31.709 -12.370 -20.731  0.00  0.00    +0.037 C 
ATOM     13  C   UNL     1      33.525 -12.776 -22.809  0.00  0.00    +0.003 C 
ATOM     14  C   UNL     1      32.550 -13.482 -20.714  0.00  0.00    +0.003 C 
ATOM     15  C   UNL     1      33.459 -13.686 -21.753  0.00  0.00    +0.000 C 
ENDBRANCH   9  10
ENDBRANCH   5   9
BRANCH   3  16
ATOM     16  C   UNL     1      33.129  -6.308 -23.427  0.00  0.00    +0.076 C 
BRANCH  16  20
ATOM     17  O   UNL     1      29.772  -2.146 -24.592  0.00  0.00    -0.268 OA
ATOM     18  N   UNL     1      30.948  -5.300 -23.466  0.00  0.00    -0.183 NA
ATOM     19  N   UNL     1      30.133  -4.258 -23.763  0.00  0.00    -0.203 N 
ATOM     20  C   UNL     1      32.204  -5.161 -23.748  0.00  0.00    +0.081 C 
ATOM     21  C   UNL     1      32.802  -3.959 -24.363  0.00  0.00    +0.021 C 
ATOM     22  C   UNL     1      31.976  -2.952 -24.642  0.00  0.00    +0.061 C 
ATOM     23  C   UNL     1      30.536  -3.074 -24.334  0.00  0.00    +0.265 C 
ATOM     24  H   UNL     1      29.177  -4.356 -23.551  0.00  0.00    +0.178 HD
ENDBRANCH  16  20
ENDBRANCH   3  16
TORSDOF 4
ENDMDL
