MODEL 1
REMARK VINA RESULT:     -12.1      0.000      0.000
REMARK  Name = 444406
REMARK  9 active torsions:
REMARK  status: ('A' for Active; 'I' for Inactive)
REMARK    1  A    between atoms: C_1  and  C_2
REMARK    2  A    between atoms: C_1  and  C_14
REMARK    3  A    between atoms: C_1  and  C_28
REMARK    4  A    between atoms: C_5  and  C_10
REMARK    5  A    between atoms: C_14  and  C_15
REMARK    6  A    between atoms: C_15  and  C_16
REMARK    7  A    between atoms: C_21  and  C_24
REMARK    8  A    between atoms: C_28  and  C_30
REMARK    9  A    between atoms: C_30  and  O_31
REMARK                            x       y       z     vdW  Elec       q    Type
REMARK                         _______ _______ _______ _____ _____    ______ ____
ROOT
ATOM      1  C   UNL     1      34.063 -17.685 -22.183  0.00  0.00    +0.034 C 
ENDROOT
BRANCH   1   2
ATOM      2  C   UNL     1      34.558 -18.761 -21.227  0.00  0.00    -0.022 C 
ATOM      3  C   UNL     1      33.649 -19.652 -20.695  0.00  0.00    -0.002 C 
ATOM      4  C   UNL     1      35.904 -18.812 -20.920  0.00  0.00    -0.004 C 
ATOM      5  C   UNL     1      34.104 -20.638 -19.819  0.00  0.00    +0.030 C 
ATOM      6  C   UNL     1      36.358 -19.797 -20.044  0.00  0.00    -0.000 C 
ATOM      7  C   UNL     1      35.458 -20.710 -19.493  0.00  0.00    +0.003 C 
BRANCH   5  10
ATOM      8  N   UNL     1      31.914 -21.185 -18.785  0.00  0.00    -0.343 N 
ATOM      9  N   UNL     1      33.497 -22.864 -19.148  0.00  0.00    -0.285 NA
ATOM     10  C   UNL     1      33.166 -21.589 -19.245  0.00  0.00    +0.117 C 
ATOM     11  H   UNL     1      31.294 -21.845 -18.399  0.00  0.00    +0.144 HD
ATOM     12  H   UNL     1      31.649 -20.238 -18.845  0.00  0.00    +0.144 HD
ATOM     13  H   UNL     1      32.863 -23.509 -18.760  0.00  0.00    +0.188 HD
ENDBRANCH   5  10
ENDBRANCH   1   2
BRANCH   1  14
ATOM     14  C   UNL     1      34.746 -16.315 -21.940  0.00  0.00    +0.010 C 
BRANCH  14  15
ATOM     15  C   UNL     1      34.228 -15.540 -20.717  0.00  0.00    +0.027 C 
BRANCH  15  16
ATOM     16  C   UNL     1      33.470 -14.281 -21.055  0.00  0.00    -0.022 C 
ATOM     17  C   UNL     1      33.843 -13.541 -22.166  0.00  0.00    -0.004 C 
ATOM     18  C   UNL     1      32.413 -13.886 -20.250  0.00  0.00    -0.004 C 
ATOM     19  C   UNL     1      33.142 -12.377 -22.480  0.00  0.00    +0.002 C 
ATOM     20  C   UNL     1      31.712 -12.723 -20.565  0.00  0.00    +0.002 C 
ATOM     21  C   UNL     1      32.075 -11.968 -21.680  0.00  0.00    +0.031 C 
BRANCH  21  24
ATOM     22  N   UNL     1      30.063 -10.523 -21.508  0.00  0.00    -0.343 N 
ATOM     23  N   UNL     1      31.895  -9.845 -22.791  0.00  0.00    -0.285 NA
ATOM     24  C   UNL     1      31.345 -10.753 -22.005  0.00  0.00    +0.117 C 
ATOM     25  H   UNL     1      29.586  -9.694 -21.741  0.00  0.00    +0.144 HD
ATOM     26  H   UNL     1      29.635 -11.190 -20.924  0.00  0.00    +0.144 HD
ATOM     27  H   UNL     1      31.402  -9.022 -23.012  0.00  0.00    +0.188 HD
ENDBRANCH  21  24
ENDBRANCH  15  16
ENDBRANCH  14  15
ENDBRANCH   1  14
BRANCH   1  28
ATOM     28  C   UNL     1      34.265 -18.152 -23.641  0.00  0.00    +0.114 C 
BRANCH  28  30
ATOM     29  O   UNL     1      32.276 -17.785 -24.995  0.00  0.00    -0.250 OA
ATOM     30  C   UNL     1      33.383 -17.416 -24.629  0.00  0.00    +0.317 C 
BRANCH  30  31
ATOM     31  O   UNL     1      34.038 -16.300 -25.064  0.00  0.00    -0.444 OA
ATOM     32  C   UNL     1      33.267 -15.095 -25.068  0.00  0.00    +0.256 C 
ENDBRANCH  30  31
ENDBRANCH  28  30
ENDBRANCH   1  28
TORSDOF 9
ENDMDL
MODEL 2
REMARK VINA RESULT:     -11.8      6.288      9.334
REMARK  Name = 444406
REMARK  9 active torsions:
REMARK  status: ('A' for Active; 'I' for Inactive)
REMARK    1  A    between atoms: C_1  and  C_2
REMARK    2  A    between atoms: C_1  and  C_14
REMARK    3  A    between atoms: C_1  and  C_28
REMARK    4  A    between atoms: C_5  and  C_10
REMARK    5  A    between atoms: C_14  and  C_15
REMARK    6  A    between atoms: C_15  and  C_16
REMARK    7  A    between atoms: C_21  and  C_24
REMARK    8  A    between atoms: C_28  and  C_30
REMARK    9  A    between atoms: C_30  and  O_31
REMARK                            x       y       z     vdW  Elec       q    Type
REMARK                         _______ _______ _______ _____ _____    ______ ____
ROOT
ATOM      1  C   UNL     1      32.652 -22.808 -15.009  0.00  0.00    +0.034 C 
ENDROOT
BRANCH   1   2
ATOM      2  C   UNL     1      34.142 -23.120 -14.971  0.00  0.00    -0.022 C 
ATOM      3  C   UNL     1      34.546 -24.435 -14.868  0.00  0.00    -0.002 C 
ATOM      4  C   UNL     1      35.044 -22.077 -15.038  0.00  0.00    -0.004 C 
ATOM      5  C   UNL     1      35.911 -24.720 -14.832  0.00  0.00    +0.030 C 
ATOM      6  C   UNL     1      36.409 -22.362 -15.002  0.00  0.00    -0.000 C 
ATOM      7  C   UNL     1      36.842 -23.684 -14.899  0.00  0.00    +0.003 C 
BRANCH   5  10
ATOM      8  N   UNL     1      36.751 -26.640 -13.500  0.00  0.00    -0.343 N 
ATOM      9  N   UNL     1      36.417 -26.860 -15.802  0.00  0.00    -0.285 NA
ATOM     10  C   UNL     1      36.364 -26.098 -14.725  0.00  0.00    +0.117 C 
ATOM     11  H   UNL     1      37.054 -27.576 -13.449  0.00  0.00    +0.144 HD
ATOM     12  H   UNL     1      36.722 -26.088 -12.686  0.00  0.00    +0.144 HD
ATOM     13  H   UNL     1      36.723 -27.793 -15.731  0.00  0.00    +0.188 HD
ENDBRANCH   5  10
ENDBRANCH   1   2
BRANCH   1  14
ATOM     14  C   UNL     1      32.153 -22.471 -16.437  0.00  0.00    +0.010 C 
BRANCH  14  15
ATOM     15  C   UNL     1      33.048 -22.989 -17.575  0.00  0.00    +0.027 C 
BRANCH  15  16
ATOM     16  C   UNL     1      33.539 -21.917 -18.516  0.00  0.00    -0.022 C 
ATOM     17  C   UNL     1      32.619 -21.163 -19.228  0.00  0.00    -0.004 C 
ATOM     18  C   UNL     1      34.902 -21.701 -18.650  0.00  0.00    -0.004 C 
ATOM     19  C   UNL     1      33.072 -20.171 -20.096  0.00  0.00    +0.002 C 
ATOM     20  C   UNL     1      35.355 -20.709 -19.519  0.00  0.00    +0.002 C 
ATOM     21  C   UNL     1      34.440 -19.943 -20.242  0.00  0.00    +0.031 C 
BRANCH  21  24
ATOM     22  N   UNL     1      34.414 -18.798 -22.445  0.00  0.00    -0.343 N 
ATOM     23  N   UNL     1      35.840 -18.057 -20.749  0.00  0.00    -0.285 NA
ATOM     24  C   UNL     1      34.914 -18.910 -21.149  0.00  0.00    +0.117 C 
ATOM     25  H   UNL     1      34.748 -18.091 -23.043  0.00  0.00    +0.144 HD
ATOM     26  H   UNL     1      33.725 -19.426 -22.763  0.00  0.00    +0.144 HD
ATOM     27  H   UNL     1      36.162 -17.357 -21.362  0.00  0.00    +0.188 HD
ENDBRANCH  21  24
ENDBRANCH  15  16
ENDBRANCH  14  15
ENDBRANCH   1  14
BRANCH   1  28
ATOM     28  C   UNL     1      31.859 -23.990 -14.411  0.00  0.00    +0.114 C 
BRANCH  28  30
ATOM     29  O   UNL     1      31.301 -22.764 -12.382  0.00  0.00    -0.250 OA
ATOM     30  C   UNL     1      30.996 -23.590 -13.231  0.00  0.00    +0.317 C 
BRANCH  30  31
ATOM     31  O   UNL     1      29.844 -24.324 -13.254  0.00  0.00    -0.444 OA
ATOM     32  C   UNL     1      29.626 -25.091 -14.443  0.00  0.00    +0.256 C 
ENDBRANCH  30  31
ENDBRANCH  28  30
ENDBRANCH   1  28
TORSDOF 9
ENDMDL
MODEL 3
REMARK VINA RESULT:     -11.7      1.438      7.782
REMARK  Name = 444406
REMARK  9 active torsions:
REMARK  status: ('A' for Active; 'I' for Inactive)
REMARK    1  A    between atoms: C_1  and  C_2
REMARK    2  A    between atoms: C_1  and  C_14
REMARK    3  A    between atoms: C_1  and  C_28
REMARK    4  A    between atoms: C_5  and  C_10
REMARK    5  A    between atoms: C_14  and  C_15
REMARK    6  A    between atoms: C_15  and  C_16
REMARK    7  A    between atoms: C_21  and  C_24
REMARK    8  A    between atoms: C_28  and  C_30
REMARK    9  A    between atoms: C_30  and  O_31
REMARK                            x       y       z     vdW  Elec       q    Type
REMARK                         _______ _______ _______ _____ _____    ______ ____
ROOT
ATOM      1  C   UNL     1      34.926 -16.645 -22.483  0.00  0.00    +0.034 C 
ENDROOT
BRANCH   1   2
ATOM      2  C   UNL     1      34.276 -15.336 -22.057  0.00  0.00    -0.022 C 
ATOM      3  C   UNL     1      34.081 -14.349 -23.001  0.00  0.00    -0.002 C 
ATOM      4  C   UNL     1      33.904 -15.176 -20.737  0.00  0.00    -0.004 C 
ATOM      5  C   UNL     1      33.485 -13.150 -22.609  0.00  0.00    +0.030 C 
ATOM      6  C   UNL     1      33.308 -13.976 -20.346  0.00  0.00    -0.000 C 
ATOM      7  C   UNL     1      33.100 -12.964 -21.283  0.00  0.00    +0.003 C 
BRANCH   5  10
ATOM      8  N   UNL     1      33.570 -10.765 -23.294  0.00  0.00    -0.343 N 
ATOM      9  N   UNL     1      32.770 -12.387 -24.773  0.00  0.00    -0.285 NA
ATOM     10  C   UNL     1      33.268 -12.094 -23.585  0.00  0.00    +0.117 C 
ATOM     11  H   UNL     1      33.415 -10.065 -23.969  0.00  0.00    +0.144 HD
ATOM     12  H   UNL     1      33.940 -10.525 -22.413  0.00  0.00    +0.144 HD
ATOM     13  H   UNL     1      32.622 -11.673 -25.435  0.00  0.00    +0.188 HD
ENDBRANCH   5  10
ENDBRANCH   1   2
BRANCH   1  14
ATOM     14  C   UNL     1      35.450 -17.468 -21.278  0.00  0.00    +0.010 C 
BRANCH  14  15
ATOM     15  C   UNL     1      35.587 -18.978 -21.536  0.00  0.00    +0.027 C 
BRANCH  15  16
ATOM     16  C   UNL     1      34.833 -19.844 -20.558  0.00  0.00    -0.022 C 
ATOM     17  C   UNL     1      35.538 -20.676 -19.703  0.00  0.00    -0.004 C 
ATOM     18  C   UNL     1      33.448 -19.793 -20.531  0.00  0.00    -0.004 C 
ATOM     19  C   UNL     1      34.841 -21.477 -18.798  0.00  0.00    +0.002 C 
ATOM     20  C   UNL     1      32.751 -20.593 -19.627  0.00  0.00    +0.002 C 
ATOM     21  C   UNL     1      33.447 -21.435 -18.759  0.00  0.00    +0.031 C 
BRANCH  21  24
ATOM     22  N   UNL     1      31.362 -22.072 -17.569  0.00  0.00    -0.343 N 
ATOM     23  N   UNL     1      33.348 -23.239 -17.175  0.00  0.00    -0.285 NA
ATOM     24  C   UNL     1      32.719 -22.271 -17.818  0.00  0.00    +0.117 C 
ATOM     25  H   UNL     1      30.889 -22.649 -16.928  0.00  0.00    +0.144 HD
ATOM     26  H   UNL     1      30.877 -21.353 -18.037  0.00  0.00    +0.144 HD
ATOM     27  H   UNL     1      32.857 -23.806 -16.537  0.00  0.00    +0.188 HD
ENDBRANCH  21  24
ENDBRANCH  15  16
ENDBRANCH  14  15
ENDBRANCH   1  14
BRANCH   1  28
ATOM     28  C   UNL     1      33.928 -17.471 -23.324  0.00  0.00    +0.114 C 
BRANCH  28  30
ATOM     29  O   UNL     1      34.344 -16.075 -25.275  0.00  0.00    -0.250 OA
ATOM     30  C   UNL     1      33.607 -16.834 -24.661  0.00  0.00    +0.317 C 
BRANCH  30  31
ATOM     31  O   UNL     1      32.355 -17.218 -25.046  0.00  0.00    -0.444 OA
ATOM     32  C   UNL     1      32.114 -18.628 -25.042  0.00  0.00    +0.256 C 
ENDBRANCH  30  31
ENDBRANCH  28  30
ENDBRANCH   1  28
TORSDOF 9
ENDMDL
MODEL 4
REMARK VINA RESULT:     -11.5      5.768      8.779
REMARK  Name = 444406
REMARK  9 active torsions:
REMARK  status: ('A' for Active; 'I' for Inactive)
REMARK    1  A    between atoms: C_1  and  C_2
REMARK    2  A    between atoms: C_1  and  C_14
REMARK    3  A    between atoms: C_1  and  C_28
REMARK    4  A    between atoms: C_5  and  C_10
REMARK    5  A    between atoms: C_14  and  C_15
REMARK    6  A    between atoms: C_15  and  C_16
REMARK    7  A    between atoms: C_21  and  C_24
REMARK    8  A    between atoms: C_28  and  C_30
REMARK    9  A    between atoms: C_30  and  O_31
REMARK                            x       y       z     vdW  Elec       q    Type
REMARK                         _______ _______ _______ _____ _____    ______ ____
ROOT
ATOM      1  C   UNL     1      32.631 -23.108 -16.164  0.00  0.00    +0.034 C 
ENDROOT
BRANCH   1   2
ATOM      2  C   UNL     1      31.290 -23.391 -15.501  0.00  0.00    -0.022 C 
ATOM      3  C   UNL     1      30.135 -22.961 -16.120  0.00  0.00    -0.002 C 
ATOM      4  C   UNL     1      31.271 -24.067 -14.297  0.00  0.00    -0.004 C 
ATOM      5  C   UNL     1      28.907 -23.220 -15.511  0.00  0.00    +0.030 C 
ATOM      6  C   UNL     1      30.043 -24.326 -13.688  0.00  0.00    -0.000 C 
ATOM      7  C   UNL     1      28.861 -23.902 -14.295  0.00  0.00    +0.003 C 
BRANCH   5  10
ATOM      8  N   UNL     1      26.762 -21.969 -15.468  0.00  0.00    -0.343 N 
ATOM      9  N   UNL     1      27.399 -23.148 -17.381  0.00  0.00    -0.285 NA
ATOM     10  C   UNL     1      27.674 -22.778 -16.143  0.00  0.00    +0.117 C 
ATOM     11  H   UNL     1      25.933 -21.681 -15.914  0.00  0.00    +0.144 HD
ATOM     12  H   UNL     1      26.947 -21.685 -14.543  0.00  0.00    +0.144 HD
ATOM     13  H   UNL     1      26.565 -22.850 -17.811  0.00  0.00    +0.188 HD
ENDBRANCH   5  10
ENDBRANCH   1   2
BRANCH   1  14
ATOM     14  C   UNL     1      32.514 -22.093 -17.330  0.00  0.00    +0.010 C 
BRANCH  14  15
ATOM     15  C   UNL     1      33.255 -22.496 -18.616  0.00  0.00    +0.027 C 
BRANCH  15  16
ATOM     16  C   UNL     1      33.937 -21.352 -19.324  0.00  0.00    -0.022 C 
ATOM     17  C   UNL     1      33.174 -20.453 -20.053  0.00  0.00    -0.004 C 
ATOM     18  C   UNL     1      35.313 -21.218 -19.232  0.00  0.00    -0.004 C 
ATOM     19  C   UNL     1      33.803 -19.394 -20.707  0.00  0.00    +0.002 C 
ATOM     20  C   UNL     1      35.942 -20.159 -19.886  0.00  0.00    +0.002 C 
ATOM     21  C   UNL     1      35.188 -19.246 -20.623  0.00  0.00    +0.031 C 
BRANCH  21  24
ATOM     22  N   UNL     1      35.115 -17.081 -21.838  0.00  0.00    -0.343 N 
ATOM     23  N   UNL     1      37.160 -18.139 -21.435  0.00  0.00    -0.285 NA
ATOM     24  C   UNL     1      35.845 -18.143 -21.306  0.00  0.00    +0.117 C 
ATOM     25  H   UNL     1      35.580 -16.345 -22.297  0.00  0.00    +0.144 HD
ATOM     26  H   UNL     1      34.134 -17.068 -21.754  0.00  0.00    +0.144 HD
ATOM     27  H   UNL     1      37.607 -17.394 -21.897  0.00  0.00    +0.188 HD
ENDBRANCH  21  24
ENDBRANCH  15  16
ENDBRANCH  14  15
ENDBRANCH   1  14
BRANCH   1  28
ATOM     28  C   UNL     1      33.641 -22.618 -15.104  0.00  0.00    +0.114 C 
BRANCH  28  30
ATOM     29  O   UNL     1      35.021 -24.606 -15.367  0.00  0.00    -0.250 OA
ATOM     30  C   UNL     1      34.928 -23.417 -15.095  0.00  0.00    +0.317 C 
BRANCH  30  31
ATOM     31  O   UNL     1      35.953 -22.605 -14.703  0.00  0.00    -0.444 OA
ATOM     32  C   UNL     1      36.670 -21.963 -15.762  0.00  0.00    +0.256 C 
ENDBRANCH  30  31
ENDBRANCH  28  30
ENDBRANCH   1  28
TORSDOF 9
ENDMDL
MODEL 5
REMARK VINA RESULT:     -11.1      4.468      6.968
REMARK  Name = 444406
REMARK  9 active torsions:
REMARK  status: ('A' for Active; 'I' for Inactive)
REMARK    1  A    between atoms: C_1  and  C_2
REMARK    2  A    between atoms: C_1  and  C_14
REMARK    3  A    between atoms: C_1  and  C_28
REMARK    4  A    between atoms: C_5  and  C_10
REMARK    5  A    between atoms: C_14  and  C_15
REMARK    6  A    between atoms: C_15  and  C_16
REMARK    7  A    between atoms: C_21  and  C_24
REMARK    8  A    between atoms: C_28  and  C_30
REMARK    9  A    between atoms: C_30  and  O_31
REMARK                            x       y       z     vdW  Elec       q    Type
REMARK                         _______ _______ _______ _____ _____    ______ ____
ROOT
ATOM      1  C   UNL     1      34.373 -21.648 -17.728  0.00  0.00    +0.034 C 
ENDROOT
BRANCH   1   2
ATOM      2  C   UNL     1      35.350 -22.173 -16.684  0.00  0.00    -0.022 C 
ATOM      3  C   UNL     1      34.893 -23.050 -15.723  0.00  0.00    -0.002 C 
ATOM      4  C   UNL     1      36.664 -21.751 -16.730  0.00  0.00    -0.004 C 
ATOM      5  C   UNL     1      35.789 -23.530 -14.767  0.00  0.00    +0.030 C 
ATOM      6  C   UNL     1      37.559 -22.231 -15.774  0.00  0.00    -0.000 C 
ATOM      7  C   UNL     1      37.121 -23.120 -14.792  0.00  0.00    +0.003 C 
BRANCH   5  10
ATOM      8  N   UNL     1      36.028 -25.632 -13.468  0.00  0.00    -0.343 N 
ATOM      9  N   UNL     1      34.235 -24.192 -13.057  0.00  0.00    -0.285 NA
ATOM     10  C   UNL     1      35.332 -24.457 -13.744  0.00  0.00    +0.117 C 
ATOM     11  H   UNL     1      35.702 -26.247 -12.771  0.00  0.00    +0.144 HD
ATOM     12  H   UNL     1      36.847 -25.850 -13.971  0.00  0.00    +0.144 HD
ATOM     13  H   UNL     1      33.924 -24.819 -12.365  0.00  0.00    +0.188 HD
ENDBRANCH   5  10
ENDBRANCH   1   2
BRANCH   1  14
ATOM     14  C   UNL     1      34.980 -21.634 -19.154  0.00  0.00    +0.010 C 
BRANCH  14  15
ATOM     15  C   UNL     1      35.943 -20.469 -19.437  0.00  0.00    +0.027 C 
BRANCH  15  16
ATOM     16  C   UNL     1      35.502 -19.556 -20.553  0.00  0.00    -0.022 C 
ATOM     17  C   UNL     1      34.240 -19.717 -21.105  0.00  0.00    -0.004 C 
ATOM     18  C   UNL     1      36.364 -18.570 -21.007  0.00  0.00    -0.004 C 
ATOM     19  C   UNL     1      33.831 -18.872 -22.136  0.00  0.00    +0.002 C 
ATOM     20  C   UNL     1      35.955 -17.725 -22.038  0.00  0.00    +0.002 C 
ATOM     21  C   UNL     1      34.688 -17.875 -22.602  0.00  0.00    +0.031 C 
BRANCH  21  24
ATOM     22  N   UNL     1      34.641 -15.653 -23.711  0.00  0.00    -0.343 N 
ATOM     23  N   UNL     1      33.499 -17.463 -24.649  0.00  0.00    -0.285 NA
ATOM     24  C   UNL     1      34.263 -16.994 -23.679  0.00  0.00    +0.117 C 
ATOM     25  H   UNL     1      34.342 -15.074 -24.448  0.00  0.00    +0.144 HD
ATOM     26  H   UNL     1      35.208 -15.285 -22.994  0.00  0.00    +0.144 HD
ATOM     27  H   UNL     1      33.211 -16.868 -25.379  0.00  0.00    +0.188 HD
ENDBRANCH  21  24
ENDBRANCH  15  16
ENDBRANCH  14  15
ENDBRANCH   1  14
BRANCH   1  28
ATOM     28  C   UNL     1      33.074 -22.483 -17.688  0.00  0.00    +0.114 C 
BRANCH  28  30
ATOM     29  O   UNL     1      31.769 -20.818 -18.895  0.00  0.00    -0.250 OA
ATOM     30  C   UNL     1      31.838 -21.673 -18.023  0.00  0.00    +0.317 C 
BRANCH  30  31
ATOM     31  O   UNL     1      30.830 -22.030 -17.172  0.00  0.00    -0.444 OA
ATOM     32  C   UNL     1      31.229 -22.796 -16.032  0.00  0.00    +0.256 C 
ENDBRANCH  30  31
ENDBRANCH  28  30
ENDBRANCH   1  28
TORSDOF 9
ENDMDL
MODEL 6
REMARK VINA RESULT:     -11.0      1.051      7.729
REMARK  Name = 444406
REMARK  9 active torsions:
REMARK  status: ('A' for Active; 'I' for Inactive)
REMARK    1  A    between atoms: C_1  and  C_2
REMARK    2  A    between atoms: C_1  and  C_14
REMARK    3  A    between atoms: C_1  and  C_28
REMARK    4  A    between atoms: C_5  and  C_10
REMARK    5  A    between atoms: C_14  and  C_15
REMARK    6  A    between atoms: C_15  and  C_16
REMARK    7  A    between atoms: C_21  and  C_24
REMARK    8  A    between atoms: C_28  and  C_30
REMARK    9  A    between atoms: C_30  and  O_31
REMARK                            x       y       z     vdW  Elec       q    Type
REMARK                         _______ _______ _______ _____ _____    ______ ____
ROOT
ATOM      1  C   UNL     1      34.631 -15.310 -22.644  0.00  0.00    +0.034 C 
ENDROOT
BRANCH   1   2
ATOM      2  C   UNL     1      33.656 -14.490 -21.811  0.00  0.00    -0.022 C 
ATOM      3  C   UNL     1      33.124 -13.336 -22.348  0.00  0.00    -0.002 C 
ATOM      4  C   UNL     1      33.336 -14.926 -20.540  0.00  0.00    -0.004 C 
ATOM      5  C   UNL     1      32.231 -12.586 -21.583  0.00  0.00    +0.030 C 
ATOM      6  C   UNL     1      32.443 -14.174 -19.775  0.00  0.00    -0.000 C 
ATOM      7  C   UNL     1      31.891 -13.004 -20.297  0.00  0.00    +0.003 C 
BRANCH   5  10
ATOM      8  N   UNL     1      32.314 -10.630 -23.110  0.00  0.00    -0.343 N 
ATOM      9  N   UNL     1      30.488 -10.934 -21.684  0.00  0.00    -0.285 NA
ATOM     10  C   UNL     1      31.656 -11.366 -22.126  0.00  0.00    +0.117 C 
ATOM     11  H   UNL     1      31.907  -9.806 -23.464  0.00  0.00    +0.144 HD
ATOM     12  H   UNL     1      33.186 -10.933 -23.451  0.00  0.00    +0.144 HD
ATOM     13  H   UNL     1      30.098 -10.108 -22.050  0.00  0.00    +0.188 HD
ENDBRANCH   5  10
ENDBRANCH   1   2
BRANCH   1  14
ATOM     14  C   UNL     1      34.385 -16.835 -22.516  0.00  0.00    +0.010 C 
BRANCH  14  15
ATOM     15  C   UNL     1      35.561 -17.633 -21.927  0.00  0.00    +0.027 C 
BRANCH  15  16
ATOM     16  C   UNL     1      35.149 -18.799 -21.064  0.00  0.00    -0.022 C 
ATOM     17  C   UNL     1      36.118 -19.510 -20.374  0.00  0.00    -0.004 C 
ATOM     18  C   UNL     1      33.808 -19.139 -20.974  0.00  0.00    -0.004 C 
ATOM     19  C   UNL     1      35.738 -20.588 -19.574  0.00  0.00    +0.002 C 
ATOM     20  C   UNL     1      33.428 -20.217 -20.175  0.00  0.00    +0.002 C 
ATOM     21  C   UNL     1      34.392 -20.941 -19.474  0.00  0.00    +0.031 C 
BRANCH  21  24
ATOM     22  N   UNL     1      34.307 -22.110 -17.285  0.00  0.00    -0.343 N 
ATOM     23  N   UNL     1      33.327 -23.074 -19.175  0.00  0.00    -0.285 NA
ATOM     24  C   UNL     1      33.995 -22.066 -18.643  0.00  0.00    +0.117 C 
ATOM     25  H   UNL     1      34.029 -22.881 -16.740  0.00  0.00    +0.144 HD
ATOM     26  H   UNL     1      34.807 -21.369 -16.871  0.00  0.00    +0.144 HD
ATOM     27  H   UNL     1      33.057 -23.836 -18.613  0.00  0.00    +0.188 HD
ENDBRANCH  21  24
ENDBRANCH  15  16
ENDBRANCH  14  15
ENDBRANCH   1  14
BRANCH   1  28
ATOM     28  C   UNL     1      34.557 -14.862 -24.120  0.00  0.00    +0.114 C 
BRANCH  28  30
ATOM     29  O   UNL     1      33.086 -16.719 -24.682  0.00  0.00    -0.250 OA
ATOM     30  C   UNL     1      33.482 -15.584 -24.907  0.00  0.00    +0.317 C 
BRANCH  30  31
ATOM     31  O   UNL     1      33.058 -14.777 -25.924  0.00  0.00    -0.444 OA
ATOM     32  C   UNL     1      32.720 -13.439 -25.547  0.00  0.00    +0.256 C 
ENDBRANCH  30  31
ENDBRANCH  28  30
ENDBRANCH   1  28
TORSDOF 9
ENDMDL
MODEL 7
REMARK VINA RESULT:     -10.9      5.084      7.845
REMARK  Name = 444406
REMARK  9 active torsions:
REMARK  status: ('A' for Active; 'I' for Inactive)
REMARK    1  A    between atoms: C_1  and  C_2
REMARK    2  A    between atoms: C_1  and  C_14
REMARK    3  A    between atoms: C_1  and  C_28
REMARK    4  A    between atoms: C_5  and  C_10
REMARK    5  A    between atoms: C_14  and  C_15
REMARK    6  A    between atoms: C_15  and  C_16
REMARK    7  A    between atoms: C_21  and  C_24
REMARK    8  A    between atoms: C_28  and  C_30
REMARK    9  A    between atoms: C_30  and  O_31
REMARK                            x       y       z     vdW  Elec       q    Type
REMARK                         _______ _______ _______ _____ _____    ______ ____
ROOT
ATOM      1  C   UNL     1      34.572 -22.461 -17.240  0.00  0.00    +0.034 C 
ENDROOT
BRANCH   1   2
ATOM      2  C   UNL     1      33.207 -22.608 -16.583  0.00  0.00    -0.022 C 
ATOM      3  C   UNL     1      33.132 -23.131 -15.309  0.00  0.00    -0.002 C 
ATOM      4  C   UNL     1      32.084 -22.215 -17.284  0.00  0.00    -0.004 C 
ATOM      5  C   UNL     1      31.880 -23.266 -14.707  0.00  0.00    +0.030 C 
ATOM      6  C   UNL     1      30.832 -22.351 -16.682  0.00  0.00    -0.000 C 
ATOM      7  C   UNL     1      30.731 -22.876 -15.394  0.00  0.00    +0.003 C 
BRANCH   5  10
ATOM      8  N   UNL     1      32.869 -24.399 -12.732  0.00  0.00    -0.343 N 
ATOM      9  N   UNL     1      30.620 -23.766 -12.723  0.00  0.00    -0.285 NA
ATOM     10  C   UNL     1      31.774 -23.814 -13.365  0.00  0.00    +0.117 C 
ATOM     11  H   UNL     1      32.776 -24.764 -11.822  0.00  0.00    +0.144 HD
ATOM     12  H   UNL     1      33.737 -24.447 -13.194  0.00  0.00    +0.144 HD
ATOM     13  H   UNL     1      30.547 -24.136 -11.814  0.00  0.00    +0.188 HD
ENDBRANCH   5  10
ENDBRANCH   1   2
BRANCH   1  14
ATOM     14  C   UNL     1      34.486 -21.825 -18.651  0.00  0.00    +0.010 C 
BRANCH  14  15
ATOM     15  C   UNL     1      35.669 -20.917 -19.026  0.00  0.00    +0.027 C 
BRANCH  15  16
ATOM     16  C   UNL     1      35.361 -19.909 -20.104  0.00  0.00    -0.022 C 
ATOM     17  C   UNL     1      36.356 -19.044 -20.531  0.00  0.00    -0.004 C 
ATOM     18  C   UNL     1      34.087 -19.865 -20.650  0.00  0.00    -0.004 C 
ATOM     19  C   UNL     1      36.071 -18.112 -21.529  0.00  0.00    +0.002 C 
ATOM     20  C   UNL     1      33.803 -18.934 -21.649  0.00  0.00    +0.002 C 
ATOM     21  C   UNL     1      34.795 -18.057 -22.089  0.00  0.00    +0.031 C 
BRANCH  21  24
ATOM     22  N   UNL     1      34.942 -15.767 -23.038  0.00  0.00    -0.343 N 
ATOM     23  N   UNL     1      33.785 -17.445 -24.181  0.00  0.00    -0.285 NA
ATOM     24  C   UNL     1      34.496 -17.085 -23.128  0.00  0.00    +0.117 C 
ATOM     25  H   UNL     1      34.729 -15.125 -23.752  0.00  0.00    +0.144 HD
ATOM     26  H   UNL     1      35.471 -15.479 -22.258  0.00  0.00    +0.144 HD
ATOM     27  H   UNL     1      33.582 -16.788 -24.886  0.00  0.00    +0.188 HD
ENDBRANCH  21  24
ENDBRANCH  15  16
ENDBRANCH  14  15
ENDBRANCH   1  14
BRANCH   1  28
ATOM     28  C   UNL     1      35.505 -21.642 -16.321  0.00  0.00    +0.114 C 
BRANCH  28  30
ATOM     29  O   UNL     1      37.885 -22.032 -15.993  0.00  0.00    -0.250 OA
ATOM     30  C   UNL     1      36.729 -22.415 -15.877  0.00  0.00    +0.317 C 
BRANCH  30  31
ATOM     31  O   UNL     1      36.334 -23.616 -15.360  0.00  0.00    -0.444 OA
ATOM     32  C   UNL     1      36.778 -23.889 -14.028  0.00  0.00    +0.256 C 
ENDBRANCH  30  31
ENDBRANCH  28  30
ENDBRANCH   1  28
TORSDOF 9
ENDMDL
MODEL 8
REMARK VINA RESULT:     -10.7      5.434      8.464
REMARK  Name = 444406
REMARK  9 active torsions:
REMARK  status: ('A' for Active; 'I' for Inactive)
REMARK    1  A    between atoms: C_1  and  C_2
REMARK    2  A    between atoms: C_1  and  C_14
REMARK    3  A    between atoms: C_1  and  C_28
REMARK    4  A    between atoms: C_5  and  C_10
REMARK    5  A    between atoms: C_14  and  C_15
REMARK    6  A    between atoms: C_15  and  C_16
REMARK    7  A    between atoms: C_21  and  C_24
REMARK    8  A    between atoms: C_28  and  C_30
REMARK    9  A    between atoms: C_30  and  O_31
REMARK                            x       y       z     vdW  Elec       q    Type
REMARK                         _______ _______ _______ _____ _____    ______ ____
ROOT
ATOM      1  C   UNL     1      33.055 -23.145 -16.753  0.00  0.00    +0.034 C 
ENDROOT
BRANCH   1   2
ATOM      2  C   UNL     1      31.632 -23.060 -16.221  0.00  0.00    -0.022 C 
ATOM      3  C   UNL     1      31.245 -23.913 -15.208  0.00  0.00    -0.002 C 
ATOM      4  C   UNL     1      30.769 -22.132 -16.770  0.00  0.00    -0.004 C 
ATOM      5  C   UNL     1      29.940 -23.834 -14.722  0.00  0.00    +0.030 C 
ATOM      6  C   UNL     1      29.464 -22.054 -16.283  0.00  0.00    -0.000 C 
ATOM      7  C   UNL     1      29.050 -22.905 -15.259  0.00  0.00    +0.003 C 
BRANCH   5  10
ATOM      8  N   UNL     1      28.500 -25.663 -13.857  0.00  0.00    -0.343 N 
ATOM      9  N   UNL     1      30.071 -24.641 -12.461  0.00  0.00    -0.285 NA
ATOM     10  C   UNL     1      29.508 -24.722 -13.654  0.00  0.00    +0.117 C 
ATOM     11  H   UNL     1      28.222 -26.255 -13.121  0.00  0.00    +0.144 HD
ATOM     12  H   UNL     1      28.066 -25.737 -14.738  0.00  0.00    +0.144 HD
ATOM     13  H   UNL     1      29.779 -25.241 -11.738  0.00  0.00    +0.188 HD
ENDBRANCH   5  10
ENDBRANCH   1   2
BRANCH   1  14
ATOM     14  C   UNL     1      33.215 -22.461 -18.135  0.00  0.00    +0.010 C 
BRANCH  14  15
ATOM     15  C   UNL     1      34.573 -21.778 -18.367  0.00  0.00    +0.027 C 
BRANCH  15  16
ATOM     16  C   UNL     1      34.571 -20.752 -19.472  0.00  0.00    -0.022 C 
ATOM     17  C   UNL     1      33.369 -20.380 -20.053  0.00  0.00    -0.004 C 
ATOM     18  C   UNL     1      35.771 -20.196 -19.887  0.00  0.00    -0.004 C 
ATOM     19  C   UNL     1      33.366 -19.430 -21.074  0.00  0.00    +0.002 C 
ATOM     20  C   UNL     1      35.769 -19.245 -20.907  0.00  0.00    +0.002 C 
ATOM     21  C   UNL     1      34.566 -18.862 -21.501  0.00  0.00    +0.031 C 
BRANCH  21  24
ATOM     22  N   UNL     1      33.838 -18.071 -23.740  0.00  0.00    -0.343 N 
ATOM     23  N   UNL     1      35.266 -16.762 -22.434  0.00  0.00    -0.285 NA
ATOM     24  C   UNL     1      34.565 -17.873 -22.567  0.00  0.00    +0.117 C 
ATOM     25  H   UNL     1      33.851 -17.389 -24.449  0.00  0.00    +0.144 HD
ATOM     26  H   UNL     1      33.311 -18.895 -23.858  0.00  0.00    +0.144 HD
ATOM     27  H   UNL     1      35.267 -16.090 -23.155  0.00  0.00    +0.188 HD
ENDBRANCH  21  24
ENDBRANCH  15  16
ENDBRANCH  14  15
ENDBRANCH   1  14
BRANCH   1  28
ATOM     28  C   UNL     1      34.032 -22.540 -15.722  0.00  0.00    +0.114 C 
BRANCH  28  30
ATOM     29  O   UNL     1      34.585 -24.383 -14.230  0.00  0.00    -0.250 OA
ATOM     30  C   UNL     1      34.933 -23.575 -15.079  0.00  0.00    +0.317 C 
BRANCH  30  31
ATOM     31  O   UNL     1      36.198 -23.434 -15.576  0.00  0.00    -0.444 OA
ATOM     32  C   UNL     1      36.769 -22.129 -15.442  0.00  0.00    +0.256 C 
ENDBRANCH  30  31
ENDBRANCH  28  30
ENDBRANCH   1  28
TORSDOF 9
ENDMDL
MODEL 9
REMARK VINA RESULT:     -10.7      8.210     11.147
REMARK  Name = 444406
REMARK  9 active torsions:
REMARK  status: ('A' for Active; 'I' for Inactive)
REMARK    1  A    between atoms: C_1  and  C_2
REMARK    2  A    between atoms: C_1  and  C_14
REMARK    3  A    between atoms: C_1  and  C_28
REMARK    4  A    between atoms: C_5  and  C_10
REMARK    5  A    between atoms: C_14  and  C_15
REMARK    6  A    between atoms: C_15  and  C_16
REMARK    7  A    between atoms: C_21  and  C_24
REMARK    8  A    between atoms: C_28  and  C_30
REMARK    9  A    between atoms: C_30  and  O_31
REMARK                            x       y       z     vdW  Elec       q    Type
REMARK                         _______ _______ _______ _____ _____    ______ ____
ROOT
ATOM      1  C   UNL     1      34.636 -23.191 -14.010  0.00  0.00    +0.034 C 
ENDROOT
BRANCH   1   2
ATOM      2  C   UNL     1      35.162 -22.538 -15.282  0.00  0.00    -0.022 C 
ATOM      3  C   UNL     1      34.358 -22.516 -16.402  0.00  0.00    -0.002 C 
ATOM      4  C   UNL     1      36.429 -21.991 -15.275  0.00  0.00    -0.004 C 
ATOM      5  C   UNL     1      34.841 -21.918 -17.567  0.00  0.00    +0.030 C 
ATOM      6  C   UNL     1      36.912 -21.394 -16.439  0.00  0.00    -0.000 C 
ATOM      7  C   UNL     1      36.117 -21.358 -17.585  0.00  0.00    +0.003 C 
BRANCH   5  10
ATOM      8  N   UNL     1      33.796 -20.692 -19.457  0.00  0.00    -0.343 N 
ATOM      9  N   UNL     1      33.445 -22.988 -19.205  0.00  0.00    -0.285 NA
ATOM     10  C   UNL     1      34.013 -21.881 -18.762  0.00  0.00    +0.117 C 
ATOM     11  H   UNL     1      33.232 -20.689 -20.263  0.00  0.00    +0.144 HD
ATOM     12  H   UNL     1      34.208 -19.855 -19.141  0.00  0.00    +0.144 HD
ATOM     13  H   UNL     1      32.884 -22.965 -20.014  0.00  0.00    +0.188 HD
ENDBRANCH   5  10
ENDBRANCH   1   2
BRANCH   1  14
ATOM     14  C   UNL     1      33.583 -24.291 -14.299  0.00  0.00    +0.010 C 
BRANCH  14  15
ATOM     15  C   UNL     1      32.328 -24.235 -13.413  0.00  0.00    +0.027 C 
BRANCH  15  16
ATOM     16  C   UNL     1      31.066 -23.856 -14.148  0.00  0.00    -0.022 C 
ATOM     17  C   UNL     1      29.957 -24.683 -14.065  0.00  0.00    -0.004 C 
ATOM     18  C   UNL     1      31.038 -22.687 -14.891  0.00  0.00    -0.004 C 
ATOM     19  C   UNL     1      28.790 -24.332 -14.743  0.00  0.00    +0.002 C 
ATOM     20  C   UNL     1      29.870 -22.336 -15.570  0.00  0.00    +0.002 C 
ATOM     21  C   UNL     1      28.746 -23.158 -15.495  0.00  0.00    +0.031 C 
BRANCH  21  24
ATOM     22  N   UNL     1      26.563 -21.981 -15.615  0.00  0.00    -0.343 N 
ATOM     23  N   UNL     1      27.325 -23.236 -17.432  0.00  0.00    -0.285 NA
ATOM     24  C   UNL     1      27.530 -22.792 -16.205  0.00  0.00    +0.117 C 
ATOM     25  H   UNL     1      25.747 -21.745 -16.112  0.00  0.00    +0.144 HD
ATOM     26  H   UNL     1      26.696 -21.643 -14.699  0.00  0.00    +0.144 HD
ATOM     27  H   UNL     1      26.503 -22.990 -17.914  0.00  0.00    +0.188 HD
ENDBRANCH  21  24
ENDBRANCH  15  16
ENDBRANCH  14  15
ENDBRANCH   1  14
BRANCH   1  28
ATOM     28  C   UNL     1      35.816 -23.757 -13.191  0.00  0.00    +0.114 C 
BRANCH  28  30
ATOM     29  O   UNL     1      34.697 -23.405 -11.058  0.00  0.00    -0.250 OA
ATOM     30  C   UNL     1      35.446 -24.073 -11.756  0.00  0.00    +0.317 C 
BRANCH  30  31
ATOM     31  O   UNL     1      36.110 -25.201 -11.365  0.00  0.00    -0.444 OA
ATOM     32  C   UNL     1      36.905 -25.829 -12.375  0.00  0.00    +0.256 C 
ENDBRANCH  30  31
ENDBRANCH  28  30
ENDBRANCH   1  28
TORSDOF 9
ENDMDL
