MODEL 1
REMARK VINA RESULT:     -12.9      0.000      0.000
REMARK  Name = 3351
REMARK  5 active torsions:
REMARK  status: ('A' for Active; 'I' for Inactive)
REMARK    1  A    between atoms: N_2  and  C_10
REMARK    2  A    between atoms: C_8  and  C_20
REMARK    3  A    between atoms: C_10  and  C_13
REMARK    4  A    between atoms: C_20  and  O_21
REMARK    5  A    between atoms: O_21  and  C_23
REMARK                            x       y       z     vdW  Elec       q    Type
REMARK                         _______ _______ _______ _____ _____    ______ ____
ROOT
ATOM      1  O   UNL     1      34.892 -16.659 -23.381  0.00  0.00    -0.271 OA
ATOM      2  N   UNL     1      32.425 -12.650 -21.722  0.00  0.00    +0.392 N 
ATOM      3  N   UNL     1      34.111 -14.947 -22.019  0.00  0.00    -0.281 N 
ATOM      4  C   UNL     1      32.569 -13.305 -23.030  0.00  0.00    -0.055 C 
ATOM      5  C   UNL     1      32.536 -13.637 -20.637  0.00  0.00    -0.055 C 
ATOM      6  C   UNL     1      33.916 -14.019 -23.133  0.00  0.00    +0.071 C 
ATOM      7  C   UNL     1      33.881 -14.364 -20.695  0.00  0.00    +0.071 C 
ATOM      8  C   UNL     1      34.600 -16.230 -22.262  0.00  0.00    +0.270 C 
ATOM      9  H   UNL     1      33.178 -11.970 -21.617  0.00  0.00    -0.079 HD
ENDROOT
BRANCH   2  10
ATOM     10  C   UNL     1      31.150 -11.940 -21.640  0.00  0.00    -0.050 C 
BRANCH  10  13
ATOM     11  O   UNL     1      31.464  -7.012 -21.677  0.00  0.00    -0.435 OA
ATOM     12  O   UNL     1      31.689  -6.893 -19.280  0.00  0.00    -0.435 OA
ATOM     13  C   UNL     1      31.297 -10.599 -20.971  0.00  0.00    -0.040 C 
ATOM     14  C   UNL     1      31.299  -9.447 -21.751  0.00  0.00    +0.034 C 
ATOM     15  C   UNL     1      31.427 -10.541 -19.579  0.00  0.00    -0.003 C 
ATOM     16  C   UNL     1      31.437  -8.241 -21.093  0.00  0.00    +0.176 C 
ATOM     17  C   UNL     1      31.565  -8.174 -19.725  0.00  0.00    +0.176 C 
ATOM     18  C   UNL     1      31.565  -9.307 -18.938  0.00  0.00    +0.040 C 
ATOM     19  C   UNL     1      31.623  -6.163 -20.523  0.00  0.00    +0.429 C 
ENDBRANCH  10  13
ENDBRANCH   2  10
BRANCH   8  20
ATOM     20  C   UNL     1      34.767 -17.127 -21.062  0.00  0.00    +0.290 C 
BRANCH  20  21
ATOM     21  O   UNL     1      34.853 -18.442 -21.551  0.00  0.00    -0.466 OA
BRANCH  21  23
ATOM     22 CL   UNL     1      33.142 -22.764 -17.962  0.00  0.00    -0.082 Cl
ATOM     23  C   UNL     1      34.451 -19.457 -20.711  0.00  0.00    +0.139 C 
ATOM     24  C   UNL     1      33.098 -19.694 -20.527  0.00  0.00    +0.038 C 
ATOM     25  C   UNL     1      35.408 -20.223 -20.062  0.00  0.00    +0.038 C 
ATOM     26  C   UNL     1      32.691 -20.720 -19.674  0.00  0.00    +0.015 C 
ATOM     27  C   UNL     1      35.002 -21.250 -19.209  0.00  0.00    +0.015 C 
ATOM     28  C   UNL     1      33.644 -21.499 -19.015  0.00  0.00    +0.058 C 
ENDBRANCH  21  23
ENDBRANCH  20  21
ENDBRANCH   8  20
TORSDOF 5
ENDMDL
MODEL 2
REMARK VINA RESULT:     -12.7      0.548      1.575
REMARK  Name = 3351
REMARK  5 active torsions:
REMARK  status: ('A' for Active; 'I' for Inactive)
REMARK    1  A    between atoms: N_2  and  C_10
REMARK    2  A    between atoms: C_8  and  C_20
REMARK    3  A    between atoms: C_10  and  C_13
REMARK    4  A    between atoms: C_20  and  O_21
REMARK    5  A    between atoms: O_21  and  C_23
REMARK                            x       y       z     vdW  Elec       q    Type
REMARK                         _______ _______ _______ _____ _____    ______ ____
ROOT
ATOM      1  O   UNL     1      34.665 -16.515 -23.577  0.00  0.00    -0.271 OA
ATOM      2  N   UNL     1      32.358 -12.535 -21.641  0.00  0.00    +0.392 N 
ATOM      3  N   UNL     1      34.005 -14.828 -22.122  0.00  0.00    -0.281 N 
ATOM      4  C   UNL     1      32.390 -13.164 -22.969  0.00  0.00    -0.055 C 
ATOM      5  C   UNL     1      32.555 -13.542 -20.589  0.00  0.00    -0.055 C 
ATOM      6  C   UNL     1      33.722 -13.878 -23.197  0.00  0.00    +0.071 C 
ATOM      7  C   UNL     1      33.888 -14.271 -20.772  0.00  0.00    +0.071 C 
ATOM      8  C   UNL     1      34.468 -16.107 -22.429  0.00  0.00    +0.270 C 
ATOM      9  H   UNL     1      33.119 -11.858 -21.586  0.00  0.00    -0.079 HD
ENDROOT
BRANCH   2  10
ATOM     10  C   UNL     1      31.096 -11.823 -21.440  0.00  0.00    -0.050 C 
BRANCH  10  13
ATOM     11  O   UNL     1      31.481  -7.464 -19.154  0.00  0.00    -0.435 OA
ATOM     12  O   UNL     1      31.805  -6.276 -21.226  0.00  0.00    -0.435 OA
ATOM     13  C   UNL     1      31.290 -10.331 -21.420  0.00  0.00    -0.040 C 
ATOM     14  C   UNL     1      31.280  -9.660 -20.201  0.00  0.00    +0.034 C 
ATOM     15  C   UNL     1      31.477  -9.650 -22.629  0.00  0.00    -0.003 C 
ATOM     16  C   UNL     1      31.461  -8.292 -20.233  0.00  0.00    +0.176 C 
ATOM     17  C   UNL     1      31.646  -7.614 -21.417  0.00  0.00    +0.176 C 
ATOM     18  C   UNL     1      31.659  -8.265 -22.633  0.00  0.00    +0.040 C 
ATOM     19  C   UNL     1      31.699  -6.188 -19.789  0.00  0.00    +0.429 C 
ENDBRANCH  10  13
ENDBRANCH   2  10
BRANCH   8  20
ATOM     20  C   UNL     1      34.731 -17.027 -21.264  0.00  0.00    +0.290 C 
BRANCH  20  21
ATOM     21  O   UNL     1      34.660 -18.340 -21.763  0.00  0.00    -0.466 OA
BRANCH  21  23
ATOM     22 CL   UNL     1      33.183 -22.593 -17.993  0.00  0.00    -0.082 Cl
ATOM     23  C   UNL     1      34.314 -19.336 -20.878  0.00  0.00    +0.139 C 
ATOM     24  C   UNL     1      35.311 -20.025 -20.205  0.00  0.00    +0.038 C 
ATOM     25  C   UNL     1      32.974 -19.633 -20.676  0.00  0.00    +0.038 C 
ATOM     26  C   UNL     1      34.960 -21.036 -19.309  0.00  0.00    +0.015 C 
ATOM     27  C   UNL     1      32.624 -20.644 -19.781  0.00  0.00    +0.015 C 
ATOM     28  C   UNL     1      33.616 -21.345 -19.097  0.00  0.00    +0.058 C 
ENDBRANCH  21  23
ENDBRANCH  20  21
ENDBRANCH   8  20
TORSDOF 5
ENDMDL
MODEL 3
REMARK VINA RESULT:     -12.5      5.454      8.022
REMARK  Name = 3351
REMARK  5 active torsions:
REMARK  status: ('A' for Active; 'I' for Inactive)
REMARK    1  A    between atoms: N_2  and  C_10
REMARK    2  A    between atoms: C_8  and  C_20
REMARK    3  A    between atoms: C_10  and  C_13
REMARK    4  A    between atoms: C_20  and  O_21
REMARK    5  A    between atoms: O_21  and  C_23
REMARK                            x       y       z     vdW  Elec       q    Type
REMARK                         _______ _______ _______ _____ _____    ______ ____
ROOT
ATOM      1  O   UNL     1      31.216 -21.946 -17.475  0.00  0.00    -0.271 OA
ATOM      2  N   UNL     1      34.556 -20.040 -20.657  0.00  0.00    +0.392 N 
ATOM      3  N   UNL     1      33.077 -21.690 -18.842  0.00  0.00    -0.281 N 
ATOM      4  C   UNL     1      33.238 -19.612 -20.164  0.00  0.00    -0.055 C 
ATOM      5  C   UNL     1      35.254 -20.832 -19.635  0.00  0.00    -0.055 C 
ATOM      6  C   UNL     1      32.382 -20.821 -19.790  0.00  0.00    +0.071 C 
ATOM      7  C   UNL     1      34.436 -22.065 -19.243  0.00  0.00    +0.071 C 
ATOM      8  C   UNL     1      32.398 -22.188 -17.730  0.00  0.00    +0.270 C 
ATOM      9  H   UNL     1      34.418 -20.626 -21.481  0.00  0.00    -0.079 HD
ENDROOT
BRANCH   2  10
ATOM     10  C   UNL     1      35.359 -18.882 -21.046  0.00  0.00    -0.050 C 
BRANCH  10  13
ATOM     11  O   UNL     1      34.178 -14.775 -23.520  0.00  0.00    -0.435 OA
ATOM     12  O   UNL     1      33.141 -16.013 -25.309  0.00  0.00    -0.435 OA
ATOM     13  C   UNL     1      34.753 -18.143 -22.209  0.00  0.00    -0.040 C 
ATOM     14  C   UNL     1      34.802 -16.753 -22.232  0.00  0.00    +0.034 C 
ATOM     15  C   UNL     1      34.153 -18.872 -23.243  0.00  0.00    -0.003 C 
ATOM     16  C   UNL     1      34.232 -16.120 -23.318  0.00  0.00    +0.176 C 
ATOM     17  C   UNL     1      33.640 -16.827 -24.339  0.00  0.00    +0.176 C 
ATOM     18  C   UNL     1      33.584 -18.205 -24.331  0.00  0.00    +0.040 C 
ATOM     19  C   UNL     1      33.486 -14.715 -24.784  0.00  0.00    +0.429 C 
ENDBRANCH  10  13
ENDBRANCH   2  10
BRANCH   8  20
ATOM     20  C   UNL     1      33.188 -23.073 -16.799  0.00  0.00    +0.290 C 
BRANCH  20  21
ATOM     21  O   UNL     1      34.037 -22.227 -16.063  0.00  0.00    -0.466 OA
BRANCH  21  23
ATOM     22 CL   UNL     1      39.213 -24.423 -14.369  0.00  0.00    -0.082 Cl
ATOM     23  C   UNL     1      35.251 -22.741 -15.665  0.00  0.00    +0.139 C 
ATOM     24  C   UNL     1      36.418 -22.072 -16.001  0.00  0.00    +0.038 C 
ATOM     25  C   UNL     1      35.285 -23.920 -14.934  0.00  0.00    +0.038 C 
ATOM     26  C   UNL     1      37.647 -22.594 -15.599  0.00  0.00    +0.015 C 
ATOM     27  C   UNL     1      36.515 -24.441 -14.532  0.00  0.00    +0.015 C 
ATOM     28  C   UNL     1      37.695 -23.779 -14.864  0.00  0.00    +0.058 C 
ENDBRANCH  21  23
ENDBRANCH  20  21
ENDBRANCH   8  20
TORSDOF 5
ENDMDL
MODEL 4
REMARK VINA RESULT:     -12.1      3.885     10.015
REMARK  Name = 3351
REMARK  5 active torsions:
REMARK  status: ('A' for Active; 'I' for Inactive)
REMARK    1  A    between atoms: N_2  and  C_10
REMARK    2  A    between atoms: C_8  and  C_20
REMARK    3  A    between atoms: C_10  and  C_13
REMARK    4  A    between atoms: C_20  and  O_21
REMARK    5  A    between atoms: O_21  and  C_23
REMARK                            x       y       z     vdW  Elec       q    Type
REMARK                         _______ _______ _______ _____ _____    ______ ____
ROOT
ATOM      1  O   UNL     1      33.763 -15.916 -25.155  0.00  0.00    -0.271 OA
ATOM      2  N   UNL     1      34.912 -18.887 -21.312  0.00  0.00    +0.392 N 
ATOM      3  N   UNL     1      34.057 -16.738 -23.002  0.00  0.00    -0.281 N 
ATOM      4  C   UNL     1      34.875 -19.056 -22.772  0.00  0.00    -0.055 C 
ATOM      5  C   UNL     1      35.230 -17.495 -20.963  0.00  0.00    -0.055 C 
ATOM      6  C   UNL     1      33.834 -18.128 -23.398  0.00  0.00    +0.071 C 
ATOM      7  C   UNL     1      34.200 -16.532 -21.558  0.00  0.00    +0.071 C 
ATOM      8  C   UNL     1      33.998 -15.726 -23.959  0.00  0.00    +0.270 C 
ATOM      9  H   UNL     1      33.989 -19.111 -20.937  0.00  0.00    -0.079 HD
ENDROOT
BRANCH   2  10
ATOM     10  C   UNL     1      35.884 -19.801 -20.714  0.00  0.00    -0.050 C 
BRANCH  10  13
ATOM     11  O   UNL     1      32.132 -22.010 -18.386  0.00  0.00    -0.435 OA
ATOM     12  O   UNL     1      33.537 -22.736 -16.566  0.00  0.00    -0.435 OA
ATOM     13  C   UNL     1      35.287 -20.593 -19.581  0.00  0.00    -0.040 C 
ATOM     14  C   UNL     1      33.928 -20.894 -19.604  0.00  0.00    +0.034 C 
ATOM     15  C   UNL     1      36.111 -21.009 -18.530  0.00  0.00    -0.003 C 
ATOM     16  C   UNL     1      33.426 -21.621 -18.544  0.00  0.00    +0.176 C 
ATOM     17  C   UNL     1      34.228 -22.035 -17.506  0.00  0.00    +0.176 C 
ATOM     18  C   UNL     1      35.577 -21.745 -17.469  0.00  0.00    +0.040 C 
ATOM     19  C   UNL     1      32.209 -22.716 -17.131  0.00  0.00    +0.429 C 
ENDBRANCH  10  13
ENDBRANCH   2  10
BRANCH   8  20
ATOM     20  C   UNL     1      34.244 -14.321 -23.471  0.00  0.00    +0.290 C 
BRANCH  20  21
ATOM     21  O   UNL     1      33.109 -13.568 -23.821  0.00  0.00    -0.466 OA
BRANCH  21  23
ATOM     22 CL   UNL     1      30.925  -9.923 -19.769  0.00  0.00    -0.082 Cl
ATOM     23  C   UNL     1      32.599 -12.713 -22.870  0.00  0.00    +0.139 C 
ATOM     24  C   UNL     1      32.325 -13.193 -21.598  0.00  0.00    +0.038 C 
ATOM     25  C   UNL     1      32.365 -11.386 -23.201  0.00  0.00    +0.038 C 
ATOM     26  C   UNL     1      31.806 -12.328 -20.636  0.00  0.00    +0.015 C 
ATOM     27  C   UNL     1      31.846 -10.521 -22.238  0.00  0.00    +0.015 C 
ATOM     28  C   UNL     1      31.566 -10.990 -20.956  0.00  0.00    +0.058 C 
ENDBRANCH  21  23
ENDBRANCH  20  21
ENDBRANCH   8  20
TORSDOF 5
ENDMDL
MODEL 5
REMARK VINA RESULT:     -12.1      3.863     10.011
REMARK  Name = 3351
REMARK  5 active torsions:
REMARK  status: ('A' for Active; 'I' for Inactive)
REMARK    1  A    between atoms: N_2  and  C_10
REMARK    2  A    between atoms: C_8  and  C_20
REMARK    3  A    between atoms: C_10  and  C_13
REMARK    4  A    between atoms: C_20  and  O_21
REMARK    5  A    between atoms: O_21  and  C_23
REMARK                            x       y       z     vdW  Elec       q    Type
REMARK                         _______ _______ _______ _____ _____    ______ ____
ROOT
ATOM      1  O   UNL     1      32.651 -13.019 -25.463  0.00  0.00    -0.271 OA
ATOM      2  N   UNL     1      34.363 -16.824 -22.722  0.00  0.00    +0.392 N 
ATOM      3  N   UNL     1      33.190 -14.385 -23.662  0.00  0.00    -0.281 N 
ATOM      4  C   UNL     1      34.220 -16.572 -24.163  0.00  0.00    -0.055 C 
ATOM      5  C   UNL     1      34.588 -15.563 -22.000  0.00  0.00    -0.055 C 
ATOM      6  C   UNL     1      33.056 -15.620 -24.434  0.00  0.00    +0.071 C 
ATOM      7  C   UNL     1      33.434 -14.586 -22.231  0.00  0.00    +0.071 C 
ATOM      8  C   UNL     1      32.966 -13.154 -24.277  0.00  0.00    +0.270 C 
ATOM      9  H   UNL     1      33.497 -17.241 -22.380  0.00  0.00    -0.079 HD
ENDROOT
BRANCH   2  10
ATOM     10  C   UNL     1      35.456 -17.762 -22.470  0.00  0.00    -0.050 C 
BRANCH  10  13
ATOM     11  O   UNL     1      32.221 -20.512 -19.952  0.00  0.00    -0.435 OA
ATOM     12  O   UNL     1      33.952 -21.551 -18.635  0.00  0.00    -0.435 OA
ATOM     13  C   UNL     1      35.088 -18.786 -21.430  0.00  0.00    -0.040 C 
ATOM     14  C   UNL     1      33.750 -19.117 -21.245  0.00  0.00    +0.034 C 
ATOM     15  C   UNL     1      36.102 -19.382 -20.671  0.00  0.00    -0.003 C 
ATOM     16  C   UNL     1      33.461 -20.060 -20.280  0.00  0.00    +0.176 C 
ATOM     17  C   UNL     1      34.450 -20.652 -19.528  0.00  0.00    +0.176 C 
ATOM     18  C   UNL     1      35.782 -20.335 -19.700  0.00  0.00    +0.040 C 
ATOM     19  C   UNL     1      32.539 -21.457 -18.910  0.00  0.00    +0.429 C 
ENDBRANCH  10  13
ENDBRANCH   2  10
BRANCH   8  20
ATOM     20  C   UNL     1      33.130 -11.929 -23.414  0.00  0.00    +0.290 C 
BRANCH  20  21
ATOM     21  O   UNL     1      31.878 -11.682 -22.824  0.00  0.00    -0.466 OA
BRANCH  21  23
ATOM     22 CL   UNL     1      31.256  -6.671 -19.826  0.00  0.00    -0.082 Cl
ATOM     23  C   UNL     1      31.730 -10.506 -22.122  0.00  0.00    +0.139 C 
ATOM     24  C   UNL     1      32.120  -9.311 -22.705  0.00  0.00    +0.038 C 
ATOM     25  C   UNL     1      31.196 -10.539 -20.842  0.00  0.00    +0.038 C 
ATOM     26  C   UNL     1      31.973  -8.120 -21.993  0.00  0.00    +0.015 C 
ATOM     27  C   UNL     1      31.049  -9.349 -20.130  0.00  0.00    +0.015 C 
ATOM     28  C   UNL     1      31.437  -8.140 -20.705  0.00  0.00    +0.058 C 
ENDBRANCH  21  23
ENDBRANCH  20  21
ENDBRANCH   8  20
TORSDOF 5
ENDMDL
MODEL 6
REMARK VINA RESULT:     -11.9      3.950     10.362
REMARK  Name = 3351
REMARK  5 active torsions:
REMARK  status: ('A' for Active; 'I' for Inactive)
REMARK    1  A    between atoms: N_2  and  C_10
REMARK    2  A    between atoms: C_8  and  C_20
REMARK    3  A    between atoms: C_10  and  C_13
REMARK    4  A    between atoms: C_20  and  O_21
REMARK    5  A    between atoms: O_21  and  C_23
REMARK                            x       y       z     vdW  Elec       q    Type
REMARK                         _______ _______ _______ _____ _____    ______ ____
ROOT
ATOM      1  O   UNL     1      31.961 -12.366 -19.955  0.00  0.00    -0.271 OA
ATOM      2  N   UNL     1      34.566 -15.597 -22.728  0.00  0.00    +0.392 N 
ATOM      3  N   UNL     1      33.185 -13.313 -21.688  0.00  0.00    -0.281 N 
ATOM      4  C   UNL     1      34.036 -15.607 -21.357  0.00  0.00    -0.055 C 
ATOM      5  C   UNL     1      33.713 -14.781 -23.604  0.00  0.00    -0.055 C 
ATOM      6  C   UNL     1      33.951 -14.187 -20.799  0.00  0.00    +0.071 C 
ATOM      7  C   UNL     1      33.614 -13.343 -23.088  0.00  0.00    +0.071 C 
ATOM      8  C   UNL     1      32.225 -12.452 -21.157  0.00  0.00    +0.270 C 
ATOM      9  H   UNL     1      35.499 -15.183 -22.710  0.00  0.00    -0.079 HD
ENDROOT
BRANCH   2  10
ATOM     10  C   UNL     1      34.678 -16.960 -23.246  0.00  0.00    -0.050 C 
BRANCH  10  13
ATOM     11  O   UNL     1      33.443 -20.571 -20.113  0.00  0.00    -0.435 OA
ATOM     12  O   UNL     1      35.667 -20.690 -19.192  0.00  0.00    -0.435 OA
ATOM     13  C   UNL     1      34.980 -17.952 -22.154  0.00  0.00    -0.040 C 
ATOM     14  C   UNL     1      33.967 -18.786 -21.694  0.00  0.00    +0.034 C 
ATOM     15  C   UNL     1      36.275 -18.012 -21.626  0.00  0.00    -0.003 C 
ATOM     16  C   UNL     1      34.291 -19.679 -20.693  0.00  0.00    +0.176 C 
ATOM     17  C   UNL     1      35.561 -19.746 -20.167  0.00  0.00    +0.176 C 
ATOM     18  C   UNL     1      36.576 -18.926 -20.612  0.00  0.00    +0.040 C 
ATOM     19  C   UNL     1      34.321 -21.209 -19.164  0.00  0.00    +0.429 C 
ENDBRANCH  10  13
ENDBRANCH   2  10
BRANCH   8  20
ATOM     20  C   UNL     1      31.477 -11.589 -22.140  0.00  0.00    +0.290 C 
BRANCH  20  21
ATOM     21  O   UNL     1      30.610 -10.778 -21.385  0.00  0.00    -0.466 OA
BRANCH  21  23
ATOM     22 CL   UNL     1      31.897  -5.061 -21.012  0.00  0.00    -0.082 Cl
ATOM     23  C   UNL     1      30.914  -9.438 -21.297  0.00  0.00    +0.139 C 
ATOM     24  C   UNL     1      31.235  -8.891 -20.065  0.00  0.00    +0.038 C 
ATOM     25  C   UNL     1      30.891  -8.658 -22.444  0.00  0.00    +0.038 C 
ATOM     26  C   UNL     1      31.540  -7.533 -19.975  0.00  0.00    +0.015 C 
ATOM     27  C   UNL     1      31.196  -7.299 -22.355  0.00  0.00    +0.015 C 
ATOM     28  C   UNL     1      31.521  -6.736 -21.122  0.00  0.00    +0.058 C 
ENDBRANCH  21  23
ENDBRANCH  20  21
ENDBRANCH   8  20
TORSDOF 5
ENDMDL
MODEL 7
REMARK VINA RESULT:     -11.8      4.411      6.386
REMARK  Name = 3351
REMARK  5 active torsions:
REMARK  status: ('A' for Active; 'I' for Inactive)
REMARK    1  A    between atoms: N_2  and  C_10
REMARK    2  A    between atoms: C_8  and  C_20
REMARK    3  A    between atoms: C_10  and  C_13
REMARK    4  A    between atoms: C_20  and  O_21
REMARK    5  A    between atoms: O_21  and  C_23
REMARK                            x       y       z     vdW  Elec       q    Type
REMARK                         _______ _______ _______ _____ _____    ______ ____
ROOT
ATOM      1  O   UNL     1      36.391 -21.440 -18.476  0.00  0.00    -0.271 OA
ATOM      2  N   UNL     1      34.784 -18.217 -21.932  0.00  0.00    +0.392 N 
ATOM      3  N   UNL     1      35.020 -20.089 -19.776  0.00  0.00    -0.281 N 
ATOM      4  C   UNL     1      36.107 -18.669 -21.478  0.00  0.00    -0.055 C 
ATOM      5  C   UNL     1      33.789 -19.286 -21.763  0.00  0.00    -0.055 C 
ATOM      6  C   UNL     1      36.062 -19.090 -20.010  0.00  0.00    +0.071 C 
ATOM      7  C   UNL     1      33.700 -19.725 -20.300  0.00  0.00    +0.071 C 
ATOM      8  C   UNL     1      35.297 -21.213 -19.000  0.00  0.00    +0.270 C 
ATOM      9  H   UNL     1      34.502 -17.420 -21.360  0.00  0.00    -0.079 HD
ENDROOT
BRANCH   2  10
ATOM     10  C   UNL     1      34.840 -17.783 -23.327  0.00  0.00    -0.050 C 
BRANCH  10  13
ATOM     11  O   UNL     1      32.857 -14.119 -25.976  0.00  0.00    -0.435 OA
ATOM     12  O   UNL     1      32.878 -12.599 -24.106  0.00  0.00    -0.435 OA
ATOM     13  C   UNL     1      34.319 -16.381 -23.500  0.00  0.00    -0.040 C 
ATOM     14  C   UNL     1      33.833 -15.985 -24.742  0.00  0.00    +0.034 C 
ATOM     15  C   UNL     1      34.337 -15.507 -22.407  0.00  0.00    -0.003 C 
ATOM     16  C   UNL     1      33.367 -14.690 -24.852  0.00  0.00    +0.176 C 
ATOM     17  C   UNL     1      33.380 -13.823 -23.784  0.00  0.00    +0.176 C 
ATOM     18  C   UNL     1      33.859 -14.201 -22.546  0.00  0.00    +0.040 C 
ATOM     19  C   UNL     1      32.549 -12.794 -25.497  0.00  0.00    +0.429 C 
ENDBRANCH  10  13
ENDBRANCH   2  10
BRANCH   8  20
ATOM     20  C   UNL     1      34.171 -22.198 -18.812  0.00  0.00    +0.290 C 
BRANCH  20  21
ATOM     21  O   UNL     1      34.306 -22.720 -17.513  0.00  0.00    -0.466 OA
BRANCH  21  23
ATOM     22 CL   UNL     1      29.539 -22.688 -14.084  0.00  0.00    -0.082 Cl
ATOM     23  C   UNL     1      33.187 -22.714 -16.710  0.00  0.00    +0.139 C 
ATOM     24  C   UNL     1      31.956 -22.389 -17.258  0.00  0.00    +0.038 C 
ATOM     25  C   UNL     1      33.313 -23.033 -15.366  0.00  0.00    +0.038 C 
ATOM     26  C   UNL     1      30.824 -22.380 -16.444  0.00  0.00    +0.015 C 
ATOM     27  C   UNL     1      32.180 -23.024 -14.551  0.00  0.00    +0.015 C 
ATOM     28  C   UNL     1      30.936 -22.699 -15.089  0.00  0.00    +0.058 C 
ENDBRANCH  21  23
ENDBRANCH  20  21
ENDBRANCH   8  20
TORSDOF 5
ENDMDL
MODEL 8
REMARK VINA RESULT:     -11.7      5.806     11.928
REMARK  Name = 3351
REMARK  5 active torsions:
REMARK  status: ('A' for Active; 'I' for Inactive)
REMARK    1  A    between atoms: N_2  and  C_10
REMARK    2  A    between atoms: C_8  and  C_20
REMARK    3  A    between atoms: C_10  and  C_13
REMARK    4  A    between atoms: C_20  and  O_21
REMARK    5  A    between atoms: O_21  and  C_23
REMARK                            x       y       z     vdW  Elec       q    Type
REMARK                         _______ _______ _______ _____ _____    ______ ____
ROOT
ATOM      1  O   UNL     1      36.414 -19.097 -20.247  0.00  0.00    -0.271 OA
ATOM      2  N   UNL     1      34.330 -22.476 -17.222  0.00  0.00    +0.392 N 
ATOM      3  N   UNL     1      35.051 -20.787 -19.420  0.00  0.00    -0.281 N 
ATOM      4  C   UNL     1      35.495 -21.585 -17.126  0.00  0.00    -0.055 C 
ATOM      5  C   UNL     1      33.291 -21.876 -18.070  0.00  0.00    -0.055 C 
ATOM      6  C   UNL     1      36.075 -21.301 -18.511  0.00  0.00    +0.071 C 
ATOM      7  C   UNL     1      33.827 -21.591 -19.475  0.00  0.00    +0.071 C 
ATOM      8  C   UNL     1      35.331 -19.689 -20.232  0.00  0.00    +0.270 C 
ATOM      9  H   UNL     1      34.629 -23.353 -17.650  0.00  0.00    -0.079 HD
ENDROOT
BRANCH   2  10
ATOM     10  C   UNL     1      33.799 -22.773 -15.892  0.00  0.00    -0.050 C 
BRANCH  10  13
ATOM     11  O   UNL     1      37.215 -22.576 -12.332  0.00  0.00    -0.435 OA
ATOM     12  O   UNL     1      37.696 -24.932 -12.504  0.00  0.00    -0.435 OA
ATOM     13  C   UNL     1      34.841 -23.388 -14.996  0.00  0.00    -0.040 C 
ATOM     14  C   UNL     1      35.511 -22.583 -14.080  0.00  0.00    +0.034 C 
ATOM     15  C   UNL     1      35.113 -24.756 -15.104  0.00  0.00    -0.003 C 
ATOM     16  C   UNL     1      36.458 -23.191 -13.281  0.00  0.00    +0.176 C 
ATOM     17  C   UNL     1      36.732 -24.536 -13.379  0.00  0.00    +0.176 C 
ATOM     18  C   UNL     1      36.077 -25.347 -14.282  0.00  0.00    +0.040 C 
ATOM     19  C   UNL     1      37.997 -23.685 -11.843  0.00  0.00    +0.429 C 
ENDBRANCH  10  13
ENDBRANCH   2  10
BRANCH   8  20
ATOM     20  C   UNL     1      34.221 -19.218 -21.136  0.00  0.00    +0.290 C 
BRANCH  20  21
ATOM     21  O   UNL     1      34.834 -18.577 -22.227  0.00  0.00    -0.466 OA
BRANCH  21  23
ATOM     22 CL   UNL     1      33.598 -12.896 -23.058  0.00  0.00    -0.082 Cl
ATOM     23  C   UNL     1      34.546 -17.244 -22.422  0.00  0.00    +0.139 C 
ATOM     24  C   UNL     1      34.495 -16.392 -21.330  0.00  0.00    +0.038 C 
ATOM     25  C   UNL     1      34.311 -16.779 -23.707  0.00  0.00    +0.038 C 
ATOM     26  C   UNL     1      34.200 -15.042 -21.527  0.00  0.00    +0.015 C 
ATOM     27  C   UNL     1      34.017 -15.429 -23.904  0.00  0.00    +0.015 C 
ATOM     28  C   UNL     1      33.962 -14.561 -22.815  0.00  0.00    +0.058 C 
ENDBRANCH  21  23
ENDBRANCH  20  21
ENDBRANCH   8  20
TORSDOF 5
ENDMDL
MODEL 9
REMARK VINA RESULT:     -11.3      5.075     11.677
REMARK  Name = 3351
REMARK  5 active torsions:
REMARK  status: ('A' for Active; 'I' for Inactive)
REMARK    1  A    between atoms: N_2  and  C_10
REMARK    2  A    between atoms: C_8  and  C_20
REMARK    3  A    between atoms: C_10  and  C_13
REMARK    4  A    between atoms: C_20  and  O_21
REMARK    5  A    between atoms: O_21  and  C_23
REMARK                            x       y       z     vdW  Elec       q    Type
REMARK                         _______ _______ _______ _____ _____    ______ ____
ROOT
ATOM      1  O   UNL     1      36.699 -18.731 -20.506  0.00  0.00    -0.271 OA
ATOM      2  N   UNL     1      33.808 -22.091 -18.212  0.00  0.00    +0.392 N 
ATOM      3  N   UNL     1      34.942 -20.166 -20.004  0.00  0.00    -0.281 N 
ATOM      4  C   UNL     1      35.166 -21.575 -17.989  0.00  0.00    -0.055 C 
ATOM      5  C   UNL     1      32.961 -21.061 -18.830  0.00  0.00    -0.055 C 
ATOM      6  C   UNL     1      35.797 -21.126 -19.306  0.00  0.00    +0.071 C 
ATOM      7  C   UNL     1      33.551 -20.595 -20.163  0.00  0.00    +0.071 C 
ATOM      8  C   UNL     1      35.500 -19.014 -20.558  0.00  0.00    +0.270 C 
ATOM      9  H   UNL     1      33.866 -22.887 -18.849  0.00  0.00    -0.079 HD
ENDROOT
BRANCH   2  10
ATOM     10  C   UNL     1      33.221 -22.552 -16.955  0.00  0.00    -0.050 C 
BRANCH  10  13
ATOM     11  O   UNL     1      35.929 -25.881 -14.513  0.00  0.00    -0.435 OA
ATOM     12  O   UNL     1      37.110 -24.183 -13.276  0.00  0.00    -0.435 OA
ATOM     13  C   UNL     1      34.274 -22.954 -15.957  0.00  0.00    -0.040 C 
ATOM     14  C   UNL     1      34.549 -24.305 -15.766  0.00  0.00    +0.034 C 
ATOM     15  C   UNL     1      34.954 -21.960 -15.244  0.00  0.00    -0.003 C 
ATOM     16  C   UNL     1      35.522 -24.625 -14.840  0.00  0.00    +0.176 C 
ATOM     17  C   UNL     1      36.196 -23.655 -14.134  0.00  0.00    +0.176 C 
ATOM     18  C   UNL     1      35.935 -22.312 -14.313  0.00  0.00    +0.040 C 
ATOM     19  C   UNL     1      36.936 -25.594 -13.522  0.00  0.00    +0.429 C 
ENDBRANCH  10  13
ENDBRANCH   2  10
BRANCH   8  20
ATOM     20  C   UNL     1      34.550 -18.074 -21.256  0.00  0.00    +0.290 C 
BRANCH  20  21
ATOM     21  O   UNL     1      34.658 -16.834 -20.601  0.00  0.00    -0.466 OA
BRANCH  21  23
ATOM     22 CL   UNL     1      33.297 -12.023 -23.682  0.00  0.00    -0.082 Cl
ATOM     23  C   UNL     1      34.337 -15.707 -21.324  0.00  0.00    +0.139 C 
ATOM     24  C   UNL     1      34.433 -15.734 -22.707  0.00  0.00    +0.038 C 
ATOM     25  C   UNL     1      33.925 -14.563 -20.656  0.00  0.00    +0.038 C 
ATOM     26  C   UNL     1      34.110 -14.591 -23.439  0.00  0.00    +0.015 C 
ATOM     27  C   UNL     1      33.603 -13.420 -21.388  0.00  0.00    +0.015 C 
ATOM     28  C   UNL     1      33.695 -13.433 -22.778  0.00  0.00    +0.058 C 
ENDBRANCH  21  23
ENDBRANCH  20  21
ENDBRANCH   8  20
TORSDOF 5
ENDMDL
