MODEL 1
REMARK VINA RESULT:     -11.8      0.000      0.000
REMARK  Name = 11987874
REMARK  7 active torsions:
REMARK  status: ('A' for Active; 'I' for Inactive)
REMARK    1  A    between atoms: N_2  and  C_26
REMARK    2  A    between atoms: C_3  and  N_13
REMARK    3  A    between atoms: C_14  and  C_19
REMARK    4  A    between atoms: C_26  and  C_29
REMARK    5  A    between atoms: N_28  and  C_31
REMARK    6  A    between atoms: C_31  and  C_32
REMARK    7  A    between atoms: C_32  and  O_33
REMARK                            x       y       z     vdW  Elec       q    Type
REMARK                         _______ _______ _______ _____ _____    ______ ____
ROOT
ATOM      1  O   UNL     1      32.342 -21.840 -18.918  0.00  0.00    -0.273 OA
ATOM      2  N   UNL     1      33.488 -22.793 -17.128  0.00  0.00    -0.249 N 
ATOM      3  C   UNL     1      34.712 -21.451 -18.802  0.00  0.00    +0.154 C 
ATOM      4  C   UNL     1      35.587 -20.932 -17.676  0.00  0.00    +0.057 C 
ATOM      5  C   UNL     1      35.759 -22.002 -16.639  0.00  0.00    -0.006 C 
ATOM      6  C   UNL     1      34.701 -22.888 -16.369  0.00  0.00    +0.050 C 
ATOM      7  C   UNL     1      33.388 -22.001 -18.284  0.00  0.00    +0.248 C 
ATOM      8  C   UNL     1      36.941 -22.060 -15.886  0.00  0.00    -0.003 C 
ATOM      9  C   UNL     1      34.861 -23.827 -15.336  0.00  0.00    +0.015 C 
ATOM     10  C   UNL     1      37.087 -23.005 -14.875  0.00  0.00    -0.000 C 
ATOM     11  C   UNL     1      36.047 -23.887 -14.600  0.00  0.00    +0.001 C 
ENDROOT
BRANCH   3  13
ATOM     12  O   UNL     1      36.605 -19.660 -19.879  0.00  0.00    -0.269 OA
ATOM     13  N   UNL     1      34.436 -20.411 -19.758  0.00  0.00    -0.294 N 
ATOM     14  C   UNL     1      35.432 -19.562 -20.246  0.00  0.00    +0.260 C 
ATOM     15  H   UNL     1      33.514 -20.294 -20.081  0.00  0.00    +0.150 HD
BRANCH  14  19
ATOM     16 CL   UNL     1      33.218 -14.618 -25.385  0.00  0.00    -0.075 Cl
ATOM     17  S   UNL     1      34.258 -15.075 -22.616  0.00  0.00    -0.061 S 
ATOM     18  N   UNL     1      35.006 -17.231 -20.974  0.00  0.00    -0.304 N 
ATOM     19  C   UNL     1      35.000 -18.572 -21.242  0.00  0.00    +0.103 C 
ATOM     20  C   UNL     1      34.557 -18.831 -22.508  0.00  0.00    +0.021 C 
ATOM     21  C   UNL     1      34.287 -17.566 -23.011  0.00  0.00    +0.022 C 
ATOM     22  C   UNL     1      34.555 -16.625 -22.096  0.00  0.00    +0.080 C 
ATOM     23  C   UNL     1      33.810 -17.092 -24.231  0.00  0.00    +0.020 C 
ATOM     24  C   UNL     1      33.738 -15.704 -24.164  0.00  0.00    +0.088 C 
ATOM     25  H   UNL     1      35.283 -16.795 -20.135  0.00  0.00    +0.153 HD
ENDBRANCH  14  19
ENDBRANCH   3  13
BRANCH   2  26
ATOM     26  C   UNL     1      32.313 -23.536 -16.676  0.00  0.00    +0.183 C 
BRANCH  26  29
ATOM     27  O   UNL     1      31.923 -22.002 -14.850  0.00  0.00    -0.273 OA
ATOM     28  N   UNL     1      30.125 -22.715 -16.138  0.00  0.00    -0.301 N 
ATOM     29  C   UNL     1      31.465 -22.651 -15.787  0.00  0.00    +0.243 C 
ATOM     30  H   UNL     1      29.868 -23.269 -16.910  0.00  0.00    +0.150 HD
BRANCH  28  31
ATOM     31  C   UNL     1      29.084 -22.009 -15.425  0.00  0.00    +0.121 C 
BRANCH  31  32
ATOM     32  C   UNL     1      27.703 -22.426 -15.897  0.00  0.00    +0.158 C 
BRANCH  32  33
ATOM     33  O   UNL     1      27.074 -21.329 -16.547  0.00  0.00    -0.380 OA
ATOM     34  H   UNL     1      26.167 -21.575 -16.791  0.00  0.00    +0.211 HD
ENDBRANCH  32  33
ENDBRANCH  31  32
ENDBRANCH  28  31
ENDBRANCH  26  29
ENDBRANCH   2  26
TORSDOF 7
ENDMDL
MODEL 2
REMARK VINA RESULT:     -11.6      2.145      2.976
REMARK  Name = 11987874
REMARK  7 active torsions:
REMARK  status: ('A' for Active; 'I' for Inactive)
REMARK    1  A    between atoms: N_2  and  C_26
REMARK    2  A    between atoms: C_3  and  N_13
REMARK    3  A    between atoms: C_14  and  C_19
REMARK    4  A    between atoms: C_26  and  C_29
REMARK    5  A    between atoms: N_28  and  C_31
REMARK    6  A    between atoms: C_31  and  C_32
REMARK    7  A    between atoms: C_32  and  O_33
REMARK                            x       y       z     vdW  Elec       q    Type
REMARK                         _______ _______ _______ _____ _____    ______ ____
ROOT
ATOM      1  O   UNL     1      32.459 -23.175 -16.247  0.00  0.00    -0.273 OA
ATOM      2  N   UNL     1      33.395 -23.711 -14.182  0.00  0.00    -0.249 N 
ATOM      3  C   UNL     1      34.802 -22.721 -15.956  0.00  0.00    +0.154 C 
ATOM      4  C   UNL     1      35.547 -21.962 -14.874  0.00  0.00    +0.057 C 
ATOM      5  C   UNL     1      35.600 -22.788 -13.624  0.00  0.00    -0.006 C 
ATOM      6  C   UNL     1      34.516 -23.621 -13.292  0.00  0.00    +0.050 C 
ATOM      7  C   UNL     1      33.427 -23.179 -15.482  0.00  0.00    +0.248 C 
ATOM      8  C   UNL     1      36.690 -22.664 -12.751  0.00  0.00    -0.003 C 
ATOM      9  C   UNL     1      34.558 -24.322 -12.075  0.00  0.00    +0.015 C 
ATOM     10  C   UNL     1      36.720 -23.375 -11.554  0.00  0.00    -0.000 C 
ATOM     11  C   UNL     1      35.654 -24.202 -11.217  0.00  0.00    +0.001 C 
ENDROOT
BRANCH   3  13
ATOM     12  O   UNL     1      36.887 -21.659 -17.529  0.00  0.00    -0.269 OA
ATOM     13  N   UNL     1      34.637 -21.909 -17.132  0.00  0.00    -0.294 N 
ATOM     14  C   UNL     1      35.724 -21.419 -17.860  0.00  0.00    +0.260 C 
ATOM     15  H   UNL     1      33.727 -21.691 -17.436  0.00  0.00    +0.150 HD
BRANCH  14  19
ATOM     16 CL   UNL     1      33.940 -17.473 -23.943  0.00  0.00    -0.075 Cl
ATOM     17  S   UNL     1      35.997 -18.094 -21.861  0.00  0.00    -0.061 S 
ATOM     18  N   UNL     1      36.282 -19.749 -19.605  0.00  0.00    -0.304 N 
ATOM     19  C   UNL     1      35.394 -20.632 -19.056  0.00  0.00    +0.103 C 
ATOM     20  C   UNL     1      34.220 -20.667 -19.754  0.00  0.00    +0.021 C 
ATOM     21  C   UNL     1      34.434 -19.749 -20.773  0.00  0.00    +0.022 C 
ATOM     22  C   UNL     1      35.656 -19.210 -20.676  0.00  0.00    +0.080 C 
ATOM     23  C   UNL     1      33.663 -19.289 -21.838  0.00  0.00    +0.020 C 
ATOM     24  C   UNL     1      34.408 -18.350 -22.545  0.00  0.00    +0.088 C 
ATOM     25  H   UNL     1      37.191 -19.547 -19.285  0.00  0.00    +0.153 HD
ENDBRANCH  14  19
ENDBRANCH   3  13
BRANCH   2  26
ATOM     26  C   UNL     1      32.176 -24.369 -13.717  0.00  0.00    +0.183 C 
BRANCH  26  29
ATOM     27  O   UNL     1      31.012 -22.594 -12.563  0.00  0.00    -0.273 OA
ATOM     28  N   UNL     1      30.165 -23.385 -14.578  0.00  0.00    -0.301 N 
ATOM     29  C   UNL     1      31.082 -23.338 -13.538  0.00  0.00    +0.243 C 
ATOM     30  H   UNL     1      30.321 -24.022 -15.311  0.00  0.00    +0.150 HD
BRANCH  28  31
ATOM     31  C   UNL     1      28.990 -22.545 -14.637  0.00  0.00    +0.121 C 
BRANCH  31  32
ATOM     32  C   UNL     1      28.542 -22.314 -16.068  0.00  0.00    +0.158 C 
BRANCH  32  33
ATOM     33  O   UNL     1      29.677 -22.038 -16.880  0.00  0.00    -0.380 OA
ATOM     34  H   UNL     1      29.697 -21.093 -17.097  0.00  0.00    +0.211 HD
ENDBRANCH  32  33
ENDBRANCH  31  32
ENDBRANCH  28  31
ENDBRANCH  26  29
ENDBRANCH   2  26
TORSDOF 7
ENDMDL
MODEL 3
REMARK VINA RESULT:     -11.0      2.108      3.226
REMARK  Name = 11987874
REMARK  7 active torsions:
REMARK  status: ('A' for Active; 'I' for Inactive)
REMARK    1  A    between atoms: N_2  and  C_26
REMARK    2  A    between atoms: C_3  and  N_13
REMARK    3  A    between atoms: C_14  and  C_19
REMARK    4  A    between atoms: C_26  and  C_29
REMARK    5  A    between atoms: N_28  and  C_31
REMARK    6  A    between atoms: C_31  and  C_32
REMARK    7  A    between atoms: C_32  and  O_33
REMARK                            x       y       z     vdW  Elec       q    Type
REMARK                         _______ _______ _______ _____ _____    ______ ____
ROOT
ATOM      1  O   UNL     1      33.109 -21.944 -15.519  0.00  0.00    -0.273 OA
ATOM      2  N   UNL     1      34.158 -23.172 -13.840  0.00  0.00    -0.249 N 
ATOM      3  C   UNL     1      35.288 -22.834 -16.011  0.00  0.00    +0.154 C 
ATOM      4  C   UNL     1      36.602 -22.737 -15.259  0.00  0.00    +0.057 C 
ATOM      5  C   UNL     1      36.560 -23.632 -14.056  0.00  0.00    -0.006 C 
ATOM      6  C   UNL     1      35.351 -23.808 -13.359  0.00  0.00    +0.050 C 
ATOM      7  C   UNL     1      34.093 -22.562 -15.104  0.00  0.00    +0.248 C 
ATOM      8  C   UNL     1      37.742 -24.220 -13.583  0.00  0.00    -0.003 C 
ATOM      9  C   UNL     1      35.359 -24.586 -12.190  0.00  0.00    +0.015 C 
ATOM     10  C   UNL     1      37.729 -24.999 -12.429  0.00  0.00    -0.000 C 
ATOM     11  C   UNL     1      36.539 -25.181 -11.734  0.00  0.00    +0.001 C 
ENDROOT
BRANCH   3  13
ATOM     12  O   UNL     1      33.715 -23.085 -18.338  0.00  0.00    -0.269 OA
ATOM     13  N   UNL     1      35.255 -21.902 -17.108  0.00  0.00    -0.294 N 
ATOM     14  C   UNL     1      34.446 -22.098 -18.229  0.00  0.00    +0.260 C 
ATOM     15  H   UNL     1      35.821 -21.099 -17.067  0.00  0.00    +0.150 HD
BRANCH  14  19
ATOM     16 CL   UNL     1      34.596 -16.756 -23.445  0.00  0.00    -0.075 Cl
ATOM     17  S   UNL     1      36.092 -18.244 -21.323  0.00  0.00    -0.061 S 
ATOM     18  N   UNL     1      35.633 -20.315 -19.477  0.00  0.00    -0.304 N 
ATOM     19  C   UNL     1      34.497 -21.042 -19.250  0.00  0.00    +0.103 C 
ATOM     20  C   UNL     1      33.478 -20.656 -20.074  0.00  0.00    +0.021 C 
ATOM     21  C   UNL     1      34.052 -19.641 -20.828  0.00  0.00    +0.022 C 
ATOM     22  C   UNL     1      35.326 -19.446 -20.468  0.00  0.00    +0.080 C 
ATOM     23  C   UNL     1      33.587 -18.814 -21.848  0.00  0.00    +0.020 C 
ATOM     24  C   UNL     1      34.623 -17.969 -22.233  0.00  0.00    +0.088 C 
ATOM     25  H   UNL     1      36.497 -20.405 -19.014  0.00  0.00    +0.153 HD
ENDBRANCH  14  19
ENDBRANCH   3  13
BRANCH   2  26
ATOM     26  C   UNL     1      32.976 -23.149 -12.982  0.00  0.00    +0.183 C 
BRANCH  26  29
ATOM     27  O   UNL     1      31.882 -25.138 -13.810  0.00  0.00    -0.273 OA
ATOM     28  N   UNL     1      30.840 -23.077 -14.071  0.00  0.00    -0.301 N 
ATOM     29  C   UNL     1      31.855 -23.921 -13.644  0.00  0.00    +0.243 C 
ATOM     30  H   UNL     1      30.922 -22.115 -13.883  0.00  0.00    +0.150 HD
BRANCH  28  31
ATOM     31  C   UNL     1      29.668 -23.541 -14.779  0.00  0.00    +0.121 C 
BRANCH  31  32
ATOM     32  C   UNL     1      29.311 -22.618 -15.929  0.00  0.00    +0.158 C 
BRANCH  32  33
ATOM     33  O   UNL     1      30.478 -22.341 -16.694  0.00  0.00    -0.380 OA
ATOM     34  H   UNL     1      30.220 -22.006 -17.568  0.00  0.00    +0.211 HD
ENDBRANCH  32  33
ENDBRANCH  31  32
ENDBRANCH  28  31
ENDBRANCH  26  29
ENDBRANCH   2  26
TORSDOF 7
ENDMDL
MODEL 4
REMARK VINA RESULT:      -9.8     10.154     15.928
REMARK  Name = 11987874
REMARK  7 active torsions:
REMARK  status: ('A' for Active; 'I' for Inactive)
REMARK    1  A    between atoms: N_2  and  C_26
REMARK    2  A    between atoms: C_3  and  N_13
REMARK    3  A    between atoms: C_14  and  C_19
REMARK    4  A    between atoms: C_26  and  C_29
REMARK    5  A    between atoms: N_28  and  C_31
REMARK    6  A    between atoms: C_31  and  C_32
REMARK    7  A    between atoms: C_32  and  O_33
REMARK                            x       y       z     vdW  Elec       q    Type
REMARK                         _______ _______ _______ _____ _____    ______ ____
ROOT
ATOM      1  O   UNL     1      34.347  -7.676 -24.138  0.00  0.00    -0.273 OA
ATOM      2  N   UNL     1      33.206  -5.702 -23.657  0.00  0.00    -0.249 N 
ATOM      3  C   UNL     1      32.237  -7.878 -23.001  0.00  0.00    +0.154 C 
ATOM      4  C   UNL     1      31.710  -7.210 -21.745  0.00  0.00    +0.057 C 
ATOM      5  C   UNL     1      31.359  -5.782 -22.043  0.00  0.00    -0.006 C 
ATOM      6  C   UNL     1      32.128  -5.054 -22.969  0.00  0.00    +0.050 C 
ATOM      7  C   UNL     1      33.390  -7.094 -23.619  0.00  0.00    +0.248 C 
ATOM      8  C   UNL     1      30.321  -5.158 -21.338  0.00  0.00    -0.003 C 
ATOM      9  C   UNL     1      31.827  -3.696 -23.168  0.00  0.00    +0.015 C 
ATOM     10  C   UNL     1      30.028  -3.814 -21.557  0.00  0.00    -0.000 C 
ATOM     11  C   UNL     1      30.781  -3.085 -22.471  0.00  0.00    +0.001 C 
ENDROOT
BRANCH   3  13
ATOM     12  O   UNL     1      30.587 -10.068 -22.345  0.00  0.00    -0.269 OA
ATOM     13  N   UNL     1      32.688  -9.216 -22.720  0.00  0.00    -0.294 N 
ATOM     14  C   UNL     1      31.804 -10.250 -22.402  0.00  0.00    +0.260 C 
ATOM     15  H   UNL     1      33.652  -9.410 -22.754  0.00  0.00    +0.150 HD
BRANCH  14  19
ATOM     16 CL   UNL     1      34.881 -16.933 -21.126  0.00  0.00    -0.075 Cl
ATOM     17  S   UNL     1      34.174 -14.831 -23.135  0.00  0.00    -0.061 S 
ATOM     18  N   UNL     1      32.943 -12.303 -23.198  0.00  0.00    -0.304 N 
ATOM     19  C   UNL     1      32.414 -11.568 -22.174  0.00  0.00    +0.103 C 
ATOM     20  C   UNL     1      32.534 -12.211 -20.975  0.00  0.00    +0.021 C 
ATOM     21  C   UNL     1      33.173 -13.395 -21.318  0.00  0.00    +0.022 C 
ATOM     22  C   UNL     1      33.410 -13.441 -22.635  0.00  0.00    +0.080 C 
ATOM     23  C   UNL     1      33.601 -14.507 -20.596  0.00  0.00    +0.020 C 
ATOM     24  C   UNL     1      34.187 -15.406 -21.483  0.00  0.00    +0.088 C 
ATOM     25  H   UNL     1      32.978 -12.054 -24.150  0.00  0.00    +0.153 HD
ENDBRANCH  14  19
ENDBRANCH   3  13
BRANCH   2  26
ATOM     26  C   UNL     1      34.151  -4.885 -24.415  0.00  0.00    +0.183 C 
BRANCH  26  29
ATOM     27  O   UNL     1      32.706  -5.213 -26.324  0.00  0.00    -0.273 OA
ATOM     28  N   UNL     1      34.973  -4.827 -26.668  0.00  0.00    -0.301 N 
ATOM     29  C   UNL     1      33.833  -4.982 -25.892  0.00  0.00    +0.243 C 
ATOM     30  H   UNL     1      35.826  -4.644 -26.215  0.00  0.00    +0.150 HD
BRANCH  28  31
ATOM     31  C   UNL     1      34.969  -4.923 -28.111  0.00  0.00    +0.121 C 
BRANCH  31  32
ATOM     32  C   UNL     1      34.614  -3.596 -28.756  0.00  0.00    +0.158 C 
BRANCH  32  33
ATOM     33  O   UNL     1      33.200  -3.486 -28.863  0.00  0.00    -0.380 OA
ATOM     34  H   UNL     1      32.931  -2.576 -28.659  0.00  0.00    +0.211 HD
ENDBRANCH  32  33
ENDBRANCH  31  32
ENDBRANCH  28  31
ENDBRANCH  26  29
ENDBRANCH   2  26
TORSDOF 7
ENDMDL
MODEL 5
REMARK VINA RESULT:      -9.6     10.288     15.931
REMARK  Name = 11987874
REMARK  7 active torsions:
REMARK  status: ('A' for Active; 'I' for Inactive)
REMARK    1  A    between atoms: N_2  and  C_26
REMARK    2  A    between atoms: C_3  and  N_13
REMARK    3  A    between atoms: C_14  and  C_19
REMARK    4  A    between atoms: C_26  and  C_29
REMARK    5  A    between atoms: N_28  and  C_31
REMARK    6  A    between atoms: C_31  and  C_32
REMARK    7  A    between atoms: C_32  and  O_33
REMARK                            x       y       z     vdW  Elec       q    Type
REMARK                         _______ _______ _______ _____ _____    ______ ____
ROOT
ATOM      1  O   UNL     1      34.378  -7.718 -24.165  0.00  0.00    -0.273 OA
ATOM      2  N   UNL     1      33.244  -5.741 -23.686  0.00  0.00    -0.249 N 
ATOM      3  C   UNL     1      32.267  -7.914 -23.031  0.00  0.00    +0.154 C 
ATOM      4  C   UNL     1      31.740  -7.244 -21.775  0.00  0.00    +0.057 C 
ATOM      5  C   UNL     1      31.394  -5.816 -22.074  0.00  0.00    -0.006 C 
ATOM      6  C   UNL     1      32.166  -5.090 -22.998  0.00  0.00    +0.050 C 
ATOM      7  C   UNL     1      33.423  -7.134 -23.647  0.00  0.00    +0.248 C 
ATOM      8  C   UNL     1      30.357  -5.188 -21.370  0.00  0.00    -0.003 C 
ATOM      9  C   UNL     1      31.870  -3.731 -23.198  0.00  0.00    +0.015 C 
ATOM     10  C   UNL     1      30.069  -3.843 -21.590  0.00  0.00    -0.000 C 
ATOM     11  C   UNL     1      30.825  -3.117 -22.502  0.00  0.00    +0.001 C 
ENDROOT
BRANCH   3  13
ATOM     12  O   UNL     1      30.603 -10.118 -22.461  0.00  0.00    -0.269 OA
ATOM     13  N   UNL     1      32.713  -9.253 -22.750  0.00  0.00    -0.294 N 
ATOM     14  C   UNL     1      31.823 -10.294 -22.476  0.00  0.00    +0.260 C 
ATOM     15  H   UNL     1      33.678  -9.443 -22.751  0.00  0.00    +0.150 HD
BRANCH  14  19
ATOM     16 CL   UNL     1      34.883 -16.979 -21.168  0.00  0.00    -0.075 Cl
ATOM     17  S   UNL     1      34.194 -14.878 -23.184  0.00  0.00    -0.061 S 
ATOM     18  N   UNL     1      32.966 -12.349 -23.260  0.00  0.00    -0.304 N 
ATOM     19  C   UNL     1      32.429 -11.612 -22.241  0.00  0.00    +0.103 C 
ATOM     20  C   UNL     1      32.540 -12.255 -21.041  0.00  0.00    +0.021 C 
ATOM     21  C   UNL     1      33.180 -13.440 -21.378  0.00  0.00    +0.022 C 
ATOM     22  C   UNL     1      33.427 -13.488 -22.692  0.00  0.00    +0.080 C 
ATOM     23  C   UNL     1      33.602 -14.551 -20.651  0.00  0.00    +0.020 C 
ATOM     24  C   UNL     1      34.194 -15.451 -21.532  0.00  0.00    +0.088 C 
ATOM     25  H   UNL     1      33.007 -12.102 -24.213  0.00  0.00    +0.153 HD
ENDBRANCH  14  19
ENDBRANCH   3  13
BRANCH   2  26
ATOM     26  C   UNL     1      34.192  -4.927 -24.442  0.00  0.00    +0.183 C 
BRANCH  26  29
ATOM     27  O   UNL     1      33.526  -5.780 -26.603  0.00  0.00    -0.273 OA
ATOM     28  N   UNL     1      33.606  -3.482 -26.265  0.00  0.00    -0.301 N 
ATOM     29  C   UNL     1      33.726  -4.809 -25.878  0.00  0.00    +0.243 C 
ATOM     30  H   UNL     1      33.790  -2.781 -25.599  0.00  0.00    +0.150 HD
BRANCH  28  31
ATOM     31  C   UNL     1      33.225  -3.076 -27.599  0.00  0.00    +0.121 C 
BRANCH  31  32
ATOM     32  C   UNL     1      32.003  -2.177 -27.581  0.00  0.00    +0.158 C 
BRANCH  32  33
ATOM     33  O   UNL     1      31.172  -2.531 -26.482  0.00  0.00    -0.380 OA
ATOM     34  H   UNL     1      30.495  -3.160 -26.779  0.00  0.00    +0.211 HD
ENDBRANCH  32  33
ENDBRANCH  31  32
ENDBRANCH  28  31
ENDBRANCH  26  29
ENDBRANCH   2  26
TORSDOF 7
ENDMDL
MODEL 6
REMARK VINA RESULT:      -9.6      2.325      3.377
REMARK  Name = 11987874
REMARK  7 active torsions:
REMARK  status: ('A' for Active; 'I' for Inactive)
REMARK    1  A    between atoms: N_2  and  C_26
REMARK    2  A    between atoms: C_3  and  N_13
REMARK    3  A    between atoms: C_14  and  C_19
REMARK    4  A    between atoms: C_26  and  C_29
REMARK    5  A    between atoms: N_28  and  C_31
REMARK    6  A    between atoms: C_31  and  C_32
REMARK    7  A    between atoms: C_32  and  O_33
REMARK                            x       y       z     vdW  Elec       q    Type
REMARK                         _______ _______ _______ _____ _____    ______ ____
ROOT
ATOM      1  O   UNL     1      33.307 -21.918 -15.593  0.00  0.00    -0.273 OA
ATOM      2  N   UNL     1      34.347 -23.186 -13.937  0.00  0.00    -0.249 N 
ATOM      3  C   UNL     1      35.494 -22.787 -16.089  0.00  0.00    +0.154 C 
ATOM      4  C   UNL     1      36.801 -22.705 -15.322  0.00  0.00    +0.057 C 
ATOM      5  C   UNL     1      36.751 -23.631 -14.143  0.00  0.00    -0.006 C 
ATOM      6  C   UNL     1      35.537 -23.830 -13.462  0.00  0.00    +0.050 C 
ATOM      7  C   UNL     1      34.290 -22.544 -15.186  0.00  0.00    +0.248 C 
ATOM      8  C   UNL     1      37.931 -24.227 -13.675  0.00  0.00    -0.003 C 
ATOM      9  C   UNL     1      35.538 -24.638 -12.313  0.00  0.00    +0.015 C 
ATOM     10  C   UNL     1      37.911 -25.036 -12.542  0.00  0.00    -0.000 C 
ATOM     11  C   UNL     1      36.715 -25.240 -11.862  0.00  0.00    +0.001 C 
ENDROOT
BRANCH   3  13
ATOM     12  O   UNL     1      33.982 -23.008 -18.458  0.00  0.00    -0.269 OA
ATOM     13  N   UNL     1      35.467 -21.827 -17.161  0.00  0.00    -0.294 N 
ATOM     14  C   UNL     1      34.689 -22.010 -18.307  0.00  0.00    +0.260 C 
ATOM     15  H   UNL     1      36.016 -21.014 -17.085  0.00  0.00    +0.150 HD
BRANCH  14  19
ATOM     16 CL   UNL     1      35.068 -16.475 -23.305  0.00  0.00    -0.075 Cl
ATOM     17  S   UNL     1      33.442 -18.692 -22.124  0.00  0.00    -0.061 S 
ATOM     18  N   UNL     1      33.692 -20.660 -20.131  0.00  0.00    -0.304 N 
ATOM     19  C   UNL     1      34.743 -20.926 -19.298  0.00  0.00    +0.103 C 
ATOM     20  C   UNL     1      35.789 -20.075 -19.518  0.00  0.00    +0.021 C 
ATOM     21  C   UNL     1      35.321 -19.262 -20.542  0.00  0.00    +0.022 C 
ATOM     22  C   UNL     1      34.081 -19.616 -20.899  0.00  0.00    +0.080 C 
ATOM     23  C   UNL     1      35.863 -18.191 -21.249  0.00  0.00    +0.020 C 
ATOM     24  C   UNL     1      34.921 -17.760 -22.179  0.00  0.00    +0.088 C 
ATOM     25  H   UNL     1      32.828 -21.132 -20.165  0.00  0.00    +0.153 HD
ENDBRANCH  14  19
ENDBRANCH   3  13
BRANCH   2  26
ATOM     26  C   UNL     1      33.156 -23.189 -13.089  0.00  0.00    +0.183 C 
BRANCH  26  29
ATOM     27  O   UNL     1      32.142 -25.270 -13.783  0.00  0.00    -0.273 OA
ATOM     28  N   UNL     1      31.072 -23.265 -14.273  0.00  0.00    -0.301 N 
ATOM     29  C   UNL     1      32.082 -24.044 -13.728  0.00  0.00    +0.243 C 
ATOM     30  H   UNL     1      31.125 -22.288 -14.168  0.00  0.00    +0.150 HD
BRANCH  28  31
ATOM     31  C   UNL     1      29.943 -23.818 -14.987  0.00  0.00    +0.121 C 
BRANCH  31  32
ATOM     32  C   UNL     1      28.994 -24.545 -14.053  0.00  0.00    +0.158 C 
BRANCH  32  33
ATOM     33  O   UNL     1      29.200 -25.948 -14.169  0.00  0.00    -0.380 OA
ATOM     34  H   UNL     1      29.677 -26.138 -14.992  0.00  0.00    +0.211 HD
ENDBRANCH  32  33
ENDBRANCH  31  32
ENDBRANCH  28  31
ENDBRANCH  26  29
ENDBRANCH   2  26
TORSDOF 7
ENDMDL
MODEL 7
REMARK VINA RESULT:      -9.3      9.636     15.106
REMARK  Name = 11987874
REMARK  7 active torsions:
REMARK  status: ('A' for Active; 'I' for Inactive)
REMARK    1  A    between atoms: N_2  and  C_26
REMARK    2  A    between atoms: C_3  and  N_13
REMARK    3  A    between atoms: C_14  and  C_19
REMARK    4  A    between atoms: C_26  and  C_29
REMARK    5  A    between atoms: N_28  and  C_31
REMARK    6  A    between atoms: C_31  and  C_32
REMARK    7  A    between atoms: C_32  and  O_33
REMARK                            x       y       z     vdW  Elec       q    Type
REMARK                         _______ _______ _______ _____ _____    ______ ____
ROOT
ATOM      1  O   UNL     1      31.461  -8.936 -24.676  0.00  0.00    -0.273 OA
ATOM      2  N   UNL     1      30.933  -6.822 -23.850  0.00  0.00    -0.249 N 
ATOM      3  C   UNL     1      31.281  -8.705 -22.288  0.00  0.00    +0.154 C 
ATOM      4  C   UNL     1      31.926  -7.725 -21.327  0.00  0.00    +0.057 C 
ATOM      5  C   UNL     1      31.270  -6.383 -21.459  0.00  0.00    -0.006 C 
ATOM      6  C   UNL     1      30.813  -5.951 -22.717  0.00  0.00    +0.050 C 
ATOM      7  C   UNL     1      31.279  -8.178 -23.719  0.00  0.00    +0.248 C 
ATOM      8  C   UNL     1      31.190  -5.533 -20.347  0.00  0.00    -0.003 C 
ATOM      9  C   UNL     1      30.276  -4.657 -22.827  0.00  0.00    +0.015 C 
ATOM     10  C   UNL     1      30.643  -4.259 -20.471  0.00  0.00    -0.000 C 
ATOM     11  C   UNL     1      30.188  -3.822 -21.710  0.00  0.00    +0.001 C 
ENDROOT
BRANCH   3  13
ATOM     12  O   UNL     1      30.440 -11.003 -20.888  0.00  0.00    -0.269 OA
ATOM     13  N   UNL     1      31.963  -9.972 -22.265  0.00  0.00    -0.294 N 
ATOM     14  C   UNL     1      31.481 -11.067 -21.545  0.00  0.00    +0.260 C 
ATOM     15  H   UNL     1      32.799 -10.071 -22.775  0.00  0.00    +0.150 HD
BRANCH  14  19
ATOM     16 CL   UNL     1      35.493 -17.352 -21.945  0.00  0.00    -0.075 Cl
ATOM     17  S   UNL     1      34.282 -15.042 -23.412  0.00  0.00    -0.061 S 
ATOM     18  N   UNL     1      32.752 -12.752 -22.845  0.00  0.00    -0.304 N 
ATOM     19  C   UNL     1      32.272 -12.301 -21.647  0.00  0.00    +0.103 C 
ATOM     20  C   UNL     1      32.623 -13.129 -20.618  0.00  0.00    +0.021 C 
ATOM     21  C   UNL     1      33.353 -14.125 -21.254  0.00  0.00    +0.022 C 
ATOM     22  C   UNL     1      33.423 -13.894 -22.571  0.00  0.00    +0.080 C 
ATOM     23  C   UNL     1      34.004 -15.275 -20.815  0.00  0.00    +0.020 C 
ATOM     24  C   UNL     1      34.578 -15.902 -21.918  0.00  0.00    +0.088 C 
ATOM     25  H   UNL     1      32.633 -12.331 -23.727  0.00  0.00    +0.153 HD
ENDBRANCH  14  19
ENDBRANCH   3  13
BRANCH   2  26
ATOM     26  C   UNL     1      30.696  -6.279 -25.186  0.00  0.00    +0.183 C 
BRANCH  26  29
ATOM     27  O   UNL     1      31.837  -4.344 -26.077  0.00  0.00    -0.273 OA
ATOM     28  N   UNL     1      33.072  -6.232 -25.516  0.00  0.00    -0.301 N 
ATOM     29  C   UNL     1      31.907  -5.487 -25.632  0.00  0.00    +0.243 C 
ATOM     30  H   UNL     1      33.011  -7.141 -25.144  0.00  0.00    +0.150 HD
BRANCH  28  31
ATOM     31  C   UNL     1      34.371  -5.740 -25.917  0.00  0.00    +0.121 C 
BRANCH  31  32
ATOM     32  C   UNL     1      34.729  -4.456 -25.192  0.00  0.00    +0.158 C 
BRANCH  32  33
ATOM     33  O   UNL     1      34.632  -3.361 -26.094  0.00  0.00    -0.380 OA
ATOM     34  H   UNL     1      35.519  -3.118 -26.403  0.00  0.00    +0.211 HD
ENDBRANCH  32  33
ENDBRANCH  31  32
ENDBRANCH  28  31
ENDBRANCH  26  29
ENDBRANCH   2  26
TORSDOF 7
ENDMDL
MODEL 8
REMARK VINA RESULT:      -9.0      5.198     10.336
REMARK  Name = 11987874
REMARK  7 active torsions:
REMARK  status: ('A' for Active; 'I' for Inactive)
REMARK    1  A    between atoms: N_2  and  C_26
REMARK    2  A    between atoms: C_3  and  N_13
REMARK    3  A    between atoms: C_14  and  C_19
REMARK    4  A    between atoms: C_26  and  C_29
REMARK    5  A    between atoms: N_28  and  C_31
REMARK    6  A    between atoms: C_31  and  C_32
REMARK    7  A    between atoms: C_32  and  O_33
REMARK                            x       y       z     vdW  Elec       q    Type
REMARK                         _______ _______ _______ _____ _____    ______ ____
ROOT
ATOM      1  O   UNL     1      34.102 -14.532 -20.077  0.00  0.00    -0.273 OA
ATOM      2  N   UNL     1      33.675 -13.411 -22.074  0.00  0.00    -0.249 N 
ATOM      3  C   UNL     1      34.344 -15.789 -22.113  0.00  0.00    +0.154 C 
ATOM      4  C   UNL     1      33.402 -15.986 -23.285  0.00  0.00    +0.057 C 
ATOM      5  C   UNL     1      33.364 -14.737 -24.116  0.00  0.00    -0.006 C 
ATOM      6  C   UNL     1      33.474 -13.481 -23.493  0.00  0.00    +0.050 C 
ATOM      7  C   UNL     1      33.994 -14.543 -21.306  0.00  0.00    +0.248 C 
ATOM      8  C   UNL     1      33.136 -14.826 -25.497  0.00  0.00    -0.003 C 
ATOM      9  C   UNL     1      33.354 -12.328 -24.286  0.00  0.00    +0.015 C 
ATOM     10  C   UNL     1      33.033 -13.672 -26.269  0.00  0.00    -0.000 C 
ATOM     11  C   UNL     1      33.141 -12.425 -25.663  0.00  0.00    +0.001 C 
ENDROOT
BRANCH   3  13
ATOM     12  O   UNL     1      34.995 -18.437 -22.831  0.00  0.00    -0.269 OA
ATOM     13  N   UNL     1      34.316 -16.929 -21.235  0.00  0.00    -0.294 N 
ATOM     14  C   UNL     1      34.654 -18.213 -21.667  0.00  0.00    +0.260 C 
ATOM     15  H   UNL     1      34.050 -16.800 -20.296  0.00  0.00    +0.150 HD
BRANCH  14  19
ATOM     16 CL   UNL     1      34.307 -23.588 -16.495  0.00  0.00    -0.075 Cl
ATOM     17  S   UNL     1      35.986 -21.538 -17.885  0.00  0.00    -0.061 S 
ATOM     18  N   UNL     1      35.708 -19.598 -19.902  0.00  0.00    -0.304 N 
ATOM     19  C   UNL     1      34.608 -19.268 -20.645  0.00  0.00    +0.103 C 
ATOM     20  C   UNL     1      33.524 -20.027 -20.307  0.00  0.00    +0.021 C 
ATOM     21  C   UNL     1      34.018 -20.851 -19.305  0.00  0.00    +0.022 C 
ATOM     22  C   UNL     1      35.311 -20.592 -19.073  0.00  0.00    +0.080 C 
ATOM     23  C   UNL     1      33.463 -21.859 -18.521  0.00  0.00    +0.020 C 
ATOM     24  C   UNL     1      34.450 -22.346 -17.669  0.00  0.00    +0.088 C 
ATOM     25  H   UNL     1      36.604 -19.196 -19.959  0.00  0.00    +0.153 HD
ENDBRANCH  14  19
ENDBRANCH   3  13
BRANCH   2  26
ATOM     26  C   UNL     1      33.533 -12.120 -21.405  0.00  0.00    +0.183 C 
BRANCH  26  29
ATOM     27  O   UNL     1      31.229 -12.555 -20.818  0.00  0.00    -0.273 OA
ATOM     28  N   UNL     1      31.791 -10.512 -21.774  0.00  0.00    -0.301 N 
ATOM     29  C   UNL     1      32.064 -11.777 -21.273  0.00  0.00    +0.243 C 
ATOM     30  H   UNL     1      32.540  -9.972 -22.115  0.00  0.00    +0.150 HD
BRANCH  28  31
ATOM     31  C   UNL     1      30.461  -9.947 -21.820  0.00  0.00    +0.121 C 
BRANCH  31  32
ATOM     32  C   UNL     1      30.439  -8.635 -22.582  0.00  0.00    +0.158 C 
BRANCH  32  33
ATOM     33  O   UNL     1      31.645  -8.499 -23.323  0.00  0.00    -0.380 OA
ATOM     34  H   UNL     1      32.206  -7.825 -22.905  0.00  0.00    +0.211 HD
ENDBRANCH  32  33
ENDBRANCH  31  32
ENDBRANCH  28  31
ENDBRANCH  26  29
ENDBRANCH   2  26
TORSDOF 7
ENDMDL
MODEL 9
REMARK VINA RESULT:      -8.9      3.757      6.000
REMARK  Name = 11987874
REMARK  7 active torsions:
REMARK  status: ('A' for Active; 'I' for Inactive)
REMARK    1  A    between atoms: N_2  and  C_26
REMARK    2  A    between atoms: C_3  and  N_13
REMARK    3  A    between atoms: C_14  and  C_19
REMARK    4  A    between atoms: C_26  and  C_29
REMARK    5  A    between atoms: N_28  and  C_31
REMARK    6  A    between atoms: C_31  and  C_32
REMARK    7  A    between atoms: C_32  and  O_33
REMARK                            x       y       z     vdW  Elec       q    Type
REMARK                         _______ _______ _______ _____ _____    ______ ____
ROOT
ATOM      1  O   UNL     1      38.391 -22.689 -15.653  0.00  0.00    -0.273 OA
ATOM      2  N   UNL     1      37.814 -23.582 -13.580  0.00  0.00    -0.249 N 
ATOM      3  C   UNL     1      36.426 -21.803 -14.587  0.00  0.00    +0.154 C 
ATOM      4  C   UNL     1      35.206 -22.492 -14.007  0.00  0.00    +0.057 C 
ATOM      5  C   UNL     1      35.566 -23.138 -12.701  0.00  0.00    -0.006 C 
ATOM      6  C   UNL     1      36.847 -23.690 -12.526  0.00  0.00    +0.050 C 
ATOM      7  C   UNL     1      37.615 -22.751 -14.696  0.00  0.00    +0.248 C 
ATOM      8  C   UNL     1      34.598 -23.261 -11.695  0.00  0.00    -0.003 C 
ATOM      9  C   UNL     1      37.129 -24.359 -11.324  0.00  0.00    +0.015 C 
ATOM     10  C   UNL     1      34.899 -23.917 -10.504  0.00  0.00    -0.000 C 
ATOM     11  C   UNL     1      36.163 -24.465 -10.320  0.00  0.00    +0.001 C 
ENDROOT
BRANCH   3  13
ATOM     12  O   UNL     1      34.829 -23.036 -16.557  0.00  0.00    -0.269 OA
ATOM     13  N   UNL     1      36.141 -21.270 -15.894  0.00  0.00    -0.294 N 
ATOM     14  C   UNL     1      35.338 -21.944 -16.816  0.00  0.00    +0.260 C 
ATOM     15  H   UNL     1      36.525 -20.400 -16.146  0.00  0.00    +0.150 HD
BRANCH  14  19
ATOM     16 CL   UNL     1      34.087 -18.491 -23.318  0.00  0.00    -0.075 Cl
ATOM     17  S   UNL     1      36.023 -19.081 -21.114  0.00  0.00    -0.061 S 
ATOM     18  N   UNL     1      36.093 -20.517 -18.697  0.00  0.00    -0.304 N 
ATOM     19  C   UNL     1      35.113 -21.255 -18.095  0.00  0.00    +0.103 C 
ATOM     20  C   UNL     1      33.959 -21.255 -18.827  0.00  0.00    +0.021 C 
ATOM     21  C   UNL     1      34.285 -20.468 -19.923  0.00  0.00    +0.022 C 
ATOM     22  C   UNL     1      35.549 -20.035 -19.838  0.00  0.00    +0.080 C 
ATOM     23  C   UNL     1      33.587 -20.051 -21.055  0.00  0.00    +0.020 C 
ATOM     24  C   UNL     1      34.435 -19.260 -21.825  0.00  0.00    +0.088 C 
ATOM     25  H   UNL     1      37.009 -20.366 -18.367  0.00  0.00    +0.153 HD
ENDBRANCH  14  19
ENDBRANCH   3  13
BRANCH   2  26
ATOM     26  C   UNL     1      39.041 -24.370 -13.496  0.00  0.00    +0.183 C 
BRANCH  26  29
ATOM     27  O   UNL     1      39.740 -26.368 -14.662  0.00  0.00    -0.273 OA
ATOM     28  N   UNL     1      37.486 -26.062 -14.184  0.00  0.00    -0.301 N 
ATOM     29  C   UNL     1      38.828 -25.712 -14.165  0.00  0.00    +0.243 C 
ATOM     30  H   UNL     1      36.838 -25.459 -13.753  0.00  0.00    +0.150 HD
BRANCH  28  31
ATOM     31  C   UNL     1      36.990 -27.270 -14.805  0.00  0.00    +0.121 C 
BRANCH  31  32
ATOM     32  C   UNL     1      35.944 -26.964 -15.861  0.00  0.00    +0.158 C 
BRANCH  32  33
ATOM     33  O   UNL     1      36.343 -27.534 -17.101  0.00  0.00    -0.380 OA
ATOM     34  H   UNL     1      36.803 -28.373 -16.938  0.00  0.00    +0.211 HD
ENDBRANCH  32  33
ENDBRANCH  31  32
ENDBRANCH  28  31
ENDBRANCH  26  29
ENDBRANCH   2  26
TORSDOF 7
ENDMDL
