MODEL 1
REMARK VINA RESULT:     -11.9      0.000      0.000
REMARK  Name = 24780598
REMARK  5 active torsions:
REMARK  status: ('A' for Active; 'I' for Inactive)
REMARK    1  A    between atoms: C_2  and  S_22
REMARK    2  A    between atoms: C_3  and  O_33
REMARK    3  A    between atoms: C_5  and  N_9
REMARK    4  A    between atoms: N_10  and  C_15
REMARK    5  A    between atoms: S_22  and  C_26
REMARK                            x       y       z     vdW  Elec       q    Type
REMARK                         _______ _______ _______ _____ _____    ______ ____
ROOT
ATOM      1 CL   UNL     1      33.393 -23.975 -14.612  0.00  0.00    -0.081 Cl
ATOM      2  C   UNL     1      35.121 -22.413 -16.046  0.00  0.00    +0.151 C 
ATOM      3  C   UNL     1      35.487 -21.703 -17.191  0.00  0.00    +0.165 C 
ATOM      4  C   UNL     1      33.897 -23.079 -16.001  0.00  0.00    +0.078 C 
ATOM      5  C   UNL     1      34.629 -21.662 -18.289  0.00  0.00    +0.087 C 
ATOM      6  C   UNL     1      33.038 -23.038 -17.099  0.00  0.00    +0.014 C 
ATOM      7  C   UNL     1      33.404 -22.328 -18.244  0.00  0.00    +0.019 C 
ENDROOT
BRANCH   5   9
ATOM      8  O   UNL     1      32.970 -19.909 -20.050  0.00  0.00    -0.252 OA
ATOM      9  N   UNL     1      34.977 -20.954 -19.442  0.00  0.00    -0.266 N 
ATOM     10  N   UNL     1      34.913 -19.609 -21.316  0.00  0.00    -0.268 N 
ATOM     11  C   UNL     1      34.160 -20.130 -20.253  0.00  0.00    +0.308 C 
ATOM     12  H   UNL     1      35.915 -21.038 -19.728  0.00  0.00    +0.157 HD
ATOM     13  H   UNL     1      35.861 -19.877 -21.347  0.00  0.00    +0.156 HD
BRANCH  10  15
ATOM     14  F   UNL     1      34.069 -15.196 -23.059  0.00  0.00    -0.204 F 
ATOM     15  C   UNL     1      34.479 -18.746 -22.350  0.00  0.00    +0.050 C 
ATOM     16  C   UNL     1      34.491 -17.361 -22.181  0.00  0.00    +0.019 C 
ATOM     17  C   UNL     1      34.034 -19.298 -23.552  0.00  0.00    +0.015 C 
ATOM     18  C   UNL     1      34.059 -16.528 -23.213  0.00  0.00    +0.137 C 
ATOM     19  C   UNL     1      34.963 -16.748 -20.902  0.00  0.00    +0.035 C 
ATOM     20  C   UNL     1      33.602 -18.464 -24.584  0.00  0.00    +0.004 C 
ATOM     21  C   UNL     1      33.615 -17.079 -24.415  0.00  0.00    +0.029 C 
ENDBRANCH  10  15
ENDBRANCH   5   9
BRANCH   2  22
ATOM     22  S   UNL     1      36.231 -22.451 -14.673  0.00  0.00    +0.009 S 
ATOM     23  O   UNL     1      37.133 -21.325 -14.820  0.00  0.00    -0.169 OA
ATOM     24  O   UNL     1      35.447 -22.615 -13.464  0.00  0.00    -0.169 OA
BRANCH  22  26
ATOM     25  N   UNL     1      37.644 -26.175 -13.951  0.00  0.00    +0.385 N 
ATOM     26  C   UNL     1      37.154 -23.945 -14.917  0.00  0.00    +0.113 C 
ATOM     27  C   UNL     1      38.647 -23.640 -15.018  0.00  0.00    +0.020 C 
ATOM     28  C   UNL     1      36.870 -24.942 -13.793  0.00  0.00    -0.057 C 
ATOM     29  C   UNL     1      39.454 -24.933 -15.104  0.00  0.00    -0.022 C 
ATOM     30  C   UNL     1      39.081 -25.892 -13.973  0.00  0.00    -0.082 C 
ATOM     31  H   UNL     1      37.378 -26.625 -14.828  0.00  0.00    -0.084 HD
ATOM     32  H   UNL     1      37.445 -26.789 -13.162  0.00  0.00    -0.084 HD
ENDBRANCH  22  26
ENDBRANCH   2  22
BRANCH   3  33
ATOM     33  O   UNL     1      36.684 -21.050 -17.243  0.00  0.00    -0.503 OA
ATOM     34  H   UNL     1      36.813 -20.355 -17.860  0.00  0.00    +0.292 HD
ENDBRANCH   3  33
TORSDOF 5
ENDMDL
MODEL 2
REMARK VINA RESULT:     -11.0     10.676     15.633
REMARK  Name = 24780598
REMARK  5 active torsions:
REMARK  status: ('A' for Active; 'I' for Inactive)
REMARK    1  A    between atoms: C_2  and  S_22
REMARK    2  A    between atoms: C_3  and  O_33
REMARK    3  A    between atoms: C_5  and  N_9
REMARK    4  A    between atoms: N_10  and  C_15
REMARK    5  A    between atoms: S_22  and  C_26
REMARK                            x       y       z     vdW  Elec       q    Type
REMARK                         _______ _______ _______ _____ _____    ______ ____
ROOT
ATOM      1 CL   UNL     1      31.143  -4.583 -21.044  0.00  0.00    -0.081 Cl
ATOM      2  C   UNL     1      31.118  -6.874 -22.539  0.00  0.00    +0.151 C 
ATOM      3  C   UNL     1      31.223  -8.258 -22.683  0.00  0.00    +0.165 C 
ATOM      4  C   UNL     1      31.260  -6.291 -21.280  0.00  0.00    +0.078 C 
ATOM      5  C   UNL     1      31.471  -9.057 -21.567  0.00  0.00    +0.087 C 
ATOM      6  C   UNL     1      31.508  -7.090 -20.164  0.00  0.00    +0.014 C 
ATOM      7  C   UNL     1      31.613  -8.474 -20.308  0.00  0.00    +0.019 C 
ENDROOT
BRANCH   5   9
ATOM      8  O   UNL     1      33.314 -10.708 -23.241  0.00  0.00    -0.252 OA
ATOM      9  N   UNL     1      31.576 -10.445 -21.692  0.00  0.00    -0.266 N 
ATOM     10  N   UNL     1      32.232 -12.566 -22.323  0.00  0.00    -0.268 N 
ATOM     11  C   UNL     1      32.466 -11.194 -22.499  0.00  0.00    +0.308 C 
ATOM     12  H   UNL     1      30.949 -10.972 -21.147  0.00  0.00    +0.157 HD
ATOM     13  H   UNL     1      31.514 -12.804 -21.691  0.00  0.00    +0.156 HD
BRANCH  10  15
ATOM     14  F   UNL     1      35.120 -16.418 -22.119  0.00  0.00    -0.204 F 
ATOM     15  C   UNL     1      32.898 -13.650 -22.941  0.00  0.00    +0.050 C 
ATOM     16  C   UNL     1      33.700 -14.516 -22.197  0.00  0.00    +0.019 C 
ATOM     17  C   UNL     1      32.746 -13.847 -24.314  0.00  0.00    +0.015 C 
ATOM     18  C   UNL     1      34.349 -15.579 -22.826  0.00  0.00    +0.137 C 
ATOM     19  C   UNL     1      33.879 -14.325 -20.726  0.00  0.00    +0.035 C 
ATOM     20  C   UNL     1      33.394 -14.910 -24.942  0.00  0.00    +0.004 C 
ATOM     21  C   UNL     1      34.196 -15.776 -24.198  0.00  0.00    +0.029 C 
ENDBRANCH  10  15
ENDBRANCH   5   9
BRANCH   2  22
ATOM     22  S   UNL     1      30.809  -5.887 -23.971  0.00  0.00    +0.009 S 
ATOM     23  O   UNL     1      29.923  -6.648 -24.832  0.00  0.00    -0.169 OA
ATOM     24  O   UNL     1      30.443  -4.554 -23.530  0.00  0.00    -0.169 OA
BRANCH  22  26
ATOM     25  N   UNL     1      34.455  -4.405 -24.916  0.00  0.00    +0.385 N 
ATOM     26  C   UNL     1      32.394  -5.772 -24.756  0.00  0.00    +0.113 C 
ATOM     27  C   UNL     1      32.237  -5.746 -26.276  0.00  0.00    +0.020 C 
ATOM     28  C   UNL     1      33.153  -4.542 -24.259  0.00  0.00    -0.057 C 
ATOM     29  C   UNL     1      33.588  -5.523 -26.951  0.00  0.00    -0.022 C 
ATOM     30  C   UNL     1      34.301  -4.303 -26.369  0.00  0.00    -0.082 C 
ATOM     31  H   UNL     1      35.027  -5.221 -24.696  0.00  0.00    -0.084 HD
ATOM     32  H   UNL     1      34.904  -3.554 -24.576  0.00  0.00    -0.084 HD
ENDBRANCH  22  26
ENDBRANCH   2  22
BRANCH   3  33
ATOM     33  O   UNL     1      31.087  -8.835 -23.912  0.00  0.00    -0.503 OA
ATOM     34  H   UNL     1      30.603  -9.633 -24.004  0.00  0.00    +0.292 HD
ENDBRANCH   3  33
TORSDOF 5
ENDMDL
MODEL 3
REMARK VINA RESULT:     -10.6      1.828      2.248
REMARK  Name = 24780598
REMARK  5 active torsions:
REMARK  status: ('A' for Active; 'I' for Inactive)
REMARK    1  A    between atoms: C_2  and  S_22
REMARK    2  A    between atoms: C_3  and  O_33
REMARK    3  A    between atoms: C_5  and  N_9
REMARK    4  A    between atoms: N_10  and  C_15
REMARK    5  A    between atoms: S_22  and  C_26
REMARK                            x       y       z     vdW  Elec       q    Type
REMARK                         _______ _______ _______ _____ _____    ______ ____
ROOT
ATOM      1 CL   UNL     1      33.237 -24.224 -14.599  0.00  0.00    -0.081 Cl
ATOM      2  C   UNL     1      35.137 -22.920 -16.073  0.00  0.00    +0.151 C 
ATOM      3  C   UNL     1      35.535 -22.096 -17.126  0.00  0.00    +0.165 C 
ATOM      4  C   UNL     1      33.785 -23.208 -15.885  0.00  0.00    +0.078 C 
ATOM      5  C   UNL     1      34.580 -21.561 -17.991  0.00  0.00    +0.087 C 
ATOM      6  C   UNL     1      32.830 -22.673 -16.749  0.00  0.00    +0.014 C 
ATOM      7  C   UNL     1      33.228 -21.848 -17.802  0.00  0.00    +0.019 C 
ENDROOT
BRANCH   5   9
ATOM      8  O   UNL     1      32.948 -20.385 -20.200  0.00  0.00    -0.252 OA
ATOM      9  N   UNL     1      34.960 -20.731 -19.048  0.00  0.00    -0.266 N 
ATOM     10  N   UNL     1      34.940 -19.408 -20.940  0.00  0.00    -0.268 N 
ATOM     11  C   UNL     1      34.154 -20.191 -20.080  0.00  0.00    +0.308 C 
ATOM     12  H   UNL     1      35.913 -20.488 -19.081  0.00  0.00    +0.157 HD
ATOM     13  H   UNL     1      35.897 -19.345 -20.714  0.00  0.00    +0.156 HD
BRANCH  10  15
ATOM     14  F   UNL     1      33.942 -15.283 -23.223  0.00  0.00    -0.204 F 
ATOM     15  C   UNL     1      34.527 -18.696 -22.091  0.00  0.00    +0.050 C 
ATOM     16  C   UNL     1      34.438 -17.304 -22.079  0.00  0.00    +0.019 C 
ATOM     17  C   UNL     1      34.206 -19.406 -23.248  0.00  0.00    +0.015 C 
ATOM     18  C   UNL     1      34.028 -16.621 -23.225  0.00  0.00    +0.137 C 
ATOM     19  C   UNL     1      34.775 -16.522 -20.850  0.00  0.00    +0.035 C 
ATOM     20  C   UNL     1      33.798 -18.723 -24.394  0.00  0.00    +0.004 C 
ATOM     21  C   UNL     1      33.709 -17.330 -24.382  0.00  0.00    +0.029 C 
ENDBRANCH  10  15
ENDBRANCH   5   9
BRANCH   2  22
ATOM     22  S   UNL     1      36.369 -23.587 -14.998  0.00  0.00    +0.009 S 
ATOM     23  O   UNL     1      36.331 -25.029 -15.145  0.00  0.00    -0.169 OA
ATOM     24  O   UNL     1      37.603 -22.856 -15.218  0.00  0.00    -0.169 OA
BRANCH  22  26
ATOM     25  N   UNL     1      36.446 -22.168 -11.208  0.00  0.00    +0.385 N 
ATOM     26  C   UNL     1      35.786 -23.172 -13.376  0.00  0.00    +0.113 C 
ATOM     27  C   UNL     1      35.263 -24.417 -12.661  0.00  0.00    +0.020 C 
ATOM     28  C   UNL     1      36.890 -22.494 -12.565  0.00  0.00    -0.057 C 
ATOM     29  C   UNL     1      34.876 -24.086 -11.222  0.00  0.00    -0.022 C 
ATOM     30  C   UNL     1      36.014 -23.373 -10.495  0.00  0.00    -0.082 C 
ATOM     31  H   UNL     1      35.665 -21.513 -11.261  0.00  0.00    -0.084 HD
ATOM     32  H   UNL     1      37.225 -21.751 -10.700  0.00  0.00    -0.084 HD
ENDBRANCH  22  26
ENDBRANCH   2  22
BRANCH   3  33
ATOM     33  O   UNL     1      36.856 -21.811 -17.318  0.00  0.00    -0.503 OA
ATOM     34  H   UNL     1      37.438 -22.475 -17.631  0.00  0.00    +0.292 HD
ENDBRANCH   3  33
TORSDOF 5
ENDMDL
MODEL 4
REMARK VINA RESULT:     -10.6      9.521     14.780
REMARK  Name = 24780598
REMARK  5 active torsions:
REMARK  status: ('A' for Active; 'I' for Inactive)
REMARK    1  A    between atoms: C_2  and  S_22
REMARK    2  A    between atoms: C_3  and  O_33
REMARK    3  A    between atoms: C_5  and  N_9
REMARK    4  A    between atoms: N_10  and  C_15
REMARK    5  A    between atoms: S_22  and  C_26
REMARK                            x       y       z     vdW  Elec       q    Type
REMARK                         _______ _______ _______ _____ _____    ______ ____
ROOT
ATOM      1 CL   UNL     1      30.824  -6.881 -21.820  0.00  0.00    -0.081 Cl
ATOM      2  C   UNL     1      32.793  -8.450 -22.890  0.00  0.00    +0.151 C 
ATOM      3  C   UNL     1      33.342  -9.688 -23.226  0.00  0.00    +0.165 C 
ATOM      4  C   UNL     1      31.549  -8.386 -22.262  0.00  0.00    +0.078 C 
ATOM      5  C   UNL     1      32.646 -10.861 -22.934  0.00  0.00    +0.087 C 
ATOM      6  C   UNL     1      30.853  -9.559 -21.970  0.00  0.00    +0.014 C 
ATOM      7  C   UNL     1      31.402 -10.797 -22.307  0.00  0.00    +0.019 C 
ENDROOT
BRANCH   5   9
ATOM      8  O   UNL     1      32.852 -13.363 -21.315  0.00  0.00    -0.252 OA
ATOM      9  N   UNL     1      33.178 -12.109 -23.267  0.00  0.00    -0.266 N 
ATOM     10  N   UNL     1      33.869 -14.310 -23.196  0.00  0.00    -0.268 N 
ATOM     11  C   UNL     1      33.258 -13.276 -22.470  0.00  0.00    +0.308 C 
ATOM     12  H   UNL     1      33.546 -12.188 -24.177  0.00  0.00    +0.157 HD
ATOM     13  H   UNL     1      34.143 -14.089 -24.116  0.00  0.00    +0.156 HD
BRANCH  10  15
ATOM     14  F   UNL     1      34.000 -19.061 -23.988  0.00  0.00    -0.204 F 
ATOM     15  C   UNL     1      34.140 -15.632 -22.769  0.00  0.00    +0.050 C 
ATOM     16  C   UNL     1      33.927 -16.717 -23.618  0.00  0.00    +0.019 C 
ATOM     17  C   UNL     1      34.628 -15.841 -21.478  0.00  0.00    +0.015 C 
ATOM     18  C   UNL     1      34.201 -18.012 -23.178  0.00  0.00    +0.137 C 
ATOM     19  C   UNL     1      33.404 -16.518 -25.004  0.00  0.00    +0.035 C 
ATOM     20  C   UNL     1      34.902 -17.136 -21.038  0.00  0.00    +0.004 C 
ATOM     21  C   UNL     1      34.689 -18.222 -21.888  0.00  0.00    +0.029 C 
ENDBRANCH  10  15
ENDBRANCH   5   9
BRANCH   2  22
ATOM     22  S   UNL     1      33.700  -6.983 -23.267  0.00  0.00    +0.009 S 
ATOM     23  O   UNL     1      34.020  -6.341 -22.006  0.00  0.00    -0.169 OA
ATOM     24  O   UNL     1      34.751  -7.331 -24.205  0.00  0.00    -0.169 OA
BRANCH  22  26
ATOM     25  N   UNL     1      31.923  -5.068 -26.358  0.00  0.00    +0.385 N 
ATOM     26  C   UNL     1      32.529  -5.971 -24.131  0.00  0.00    +0.113 C 
ATOM     27  C   UNL     1      32.490  -4.567 -23.531  0.00  0.00    +0.020 C 
ATOM     28  C   UNL     1      32.857  -5.924 -25.624  0.00  0.00    -0.057 C 
ATOM     29  C   UNL     1      31.574  -3.659 -24.349  0.00  0.00    -0.022 C 
ATOM     30  C   UNL     1      31.939  -3.701 -25.832  0.00  0.00    -0.082 C 
ATOM     31  H   UNL     1      30.980  -5.450 -26.269  0.00  0.00    -0.084 HD
ATOM     32  H   UNL     1      32.204  -5.043 -27.338  0.00  0.00    -0.084 HD
ENDBRANCH  22  26
ENDBRANCH   2  22
BRANCH   3  33
ATOM     33  O   UNL     1      34.559  -9.759 -23.839  0.00  0.00    -0.503 OA
ATOM     34  H   UNL     1      35.256 -10.245 -23.443  0.00  0.00    +0.292 HD
ENDBRANCH   3  33
TORSDOF 5
ENDMDL
MODEL 5
REMARK VINA RESULT:      -9.8      8.926     13.862
REMARK  Name = 24780598
REMARK  5 active torsions:
REMARK  status: ('A' for Active; 'I' for Inactive)
REMARK    1  A    between atoms: C_2  and  S_22
REMARK    2  A    between atoms: C_3  and  O_33
REMARK    3  A    between atoms: C_5  and  N_9
REMARK    4  A    between atoms: N_10  and  C_15
REMARK    5  A    between atoms: S_22  and  C_26
REMARK                            x       y       z     vdW  Elec       q    Type
REMARK                         _______ _______ _______ _____ _____    ______ ____
ROOT
ATOM      1 CL   UNL     1      30.813  -8.064 -20.330  0.00  0.00    -0.081 Cl
ATOM      2  C   UNL     1      32.044  -9.523 -22.289  0.00  0.00    +0.151 C 
ATOM      3  C   UNL     1      32.507 -10.722 -22.832  0.00  0.00    +0.165 C 
ATOM      4  C   UNL     1      31.403  -9.520 -21.051  0.00  0.00    +0.078 C 
ATOM      5  C   UNL     1      32.328 -11.917 -22.136  0.00  0.00    +0.087 C 
ATOM      6  C   UNL     1      31.224 -10.715 -20.354  0.00  0.00    +0.014 C 
ATOM      7  C   UNL     1      31.687 -11.914 -20.897  0.00  0.00    +0.019 C 
ENDROOT
BRANCH   5   9
ATOM      8  O   UNL     1      33.580 -14.267 -20.780  0.00  0.00    -0.252 OA
ATOM      9  N   UNL     1      32.781 -13.128 -22.666  0.00  0.00    -0.266 N 
ATOM     10  N   UNL     1      33.680 -15.240 -22.904  0.00  0.00    -0.268 N 
ATOM     11  C   UNL     1      33.372 -14.222 -21.988  0.00  0.00    +0.308 C 
ATOM     12  H   UNL     1      32.676 -13.235 -23.638  0.00  0.00    +0.157 HD
ATOM     13  H   UNL     1      33.453 -15.059 -23.845  0.00  0.00    +0.156 HD
BRANCH  10  15
ATOM     14  F   UNL     1      34.479 -19.856 -24.032  0.00  0.00    -0.204 F 
ATOM     15  C   UNL     1      34.278 -16.496 -22.641  0.00  0.00    +0.050 C 
ATOM     16  C   UNL     1      34.072 -17.580 -23.494  0.00  0.00    +0.019 C 
ATOM     17  C   UNL     1      35.083 -16.640 -21.511  0.00  0.00    +0.015 C 
ATOM     18  C   UNL     1      34.671 -18.809 -23.217  0.00  0.00    +0.137 C 
ATOM     19  C   UNL     1      33.213 -17.449 -24.710  0.00  0.00    +0.035 C 
ATOM     20  C   UNL     1      35.683 -17.869 -21.235  0.00  0.00    +0.004 C 
ATOM     21  C   UNL     1      35.476 -18.954 -22.088  0.00  0.00    +0.029 C 
ENDBRANCH  10  15
ENDBRANCH   5   9
BRANCH   2  22
ATOM     22  S   UNL     1      32.290  -8.025 -23.193  0.00  0.00    +0.009 S 
ATOM     23  O   UNL     1      33.717  -7.765 -23.210  0.00  0.00    -0.169 OA
ATOM     24  O   UNL     1      31.543  -8.119 -24.433  0.00  0.00    -0.169 OA
BRANCH  22  26
ATOM     25  N   UNL     1      29.687  -5.110 -22.142  0.00  0.00    +0.385 N 
ATOM     26  C   UNL     1      31.507  -6.792 -22.189  0.00  0.00    +0.113 C 
ATOM     27  C   UNL     1      32.520  -5.736 -21.753  0.00  0.00    +0.020 C 
ATOM     28  C   UNL     1      30.334  -6.156 -22.937  0.00  0.00    -0.057 C 
ATOM     29  C   UNL     1      31.825  -4.608 -20.993  0.00  0.00    -0.022 C 
ATOM     30  C   UNL     1      30.641  -4.057 -21.786  0.00  0.00    -0.082 C 
ATOM     31  H   UNL     1      29.311  -5.524 -21.289  0.00  0.00    -0.084 HD
ATOM     32  H   UNL     1      28.938  -4.696 -22.697  0.00  0.00    -0.084 HD
ENDBRANCH  22  26
ENDBRANCH   2  22
BRANCH   3  33
ATOM     33  O   UNL     1      33.137 -10.734 -24.043  0.00  0.00    -0.503 OA
ATOM     34  H   UNL     1      32.950 -11.412 -24.663  0.00  0.00    +0.292 HD
ENDBRANCH   3  33
TORSDOF 5
ENDMDL
MODEL 6
REMARK VINA RESULT:      -9.7      9.968     15.163
REMARK  Name = 24780598
REMARK  5 active torsions:
REMARK  status: ('A' for Active; 'I' for Inactive)
REMARK    1  A    between atoms: C_2  and  S_22
REMARK    2  A    between atoms: C_3  and  O_33
REMARK    3  A    between atoms: C_5  and  N_9
REMARK    4  A    between atoms: N_10  and  C_15
REMARK    5  A    between atoms: S_22  and  C_26
REMARK                            x       y       z     vdW  Elec       q    Type
REMARK                         _______ _______ _______ _____ _____    ______ ____
ROOT
ATOM      1 CL   UNL     1      30.222  -6.208 -22.251  0.00  0.00    -0.081 Cl
ATOM      2  C   UNL     1      32.533  -7.514 -22.914  0.00  0.00    +0.151 C 
ATOM      3  C   UNL     1      33.276  -8.672 -23.148  0.00  0.00    +0.165 C 
ATOM      4  C   UNL     1      31.189  -7.608 -22.556  0.00  0.00    +0.078 C 
ATOM      5  C   UNL     1      32.672  -9.923 -23.023  0.00  0.00    +0.087 C 
ATOM      6  C   UNL     1      30.585  -8.859 -22.431  0.00  0.00    +0.014 C 
ATOM      7  C   UNL     1      31.328 -10.017 -22.665  0.00  0.00    +0.019 C 
ENDROOT
BRANCH   5   9
ATOM      8  O   UNL     1      31.984 -12.770 -22.437  0.00  0.00    -0.252 OA
ATOM      9  N   UNL     1      33.400 -11.093 -23.258  0.00  0.00    -0.266 N 
ATOM     10  N   UNL     1      34.064 -13.301 -23.366  0.00  0.00    -0.268 N 
ATOM     11  C   UNL     1      33.039 -12.430 -22.964  0.00  0.00    +0.308 C 
ATOM     12  H   UNL     1      34.279 -10.972 -23.683  0.00  0.00    +0.157 HD
ATOM     13  H   UNL     1      34.853 -12.878 -23.777  0.00  0.00    +0.156 HD
BRANCH  10  15
ATOM     14  F   UNL     1      34.274 -17.321 -20.718  0.00  0.00    -0.204 F 
ATOM     15  C   UNL     1      34.103 -14.710 -23.253  0.00  0.00    +0.050 C 
ATOM     16  C   UNL     1      34.172 -15.328 -22.004  0.00  0.00    +0.019 C 
ATOM     17  C   UNL     1      34.072 -15.485 -24.414  0.00  0.00    +0.015 C 
ATOM     18  C   UNL     1      34.209 -16.719 -21.915  0.00  0.00    +0.137 C 
ATOM     19  C   UNL     1      34.207 -14.518 -20.748  0.00  0.00    +0.035 C 
ATOM     20  C   UNL     1      34.109 -16.877 -24.324  0.00  0.00    +0.004 C 
ATOM     21  C   UNL     1      34.178 -17.494 -23.074  0.00  0.00    +0.029 C 
ENDBRANCH  10  15
ENDBRANCH   5   9
BRANCH   2  22
ATOM     22  S   UNL     1      33.326  -5.943 -23.074  0.00  0.00    +0.009 S 
ATOM     23  O   UNL     1      32.344  -4.932 -22.733  0.00  0.00    -0.169 OA
ATOM     24  O   UNL     1      34.595  -6.006 -22.374  0.00  0.00    -0.169 OA
BRANCH  22  26
ATOM     25  N   UNL     1      34.687  -4.374 -26.548  0.00  0.00    +0.385 N 
ATOM     26  C   UNL     1      33.679  -5.822 -24.807  0.00  0.00    +0.113 C 
ATOM     27  C   UNL     1      32.393  -5.940 -25.624  0.00  0.00    +0.020 C 
ATOM     28  C   UNL     1      34.411  -4.516 -25.116  0.00  0.00    -0.057 C 
ATOM     29  C   UNL     1      32.677  -5.712 -27.106  0.00  0.00    -0.022 C 
ATOM     30  C   UNL     1      33.448  -4.411 -27.327  0.00  0.00    -0.082 C 
ATOM     31  H   UNL     1      35.294  -5.138 -26.847  0.00  0.00    -0.084 HD
ATOM     32  H   UNL     1      35.143  -3.476 -26.704  0.00  0.00    -0.084 HD
ENDBRANCH  22  26
ENDBRANCH   2  22
BRANCH   3  33
ATOM     33  O   UNL     1      34.592  -8.588 -23.497  0.00  0.00    -0.503 OA
ATOM     34  H   UNL     1      34.838  -8.192 -24.311  0.00  0.00    +0.292 HD
ENDBRANCH   3  33
TORSDOF 5
ENDMDL
MODEL 7
REMARK VINA RESULT:      -9.4      4.235      9.680
REMARK  Name = 24780598
REMARK  5 active torsions:
REMARK  status: ('A' for Active; 'I' for Inactive)
REMARK    1  A    between atoms: C_2  and  S_22
REMARK    2  A    between atoms: C_3  and  O_33
REMARK    3  A    between atoms: C_5  and  N_9
REMARK    4  A    between atoms: N_10  and  C_15
REMARK    5  A    between atoms: S_22  and  C_26
REMARK                            x       y       z     vdW  Elec       q    Type
REMARK                         _______ _______ _______ _____ _____    ______ ____
ROOT
ATOM      1 CL   UNL     1      32.469 -19.436 -22.101  0.00  0.00    -0.081 Cl
ATOM      2  C   UNL     1      34.850 -19.523 -20.756  0.00  0.00    +0.151 C 
ATOM      3  C   UNL     1      35.671 -19.977 -19.724  0.00  0.00    +0.165 C 
ATOM      4  C   UNL     1      33.531 -19.968 -20.845  0.00  0.00    +0.078 C 
ATOM      5  C   UNL     1      35.171 -20.875 -18.780  0.00  0.00    +0.087 C 
ATOM      6  C   UNL     1      33.031 -20.865 -19.902  0.00  0.00    +0.014 C 
ATOM      7  C   UNL     1      33.852 -21.319 -18.869  0.00  0.00    +0.019 C 
ENDROOT
BRANCH   5   9
ATOM      8  O   UNL     1      34.470 -22.500 -16.374  0.00  0.00    -0.252 OA
ATOM      9  N   UNL     1      35.980 -21.343 -17.742  0.00  0.00    -0.266 N 
ATOM     10  N   UNL     1      36.737 -22.366 -15.816  0.00  0.00    -0.268 N 
ATOM     11  C   UNL     1      35.610 -22.114 -16.613  0.00  0.00    +0.308 C 
ATOM     12  H   UNL     1      36.934 -21.106 -17.802  0.00  0.00    +0.157 HD
ATOM     13  H   UNL     1      37.588 -21.989 -16.139  0.00  0.00    +0.156 HD
BRANCH  10  15
ATOM     14  F   UNL     1      38.908 -25.532 -12.903  0.00  0.00    -0.204 F 
ATOM     15  C   UNL     1      36.802 -23.095 -14.605  0.00  0.00    +0.050 C 
ATOM     16  C   UNL     1      37.854 -23.976 -14.354  0.00  0.00    +0.019 C 
ATOM     17  C   UNL     1      35.794 -22.923 -13.655  0.00  0.00    +0.015 C 
ATOM     18  C   UNL     1      37.899 -24.685 -13.153  0.00  0.00    +0.137 C 
ATOM     19  C   UNL     1      38.944 -24.177 -15.357  0.00  0.00    +0.035 C 
ATOM     20  C   UNL     1      35.840 -23.632 -12.454  0.00  0.00    +0.004 C 
ATOM     21  C   UNL     1      36.893 -24.512 -12.203  0.00  0.00    +0.029 C 
ENDBRANCH  10  15
ENDBRANCH   5   9
BRANCH   2  22
ATOM     22  S   UNL     1      35.509 -18.383 -21.933  0.00  0.00    +0.009 S 
ATOM     23  O   UNL     1      36.781 -17.917 -21.412  0.00  0.00    -0.169 OA
ATOM     24  O   UNL     1      35.430 -18.994 -23.246  0.00  0.00    -0.169 OA
BRANCH  22  26
ATOM     25  N   UNL     1      33.598 -15.027 -23.142  0.00  0.00    +0.385 N 
ATOM     26  C   UNL     1      34.362 -17.032 -21.903  0.00  0.00    +0.113 C 
ATOM     27  C   UNL     1      34.549 -16.200 -20.635  0.00  0.00    +0.020 C 
ATOM     28  C   UNL     1      34.513 -16.170 -23.156  0.00  0.00    -0.057 C 
ATOM     29  C   UNL     1      33.648 -14.968 -20.665  0.00  0.00    -0.022 C 
ATOM     30  C   UNL     1      33.827 -14.185 -21.965  0.00  0.00    -0.082 C 
ATOM     31  H   UNL     1      32.636 -15.369 -23.127  0.00  0.00    -0.084 HD
ATOM     32  H   UNL     1      33.762 -14.467 -23.979  0.00  0.00    -0.084 HD
ENDBRANCH  22  26
ENDBRANCH   2  22
BRANCH   3  33
ATOM     33  O   UNL     1      36.962 -19.546 -19.629  0.00  0.00    -0.503 OA
ATOM     34  H   UNL     1      37.168 -18.644 -19.780  0.00  0.00    +0.292 HD
ENDBRANCH   3  33
TORSDOF 5
ENDMDL
MODEL 8
REMARK VINA RESULT:      -9.4      9.541     14.732
REMARK  Name = 24780598
REMARK  5 active torsions:
REMARK  status: ('A' for Active; 'I' for Inactive)
REMARK    1  A    between atoms: C_2  and  S_22
REMARK    2  A    between atoms: C_3  and  O_33
REMARK    3  A    between atoms: C_5  and  N_9
REMARK    4  A    between atoms: N_10  and  C_15
REMARK    5  A    between atoms: S_22  and  C_26
REMARK                            x       y       z     vdW  Elec       q    Type
REMARK                         _______ _______ _______ _____ _____    ______ ____
ROOT
ATOM      1 CL   UNL     1      33.591  -6.020 -22.949  0.00  0.00    -0.081 Cl
ATOM      2  C   UNL     1      32.445  -8.493 -22.716  0.00  0.00    +0.151 C 
ATOM      3  C   UNL     1      32.439  -9.876 -22.902  0.00  0.00    +0.165 C 
ATOM      4  C   UNL     1      33.532  -7.736 -23.150  0.00  0.00    +0.078 C 
ATOM      5  C   UNL     1      33.521 -10.500 -23.523  0.00  0.00    +0.087 C 
ATOM      6  C   UNL     1      34.614  -8.360 -23.771  0.00  0.00    +0.014 C 
ATOM      7  C   UNL     1      34.608  -9.742 -23.957  0.00  0.00    +0.019 C 
ENDROOT
BRANCH   5   9
ATOM      8  O   UNL     1      34.275 -12.698 -21.646  0.00  0.00    -0.252 OA
ATOM      9  N   UNL     1      33.533 -11.884 -23.714  0.00  0.00    -0.266 N 
ATOM     10  N   UNL     1      33.766 -14.158 -23.400  0.00  0.00    -0.268 N 
ATOM     11  C   UNL     1      33.899 -12.898 -22.797  0.00  0.00    +0.308 C 
ATOM     12  H   UNL     1      33.251 -12.195 -24.604  0.00  0.00    +0.157 HD
ATOM     13  H   UNL     1      33.452 -14.160 -24.334  0.00  0.00    +0.156 HD
BRANCH  10  15
ATOM     14  F   UNL     1      34.140 -18.949 -23.759  0.00  0.00    -0.204 F 
ATOM     15  C   UNL     1      34.029 -15.428 -22.833  0.00  0.00    +0.050 C 
ATOM     16  C   UNL     1      33.949 -16.588 -23.604  0.00  0.00    +0.019 C 
ATOM     17  C   UNL     1      34.372 -15.510 -21.483  0.00  0.00    +0.015 C 
ATOM     18  C   UNL     1      34.212 -17.829 -23.025  0.00  0.00    +0.137 C 
ATOM     19  C   UNL     1      33.583 -16.525 -25.052  0.00  0.00    +0.035 C 
ATOM     20  C   UNL     1      34.635 -16.752 -20.905  0.00  0.00    +0.004 C 
ATOM     21  C   UNL     1      34.556 -17.912 -21.676  0.00  0.00    +0.029 C 
ENDBRANCH  10  15
ENDBRANCH   5   9
BRANCH   2  22
ATOM     22  S   UNL     1      31.058  -7.731 -21.932  0.00  0.00    +0.009 S 
ATOM     23  O   UNL     1      29.870  -8.174 -22.637  0.00  0.00    -0.169 OA
ATOM     24  O   UNL     1      31.183  -7.931 -20.500  0.00  0.00    -0.169 OA
BRANCH  22  26
ATOM     25  N   UNL     1      31.038  -3.737 -21.277  0.00  0.00    +0.385 N 
ATOM     26  C   UNL     1      31.288  -6.002 -22.251  0.00  0.00    +0.113 C 
ATOM     27  C   UNL     1      30.499  -5.578 -23.488  0.00  0.00    +0.020 C 
ATOM     28  C   UNL     1      30.888  -5.173 -21.031  0.00  0.00    -0.057 C 
ATOM     29  C   UNL     1      30.596  -4.068 -23.694  0.00  0.00    -0.022 C 
ATOM     30  C   UNL     1      30.223  -3.313 -22.418  0.00  0.00    -0.082 C 
ATOM     31  H   UNL     1      32.019  -3.533 -21.472  0.00  0.00    -0.084 HD
ATOM     32  H   UNL     1      30.727  -3.229 -20.449  0.00  0.00    -0.084 HD
ENDBRANCH  22  26
ENDBRANCH   2  22
BRANCH   3  33
ATOM     33  O   UNL     1      31.377 -10.624 -22.482  0.00  0.00    -0.503 OA
ATOM     34  H   UNL     1      30.512 -10.262 -22.498  0.00  0.00    +0.292 HD
ENDBRANCH   3  33
TORSDOF 5
ENDMDL
MODEL 9
REMARK VINA RESULT:      -9.3      5.032      9.626
REMARK  Name = 24780598
REMARK  5 active torsions:
REMARK  status: ('A' for Active; 'I' for Inactive)
REMARK    1  A    between atoms: C_2  and  S_22
REMARK    2  A    between atoms: C_3  and  O_33
REMARK    3  A    between atoms: C_5  and  N_9
REMARK    4  A    between atoms: N_10  and  C_15
REMARK    5  A    between atoms: S_22  and  C_26
REMARK                            x       y       z     vdW  Elec       q    Type
REMARK                         _______ _______ _______ _____ _____    ______ ____
ROOT
ATOM      1 CL   UNL     1      36.982 -19.133 -21.387  0.00  0.00    -0.081 Cl
ATOM      2  C   UNL     1      34.341 -19.755 -21.038  0.00  0.00    +0.151 C 
ATOM      3  C   UNL     1      33.290 -20.331 -20.323  0.00  0.00    +0.165 C 
ATOM      4  C   UNL     1      35.643 -19.825 -20.542  0.00  0.00    +0.078 C 
ATOM      5  C   UNL     1      33.543 -20.976 -19.113  0.00  0.00    +0.087 C 
ATOM      6  C   UNL     1      35.895 -20.470 -19.332  0.00  0.00    +0.014 C 
ATOM      7  C   UNL     1      34.844 -21.046 -18.617  0.00  0.00    +0.019 C 
ENDROOT
BRANCH   5   9
ATOM      8  O   UNL     1      33.597 -22.434 -16.506  0.00  0.00    -0.252 OA
ATOM      9  N   UNL     1      32.502 -21.555 -18.381  0.00  0.00    -0.266 N 
ATOM     10  N   UNL     1      31.284 -22.662 -16.763  0.00  0.00    -0.268 N 
ATOM     11  C   UNL     1      32.568 -22.241 -17.144  0.00  0.00    +0.308 C 
ATOM     12  H   UNL     1      31.605 -21.476 -18.778  0.00  0.00    +0.157 HD
ATOM     13  H   UNL     1      30.552 -22.432 -17.381  0.00  0.00    +0.156 HD
BRANCH  10  15
ATOM     14  F   UNL     1      28.004 -24.974 -14.097  0.00  0.00    -0.204 F 
ATOM     15  C   UNL     1      30.912 -23.378 -15.601  0.00  0.00    +0.050 C 
ATOM     16  C   UNL     1      29.604 -23.830 -15.426  0.00  0.00    +0.019 C 
ATOM     17  C   UNL     1      31.874 -23.629 -14.621  0.00  0.00    +0.015 C 
ATOM     18  C   UNL     1      29.258 -24.534 -14.272  0.00  0.00    +0.137 C 
ATOM     19  C   UNL     1      28.557 -23.573 -16.461  0.00  0.00    +0.035 C 
ATOM     20  C   UNL     1      31.527 -24.333 -13.468  0.00  0.00    +0.004 C 
ATOM     21  C   UNL     1      30.219 -24.785 -13.293  0.00  0.00    +0.029 C 
ENDBRANCH  10  15
ENDBRANCH   5   9
BRANCH   2  22
ATOM     22  S   UNL     1      33.991 -18.950 -22.571  0.00  0.00    +0.009 S 
ATOM     23  O   UNL     1      34.852 -19.546 -23.574  0.00  0.00    -0.169 OA
ATOM     24  O   UNL     1      32.552 -18.931 -22.752  0.00  0.00    -0.169 OA
BRANCH  22  26
ATOM     25  N   UNL     1      34.331 -15.347 -20.759  0.00  0.00    +0.385 N 
ATOM     26  C   UNL     1      34.517 -17.279 -22.300  0.00  0.00    +0.113 C 
ATOM     27  C   UNL     1      34.123 -16.397 -23.484  0.00  0.00    +0.020 C 
ATOM     28  C   UNL     1      33.938 -16.738 -20.993  0.00  0.00    -0.057 C 
ATOM     29  C   UNL     1      34.464 -14.936 -23.200  0.00  0.00    -0.022 C 
ATOM     30  C   UNL     1      33.888 -14.485 -21.858  0.00  0.00    -0.082 C 
ATOM     31  H   UNL     1      35.348 -15.295 -20.683  0.00  0.00    -0.084 HD
ATOM     32  H   UNL     1      33.894 -15.024 -19.896  0.00  0.00    -0.084 HD
ENDBRANCH  22  26
ENDBRANCH   2  22
BRANCH   3  33
ATOM     33  O   UNL     1      32.014 -20.269 -20.803  0.00  0.00    -0.503 OA
ATOM     34  H   UNL     1      31.540 -21.058 -20.980  0.00  0.00    +0.292 HD
ENDBRANCH   3  33
TORSDOF 5
ENDMDL
