MODEL 1
REMARK VINA RESULT:     -11.1      0.000      0.000
REMARK  Name = 71587743
REMARK  9 active torsions:
REMARK  status: ('A' for Active; 'I' for Inactive)
REMARK    1  A    between atoms: C_3  and  N_7
REMARK    2  A    between atoms: C_4  and  C_19
REMARK    3  A    between atoms: N_7  and  C_9
REMARK    4  A    between atoms: C_9  and  C_11
REMARK    5  A    between atoms: C_9  and  C_16
REMARK    6  A    between atoms: C_16  and  C_17
REMARK    7  A    between atoms: C_19  and  C_20
REMARK    8  A    between atoms: C_21  and  O_31
REMARK    9  A    between atoms: C_23  and  C_28
REMARK                            x       y       z     vdW  Elec       q    Type
REMARK                         _______ _______ _______ _____ _____    ______ ____
ROOT
ATOM      1  O   UNL     1      31.933  -6.809 -19.101  0.00  0.00    -0.282 OA
ATOM      2  O   UNL     1      31.581  -9.659 -18.073  0.00  0.00    -0.283 OA
ATOM      3  C   UNL     1      31.217  -8.301 -21.004  0.00  0.00    +0.087 C 
ATOM      4  C   UNL     1      31.065  -9.571 -20.531  0.00  0.00    +0.041 C 
ATOM      5  C   UNL     1      31.605  -7.817 -19.671  0.00  0.00    +0.247 C 
ATOM      6  C   UNL     1      31.437  -9.193 -19.172  0.00  0.00    +0.233 C 
ENDROOT
BRANCH   3   7
ATOM      7  N   UNL     1      31.111  -7.617 -22.116  0.00  0.00    -0.326 N 
ATOM      8  H   UNL     1      30.816  -8.086 -22.930  0.00  0.00    +0.147 HD
BRANCH   7   9
ATOM      9  C   UNL     1      31.410  -6.200 -22.201  0.00  0.00    +0.127 C 
BRANCH   9  11
ATOM     10  O   UNL     1      31.873  -5.958 -24.586  0.00  0.00    -0.460 OA
ATOM     11  C   UNL     1      32.391  -5.962 -23.330  0.00  0.00    +0.140 C 
ATOM     12  C   UNL     1      33.748  -5.739 -23.365  0.00  0.00    +0.037 C 
ATOM     13  C   UNL     1      32.910  -5.730 -25.433  0.00  0.00    +0.123 C 
ATOM     14  C   UNL     1      34.085  -5.589 -24.732  0.00  0.00    +0.036 C 
ATOM     15  C   UNL     1      32.582  -5.683 -26.865  0.00  0.00    +0.072 C 
ENDBRANCH   9  11
BRANCH   9  16
ATOM     16  C   UNL     1      30.089  -5.421 -22.339  0.00  0.00    +0.027 C 
BRANCH  16  17
ATOM     17  C   UNL     1      30.122  -4.064 -21.628  0.00  0.00    +0.002 C 
ATOM     18  C   UNL     1      30.568  -2.955 -22.569  0.00  0.00    +0.000 C 
ENDBRANCH  16  17
ENDBRANCH   9  16
ENDBRANCH   7   9
ENDBRANCH   3   7
BRANCH   4  19
ATOM     19  C   UNL     1      30.657 -10.912 -21.162  0.00  0.00    +0.060 C 
BRANCH  19  20
ATOM     20  C   UNL     1      31.805 -11.631 -21.864  0.00  0.00    +0.016 C 
ATOM     21  C   UNL     1      32.337 -12.810 -21.340  0.00  0.00    +0.134 C 
ATOM     22  C   UNL     1      32.322 -11.096 -23.044  0.00  0.00    -0.001 C 
ATOM     23  C   UNL     1      33.386 -13.452 -21.996  0.00  0.00    +0.087 C 
ATOM     24  C   UNL     1      33.372 -11.739 -23.699  0.00  0.00    +0.000 C 
ATOM     25  C   UNL     1      33.905 -12.917 -23.175  0.00  0.00    +0.008 C 
BRANCH  23  28
ATOM     26  O   UNL     1      34.138 -14.739 -20.246  0.00  0.00    -0.270 OA
ATOM     27  N   UNL     1      34.253 -15.730 -22.360  0.00  0.00    -0.272 N 
ATOM     28  C   UNL     1      33.957 -14.684 -21.469  0.00  0.00    +0.252 C 
ATOM     29  C   UNL     1      34.811 -16.998 -21.909  0.00  0.00    +0.115 C 
ATOM     30  C   UNL     1      34.021 -15.618 -23.797  0.00  0.00    +0.115 C 
ENDBRANCH  23  28
BRANCH  21  31
ATOM     31  O   UNL     1      31.828 -13.331 -20.188  0.00  0.00    -0.506 OA
ATOM     32  H   UNL     1      31.118 -12.901 -19.752  0.00  0.00    +0.292 HD
ENDBRANCH  21  31
ENDBRANCH  19  20
ENDBRANCH   4  19
TORSDOF 9
ENDMDL
MODEL 2
REMARK VINA RESULT:     -11.0      2.921      6.238
REMARK  Name = 71587743
REMARK  9 active torsions:
REMARK  status: ('A' for Active; 'I' for Inactive)
REMARK    1  A    between atoms: C_3  and  N_7
REMARK    2  A    between atoms: C_4  and  C_19
REMARK    3  A    between atoms: N_7  and  C_9
REMARK    4  A    between atoms: C_9  and  C_11
REMARK    5  A    between atoms: C_9  and  C_16
REMARK    6  A    between atoms: C_16  and  C_17
REMARK    7  A    between atoms: C_19  and  C_20
REMARK    8  A    between atoms: C_21  and  O_31
REMARK    9  A    between atoms: C_23  and  C_28
REMARK                            x       y       z     vdW  Elec       q    Type
REMARK                         _______ _______ _______ _____ _____    ______ ____
ROOT
ATOM      1  O   UNL     1      32.365 -12.690 -26.236  0.00  0.00    -0.282 OA
ATOM      2  O   UNL     1      32.984 -15.602 -25.573  0.00  0.00    -0.283 OA
ATOM      3  C   UNL     1      33.397 -12.822 -23.938  0.00  0.00    +0.087 C 
ATOM      4  C   UNL     1      33.667 -14.128 -23.655  0.00  0.00    +0.041 C 
ATOM      5  C   UNL     1      32.854 -13.187 -25.256  0.00  0.00    +0.247 C 
ATOM      6  C   UNL     1      33.152 -14.594 -24.937  0.00  0.00    +0.233 C 
ENDROOT
BRANCH   3   7
ATOM      7  N   UNL     1      33.500 -11.630 -23.406  0.00  0.00    -0.326 N 
ATOM      8  H   UNL     1      34.136 -10.992 -23.804  0.00  0.00    +0.147 HD
BRANCH   7   9
ATOM      9  C   UNL     1      32.719 -11.208 -22.258  0.00  0.00    +0.127 C 
BRANCH   9  11
ATOM     10  O   UNL     1      32.820  -8.952 -23.187  0.00  0.00    -0.460 OA
ATOM     11  C   UNL     1      32.051  -9.885 -22.565  0.00  0.00    +0.140 C 
ATOM     12  C   UNL     1      30.784  -9.398 -22.345  0.00  0.00    +0.037 C 
ATOM     13  C   UNL     1      32.035  -7.858 -23.365  0.00  0.00    +0.123 C 
ATOM     14  C   UNL     1      30.773  -8.081 -22.865  0.00  0.00    +0.036 C 
ATOM     15  C   UNL     1      32.664  -6.707 -24.028  0.00  0.00    +0.072 C 
ENDBRANCH   9  11
BRANCH   9  16
ATOM     16  C   UNL     1      31.741 -12.336 -21.881  0.00  0.00    +0.027 C 
BRANCH  16  17
ATOM     17  C   UNL     1      31.653 -12.567 -20.369  0.00  0.00    +0.002 C 
ATOM     18  C   UNL     1      32.054 -13.987 -20.001  0.00  0.00    +0.000 C 
ENDBRANCH  16  17
ENDBRANCH   9  16
ENDBRANCH   7   9
ENDBRANCH   3   7
BRANCH   4  19
ATOM     19  C   UNL     1      34.281 -14.863 -22.452  0.00  0.00    +0.060 C 
BRANCH  19  20
ATOM     20  C   UNL     1      34.312 -16.379 -22.612  0.00  0.00    +0.016 C 
ATOM     21  C   UNL     1      34.648 -17.205 -21.538  0.00  0.00    +0.134 C 
ATOM     22  C   UNL     1      34.001 -16.939 -23.852  0.00  0.00    -0.001 C 
ATOM     23  C   UNL     1      34.671 -18.589 -21.704  0.00  0.00    +0.087 C 
ATOM     24  C   UNL     1      34.025 -18.323 -24.017  0.00  0.00    +0.000 C 
ATOM     25  C   UNL     1      34.361 -19.149 -22.944  0.00  0.00    +0.008 C 
BRANCH  23  28
ATOM     26  O   UNL     1      36.205 -19.499 -20.255  0.00  0.00    -0.270 OA
ATOM     27  N   UNL     1      33.997 -20.216 -19.981  0.00  0.00    -0.272 N 
ATOM     28  C   UNL     1      35.016 -19.470 -20.598  0.00  0.00    +0.252 C 
ATOM     29  C   UNL     1      34.259 -21.108 -18.859  0.00  0.00    +0.115 C 
ATOM     30  C   UNL     1      32.606 -20.148 -20.423  0.00  0.00    +0.115 C 
ENDBRANCH  23  28
BRANCH  21  31
ATOM     31  O   UNL     1      34.950 -16.655 -20.328  0.00  0.00    -0.506 OA
ATOM     32  H   UNL     1      34.965 -15.723 -20.227  0.00  0.00    +0.292 HD
ENDBRANCH  21  31
ENDBRANCH  19  20
ENDBRANCH   4  19
TORSDOF 9
ENDMDL
MODEL 3
REMARK VINA RESULT:     -10.9      1.146      2.274
REMARK  Name = 71587743
REMARK  9 active torsions:
REMARK  status: ('A' for Active; 'I' for Inactive)
REMARK    1  A    between atoms: C_3  and  N_7
REMARK    2  A    between atoms: C_4  and  C_19
REMARK    3  A    between atoms: N_7  and  C_9
REMARK    4  A    between atoms: C_9  and  C_11
REMARK    5  A    between atoms: C_9  and  C_16
REMARK    6  A    between atoms: C_16  and  C_17
REMARK    7  A    between atoms: C_19  and  C_20
REMARK    8  A    between atoms: C_21  and  O_31
REMARK    9  A    between atoms: C_23  and  C_28
REMARK                            x       y       z     vdW  Elec       q    Type
REMARK                         _______ _______ _______ _____ _____    ______ ____
ROOT
ATOM      1  O   UNL     1      31.935  -6.563 -19.412  0.00  0.00    -0.282 OA
ATOM      2  O   UNL     1      31.894  -9.385 -18.254  0.00  0.00    -0.283 OA
ATOM      3  C   UNL     1      31.070  -8.169 -21.155  0.00  0.00    +0.087 C 
ATOM      4  C   UNL     1      31.059  -9.425 -20.624  0.00  0.00    +0.041 C 
ATOM      5  C   UNL     1      31.598  -7.610 -19.901  0.00  0.00    +0.247 C 
ATOM      6  C   UNL     1      31.579  -8.972 -19.340  0.00  0.00    +0.233 C 
ENDROOT
BRANCH   3   7
ATOM      7  N   UNL     1      30.780  -7.538 -22.265  0.00  0.00    -0.326 N 
ATOM      8  H   UNL     1      29.840  -7.511 -22.558  0.00  0.00    +0.147 HD
BRANCH   7   9
ATOM      9  C   UNL     1      31.782  -6.877 -23.081  0.00  0.00    +0.127 C 
BRANCH   9  11
ATOM     10  O   UNL     1      31.164  -4.777 -24.164  0.00  0.00    -0.460 OA
ATOM     11  C   UNL     1      31.572  -5.379 -23.015  0.00  0.00    +0.140 C 
ATOM     12  C   UNL     1      31.708  -4.453 -22.007  0.00  0.00    +0.037 C 
ATOM     13  C   UNL     1      31.038  -3.453 -23.885  0.00  0.00    +0.123 C 
ATOM     14  C   UNL     1      31.362  -3.202 -22.572  0.00  0.00    +0.036 C 
ATOM     15  C   UNL     1      30.602  -2.594 -24.995  0.00  0.00    +0.072 C 
ENDBRANCH   9  11
BRANCH   9  16
ATOM     16  C   UNL     1      33.178  -7.338 -22.625  0.00  0.00    +0.027 C 
BRANCH  16  17
ATOM     17  C   UNL     1      34.243  -7.177 -23.714  0.00  0.00    +0.002 C 
ATOM     18  C   UNL     1      34.933  -8.498 -24.015  0.00  0.00    +0.000 C 
ENDBRANCH  16  17
ENDBRANCH   9  16
ENDBRANCH   7   9
ENDBRANCH   3   7
BRANCH   4  19
ATOM     19  C   UNL     1      30.654 -10.812 -21.152  0.00  0.00    +0.060 C 
BRANCH  19  20
ATOM     20  C   UNL     1      31.787 -11.552 -21.856  0.00  0.00    +0.016 C 
ATOM     21  C   UNL     1      32.328 -12.716 -21.310  0.00  0.00    +0.134 C 
ATOM     22  C   UNL     1      32.284 -11.049 -23.059  0.00  0.00    -0.001 C 
ATOM     23  C   UNL     1      33.364 -13.379 -21.968  0.00  0.00    +0.087 C 
ATOM     24  C   UNL     1      33.320 -11.711 -23.716  0.00  0.00    +0.000 C 
ATOM     25  C   UNL     1      33.861 -12.876 -23.171  0.00  0.00    +0.008 C 
BRANCH  23  28
ATOM     26  O   UNL     1      34.094 -14.641 -20.192  0.00  0.00    -0.270 OA
ATOM     27  N   UNL     1      34.277 -15.644 -22.295  0.00  0.00    -0.272 N 
ATOM     28  C   UNL     1      33.942 -14.597 -21.419  0.00  0.00    +0.252 C 
ATOM     29  C   UNL     1      34.846 -16.899 -21.822  0.00  0.00    +0.115 C 
ATOM     30  C   UNL     1      34.079 -15.544 -23.739  0.00  0.00    +0.115 C 
ENDBRANCH  23  28
BRANCH  21  31
ATOM     31  O   UNL     1      31.839 -13.206 -20.135  0.00  0.00    -0.506 OA
ATOM     32  H   UNL     1      32.353 -13.802 -19.626  0.00  0.00    +0.292 HD
ENDBRANCH  21  31
ENDBRANCH  19  20
ENDBRANCH   4  19
TORSDOF 9
ENDMDL
MODEL 4
REMARK VINA RESULT:     -10.9      8.793     14.348
REMARK  Name = 71587743
REMARK  9 active torsions:
REMARK  status: ('A' for Active; 'I' for Inactive)
REMARK    1  A    between atoms: C_3  and  N_7
REMARK    2  A    between atoms: C_4  and  C_19
REMARK    3  A    between atoms: N_7  and  C_9
REMARK    4  A    between atoms: C_9  and  C_11
REMARK    5  A    between atoms: C_9  and  C_16
REMARK    6  A    between atoms: C_16  and  C_17
REMARK    7  A    between atoms: C_19  and  C_20
REMARK    8  A    between atoms: C_21  and  O_31
REMARK    9  A    between atoms: C_23  and  C_28
REMARK                            x       y       z     vdW  Elec       q    Type
REMARK                         _______ _______ _______ _____ _____    ______ ____
ROOT
ATOM      1  O   UNL     1      32.444 -22.828 -14.455  0.00  0.00    -0.282 OA
ATOM      2  O   UNL     1      34.757 -22.691 -16.438  0.00  0.00    -0.283 OA
ATOM      3  C   UNL     1      31.542 -22.336 -16.759  0.00  0.00    +0.087 C 
ATOM      4  C   UNL     1      32.587 -22.276 -17.634  0.00  0.00    +0.041 C 
ATOM      5  C   UNL     1      32.454 -22.618 -15.640  0.00  0.00    +0.247 C 
ATOM      6  C   UNL     1      33.573 -22.553 -16.596  0.00  0.00    +0.233 C 
ENDROOT
BRANCH   3   7
ATOM      7  N   UNL     1      30.238 -22.221 -16.732  0.00  0.00    -0.326 N 
ATOM      8  H   UNL     1      29.795 -21.723 -17.457  0.00  0.00    +0.147 HD
BRANCH   7   9
ATOM      9  C   UNL     1      29.417 -22.794 -15.681  0.00  0.00    +0.127 C 
BRANCH   9  11
ATOM     10  O   UNL     1      27.564 -22.044 -17.083  0.00  0.00    -0.460 OA
ATOM     11  C   UNL     1      27.999 -22.281 -15.817  0.00  0.00    +0.140 C 
ATOM     12  C   UNL     1      27.013 -21.991 -14.904  0.00  0.00    +0.037 C 
ATOM     13  C   UNL     1      26.285 -21.597 -16.976  0.00  0.00    +0.123 C 
ATOM     14  C   UNL     1      25.899 -21.546 -15.657  0.00  0.00    +0.036 C 
ATOM     15  C   UNL     1      25.603 -21.272 -18.237  0.00  0.00    +0.072 C 
ENDBRANCH   9  11
BRANCH   9  16
ATOM     16  C   UNL     1      29.541 -24.328 -15.734  0.00  0.00    +0.027 C 
BRANCH  16  17
ATOM     17  C   UNL     1      29.081 -25.007 -14.440  0.00  0.00    +0.002 C 
ATOM     18  C   UNL     1      29.947 -24.594 -13.260  0.00  0.00    +0.000 C 
ENDBRANCH  16  17
ENDBRANCH   9  16
ENDBRANCH   7   9
ENDBRANCH   3   7
BRANCH   4  19
ATOM     19  C   UNL     1      32.710 -22.020 -19.144  0.00  0.00    +0.060 C 
BRANCH  19  20
ATOM     20  C   UNL     1      33.892 -21.130 -19.519  0.00  0.00    +0.016 C 
ATOM     21  C   UNL     1      33.698 -19.947 -20.232  0.00  0.00    +0.134 C 
ATOM     22  C   UNL     1      35.178 -21.514 -19.140  0.00  0.00    -0.001 C 
ATOM     23  C   UNL     1      34.790 -19.148 -20.566  0.00  0.00    +0.087 C 
ATOM     24  C   UNL     1      36.271 -20.714 -19.475  0.00  0.00    +0.000 C 
ATOM     25  C   UNL     1      36.077 -19.531 -20.188  0.00  0.00    +0.008 C 
BRANCH  23  28
ATOM     26  O   UNL     1      34.653 -16.855 -20.658  0.00  0.00    -0.270 OA
ATOM     27  N   UNL     1      34.422 -17.970 -22.699  0.00  0.00    -0.272 N 
ATOM     28  C   UNL     1      34.612 -17.907 -21.308  0.00  0.00    +0.252 C 
ATOM     29  C   UNL     1      34.252 -16.774 -23.514  0.00  0.00    +0.115 C 
ATOM     30  C   UNL     1      34.381 -19.238 -23.423  0.00  0.00    +0.115 C 
ENDBRANCH  23  28
BRANCH  21  31
ATOM     31  O   UNL     1      32.439 -19.574 -20.599  0.00  0.00    -0.506 OA
ATOM     32  H   UNL     1      31.902 -19.087 -20.005  0.00  0.00    +0.292 HD
ENDBRANCH  21  31
ENDBRANCH  19  20
ENDBRANCH   4  19
TORSDOF 9
ENDMDL
MODEL 5
REMARK VINA RESULT:     -10.7      2.689      9.190
REMARK  Name = 71587743
REMARK  9 active torsions:
REMARK  status: ('A' for Active; 'I' for Inactive)
REMARK    1  A    between atoms: C_3  and  N_7
REMARK    2  A    between atoms: C_4  and  C_19
REMARK    3  A    between atoms: N_7  and  C_9
REMARK    4  A    between atoms: C_9  and  C_11
REMARK    5  A    between atoms: C_9  and  C_16
REMARK    6  A    between atoms: C_16  and  C_17
REMARK    7  A    between atoms: C_19  and  C_20
REMARK    8  A    between atoms: C_21  and  O_31
REMARK    9  A    between atoms: C_23  and  C_28
REMARK                            x       y       z     vdW  Elec       q    Type
REMARK                         _______ _______ _______ _____ _____    ______ ____
ROOT
ATOM      1  O   UNL     1      32.916 -15.594 -25.413  0.00  0.00    -0.282 OA
ATOM      2  O   UNL     1      32.067 -12.809 -26.322  0.00  0.00    -0.283 OA
ATOM      3  C   UNL     1      33.824 -13.877 -23.804  0.00  0.00    +0.087 C 
ATOM      4  C   UNL     1      33.438 -12.638 -24.223  0.00  0.00    +0.041 C 
ATOM      5  C   UNL     1      33.133 -14.510 -24.938  0.00  0.00    +0.247 C 
ATOM      6  C   UNL     1      32.722 -13.166 -25.379  0.00  0.00    +0.233 C 
ENDROOT
BRANCH   3   7
ATOM      7  N   UNL     1      34.505 -14.453 -22.846  0.00  0.00    -0.326 N 
ATOM      8  H   UNL     1      35.471 -14.274 -22.783  0.00  0.00    +0.147 HD
BRANCH   7   9
ATOM      9  C   UNL     1      33.900 -15.345 -21.874  0.00  0.00    +0.127 C 
BRANCH   9  11
ATOM     10  O   UNL     1      35.126 -17.230 -20.923  0.00  0.00    -0.460 OA
ATOM     11  C   UNL     1      34.502 -16.727 -22.020  0.00  0.00    +0.140 C 
ATOM     12  C   UNL     1      34.559 -17.623 -23.063  0.00  0.00    +0.037 C 
ATOM     13  C   UNL     1      35.586 -18.462 -21.269  0.00  0.00    +0.123 C 
ATOM     14  C   UNL     1      35.263 -18.750 -22.574  0.00  0.00    +0.036 C 
ATOM     15  C   UNL     1      36.305 -19.204 -20.223  0.00  0.00    +0.072 C 
ENDBRANCH   9  11
BRANCH   9  16
ATOM     16  C   UNL     1      34.060 -14.733 -20.471  0.00  0.00    +0.027 C 
BRANCH  16  17
ATOM     17  C   UNL     1      33.142 -13.529 -20.238  0.00  0.00    +0.002 C 
ATOM     18  C   UNL     1      31.766 -13.965 -19.759  0.00  0.00    +0.000 C 
ENDBRANCH  16  17
ENDBRANCH   9  16
ENDBRANCH   7   9
ENDBRANCH   3   7
BRANCH   4  19
ATOM     19  C   UNL     1      33.656 -11.209 -23.699  0.00  0.00    +0.060 C 
BRANCH  19  20
ATOM     20  C   UNL     1      32.457 -10.646 -22.941  0.00  0.00    +0.016 C 
ATOM     21  C   UNL     1      32.222  -9.272 -22.896  0.00  0.00    +0.134 C 
ATOM     22  C   UNL     1      31.593 -11.524 -22.288  0.00  0.00    -0.001 C 
ATOM     23  C   UNL     1      31.122  -8.775 -22.199  0.00  0.00    +0.087 C 
ATOM     24  C   UNL     1      30.492 -11.027 -21.590  0.00  0.00    +0.000 C 
ATOM     25  C   UNL     1      30.256  -9.653 -21.544  0.00  0.00    +0.008 C 
BRANCH  23  28
ATOM     26  O   UNL     1      30.216  -6.855 -23.079  0.00  0.00    -0.270 OA
ATOM     27  N   UNL     1      31.314  -6.614 -21.030  0.00  0.00    -0.272 N 
ATOM     28  C   UNL     1      30.855  -7.345 -22.139  0.00  0.00    +0.252 C 
ATOM     29  C   UNL     1      31.074  -5.184 -20.889  0.00  0.00    +0.115 C 
ATOM     30  C   UNL     1      32.065  -7.239 -19.943  0.00  0.00    +0.115 C 
ENDBRANCH  23  28
BRANCH  21  31
ATOM     31  O   UNL     1      33.069  -8.416 -23.537  0.00  0.00    -0.506 OA
ATOM     32  H   UNL     1      33.904  -8.719 -23.835  0.00  0.00    +0.292 HD
ENDBRANCH  21  31
ENDBRANCH  19  20
ENDBRANCH   4  19
TORSDOF 9
ENDMDL
MODEL 6
REMARK VINA RESULT:     -10.6     10.742     15.391
REMARK  Name = 71587743
REMARK  9 active torsions:
REMARK  status: ('A' for Active; 'I' for Inactive)
REMARK    1  A    between atoms: C_3  and  N_7
REMARK    2  A    between atoms: C_4  and  C_19
REMARK    3  A    between atoms: N_7  and  C_9
REMARK    4  A    between atoms: C_9  and  C_11
REMARK    5  A    between atoms: C_9  and  C_16
REMARK    6  A    between atoms: C_16  and  C_17
REMARK    7  A    between atoms: C_19  and  C_20
REMARK    8  A    between atoms: C_21  and  O_31
REMARK    9  A    between atoms: C_23  and  C_28
REMARK                            x       y       z     vdW  Elec       q    Type
REMARK                         _______ _______ _______ _____ _____    ______ ____
ROOT
ATOM      1  O   UNL     1      31.027 -22.371 -13.667  0.00  0.00    -0.282 OA
ATOM      2  O   UNL     1      30.173 -22.658 -16.581  0.00  0.00    -0.283 OA
ATOM      3  C   UNL     1      33.071 -22.697 -15.109  0.00  0.00    +0.087 C 
ATOM      4  C   UNL     1      32.674 -22.825 -16.408  0.00  0.00    +0.041 C 
ATOM      5  C   UNL     1      31.678 -22.540 -14.665  0.00  0.00    +0.247 C 
ATOM      6  C   UNL     1      31.263 -22.679 -16.072  0.00  0.00    +0.233 C 
ENDROOT
BRANCH   3   7
ATOM      7  N   UNL     1      34.159 -22.689 -14.381  0.00  0.00    -0.326 N 
ATOM      8  H   UNL     1      34.443 -21.841 -13.970  0.00  0.00    +0.147 HD
BRANCH   7   9
ATOM      9  C   UNL     1      34.965 -23.875 -14.154  0.00  0.00    +0.127 C 
BRANCH   9  11
ATOM     10  O   UNL     1      37.309 -24.544 -14.301  0.00  0.00    -0.460 OA
ATOM     11  C   UNL     1      36.371 -23.629 -14.661  0.00  0.00    +0.140 C 
ATOM     12  C   UNL     1      36.931 -22.642 -15.438  0.00  0.00    +0.037 C 
ATOM     13  C   UNL     1      38.481 -24.137 -14.855  0.00  0.00    +0.123 C 
ATOM     14  C   UNL     1      38.302 -22.972 -15.564  0.00  0.00    +0.036 C 
ATOM     15  C   UNL     1      39.653 -24.986 -14.595  0.00  0.00    +0.072 C 
ENDBRANCH   9  11
BRANCH   9  16
ATOM     16  C   UNL     1      34.889 -24.250 -12.663  0.00  0.00    +0.027 C 
BRANCH  16  17
ATOM     17  C   UNL     1      35.352 -23.118 -11.740  0.00  0.00    +0.002 C 
ATOM     18  C   UNL     1      36.608 -23.505 -10.975  0.00  0.00    +0.000 C 
ENDBRANCH  16  17
ENDBRANCH   9  16
ENDBRANCH   7   9
ENDBRANCH   3   7
BRANCH   4  19
ATOM     19  C   UNL     1      33.409 -23.040 -17.740  0.00  0.00    +0.060 C 
BRANCH  19  20
ATOM     20  C   UNL     1      33.353 -21.833 -18.671  0.00  0.00    +0.016 C 
ATOM     21  C   UNL     1      34.520 -21.172 -19.055  0.00  0.00    +0.134 C 
ATOM     22  C   UNL     1      32.115 -21.391 -19.138  0.00  0.00    -0.001 C 
ATOM     23  C   UNL     1      34.449 -20.070 -19.906  0.00  0.00    +0.087 C 
ATOM     24  C   UNL     1      32.044 -20.288 -19.989  0.00  0.00    +0.000 C 
ATOM     25  C   UNL     1      33.211 -19.627 -20.373  0.00  0.00    +0.008 C 
BRANCH  23  28
ATOM     26  O   UNL     1      36.559 -19.261 -19.485  0.00  0.00    -0.270 OA
ATOM     27  N   UNL     1      35.727 -18.864 -21.634  0.00  0.00    -0.272 N 
ATOM     28  C   UNL     1      35.653 -19.365 -20.323  0.00  0.00    +0.252 C 
ATOM     29  C   UNL     1      36.903 -18.161 -22.130  0.00  0.00    +0.115 C 
ATOM     30  C   UNL     1      34.631 -19.012 -22.587  0.00  0.00    +0.115 C 
ENDBRANCH  23  28
BRANCH  21  31
ATOM     31  O   UNL     1      35.729 -21.608 -18.599  0.00  0.00    -0.506 OA
ATOM     32  H   UNL     1      36.404 -21.840 -19.207  0.00  0.00    +0.292 HD
ENDBRANCH  21  31
ENDBRANCH  19  20
ENDBRANCH   4  19
TORSDOF 9
ENDMDL
MODEL 7
REMARK VINA RESULT:     -10.5      8.836     15.208
REMARK  Name = 71587743
REMARK  9 active torsions:
REMARK  status: ('A' for Active; 'I' for Inactive)
REMARK    1  A    between atoms: C_3  and  N_7
REMARK    2  A    between atoms: C_4  and  C_19
REMARK    3  A    between atoms: N_7  and  C_9
REMARK    4  A    between atoms: C_9  and  C_11
REMARK    5  A    between atoms: C_9  and  C_16
REMARK    6  A    between atoms: C_16  and  C_17
REMARK    7  A    between atoms: C_19  and  C_20
REMARK    8  A    between atoms: C_21  and  O_31
REMARK    9  A    between atoms: C_23  and  C_28
REMARK                            x       y       z     vdW  Elec       q    Type
REMARK                         _______ _______ _______ _____ _____    ______ ____
ROOT
ATOM      1  O   UNL     1      31.830 -22.727 -14.516  0.00  0.00    -0.282 OA
ATOM      2  O   UNL     1      30.087 -21.914 -16.883  0.00  0.00    -0.283 OA
ATOM      3  C   UNL     1      33.232 -22.691 -16.613  0.00  0.00    +0.087 C 
ATOM      4  C   UNL     1      32.440 -22.328 -17.662  0.00  0.00    +0.041 C 
ATOM      5  C   UNL     1      32.098 -22.589 -15.681  0.00  0.00    +0.247 C 
ATOM      6  C   UNL     1      31.255 -22.196 -16.823  0.00  0.00    +0.233 C 
ENDROOT
BRANCH   3   7
ATOM      7  N   UNL     1      34.471 -23.023 -16.348  0.00  0.00    -0.326 N 
ATOM      8  H   UNL     1      35.020 -23.402 -17.072  0.00  0.00    +0.147 HD
BRANCH   7   9
ATOM      9  C   UNL     1      35.068 -22.858 -15.036  0.00  0.00    +0.127 C 
BRANCH   9  11
ATOM     10  O   UNL     1      36.184 -24.202 -13.329  0.00  0.00    -0.460 OA
ATOM     11  C   UNL     1      35.620 -24.187 -14.566  0.00  0.00    +0.140 C 
ATOM     12  C   UNL     1      35.678 -25.436 -15.139  0.00  0.00    +0.037 C 
ATOM     13  C   UNL     1      36.607 -25.474 -13.110  0.00  0.00    +0.123 C 
ATOM     14  C   UNL     1      36.319 -26.273 -14.193  0.00  0.00    +0.036 C 
ATOM     15  C   UNL     1      37.258 -25.730 -11.817  0.00  0.00    +0.072 C 
ENDBRANCH   9  11
BRANCH   9  16
ATOM     16  C   UNL     1      36.115 -21.730 -15.105  0.00  0.00    +0.027 C 
BRANCH  16  17
ATOM     17  C   UNL     1      37.186 -21.977 -16.171  0.00  0.00    +0.002 C 
ATOM     18  C   UNL     1      38.306 -22.859 -15.639  0.00  0.00    +0.000 C 
ENDBRANCH  16  17
ENDBRANCH   9  16
ENDBRANCH   7   9
ENDBRANCH   3   7
BRANCH   4  19
ATOM     19  C   UNL     1      32.677 -22.124 -19.167  0.00  0.00    +0.060 C 
BRANCH  19  20
ATOM     20  C   UNL     1      33.860 -21.213 -19.481  0.00  0.00    +0.016 C 
ATOM     21  C   UNL     1      33.680 -20.028 -20.195  0.00  0.00    +0.134 C 
ATOM     22  C   UNL     1      35.134 -21.579 -19.047  0.00  0.00    -0.001 C 
ATOM     23  C   UNL     1      34.773 -19.209 -20.474  0.00  0.00    +0.087 C 
ATOM     24  C   UNL     1      36.228 -20.760 -19.327  0.00  0.00    +0.000 C 
ATOM     25  C   UNL     1      36.048 -19.575 -20.040  0.00  0.00    +0.008 C 
BRANCH  23  28
ATOM     26  O   UNL     1      34.634 -16.916 -20.560  0.00  0.00    -0.270 OA
ATOM     27  N   UNL     1      34.450 -18.024 -22.610  0.00  0.00    -0.272 N 
ATOM     28  C   UNL     1      34.609 -17.966 -21.215  0.00  0.00    +0.252 C 
ATOM     29  C   UNL     1      34.296 -16.825 -23.424  0.00  0.00    +0.115 C 
ATOM     30  C   UNL     1      34.426 -19.290 -23.339  0.00  0.00    +0.115 C 
ENDBRANCH  23  28
BRANCH  21  31
ATOM     31  O   UNL     1      32.433 -19.672 -20.616  0.00  0.00    -0.506 OA
ATOM     32  H   UNL     1      32.325 -18.953 -21.208  0.00  0.00    +0.292 HD
ENDBRANCH  21  31
ENDBRANCH  19  20
ENDBRANCH   4  19
TORSDOF 9
ENDMDL
MODEL 8
REMARK VINA RESULT:     -10.4      2.248      9.546
REMARK  Name = 71587743
REMARK  9 active torsions:
REMARK  status: ('A' for Active; 'I' for Inactive)
REMARK    1  A    between atoms: C_3  and  N_7
REMARK    2  A    between atoms: C_4  and  C_19
REMARK    3  A    between atoms: N_7  and  C_9
REMARK    4  A    between atoms: C_9  and  C_11
REMARK    5  A    between atoms: C_9  and  C_16
REMARK    6  A    between atoms: C_16  and  C_17
REMARK    7  A    between atoms: C_19  and  C_20
REMARK    8  A    between atoms: C_21  and  O_31
REMARK    9  A    between atoms: C_23  and  C_28
REMARK                            x       y       z     vdW  Elec       q    Type
REMARK                         _______ _______ _______ _____ _____    ______ ____
ROOT
ATOM      1  O   UNL     1      34.248 -15.689 -19.952  0.00  0.00    -0.282 OA
ATOM      2  O   UNL     1      32.163 -13.465 -20.057  0.00  0.00    -0.283 OA
ATOM      3  C   UNL     1      34.102 -14.792 -22.305  0.00  0.00    +0.087 C 
ATOM      4  C   UNL     1      33.167 -13.800 -22.337  0.00  0.00    +0.041 C 
ATOM      5  C   UNL     1      33.872 -15.005 -20.867  0.00  0.00    +0.247 C 
ATOM      6  C   UNL     1      32.865 -13.931 -20.916  0.00  0.00    +0.233 C 
ENDROOT
BRANCH   3   7
ATOM      7  N   UNL     1      34.938 -15.419 -23.093  0.00  0.00    -0.326 N 
ATOM      8  H   UNL     1      35.738 -14.938 -23.407  0.00  0.00    +0.147 HD
BRANCH   7   9
ATOM      9  C   UNL     1      34.738 -16.790 -23.525  0.00  0.00    +0.127 C 
BRANCH   9  11
ATOM     10  O   UNL     1      34.088 -18.457 -21.864  0.00  0.00    -0.460 OA
ATOM     11  C   UNL     1      35.105 -17.729 -22.395  0.00  0.00    +0.140 C 
ATOM     12  C   UNL     1      36.291 -18.020 -21.763  0.00  0.00    +0.037 C 
ATOM     13  C   UNL     1      34.631 -19.222 -20.880  0.00  0.00    +0.123 C 
ATOM     14  C   UNL     1      35.983 -18.991 -20.778  0.00  0.00    +0.036 C 
ATOM     15  C   UNL     1      33.704 -20.104 -20.156  0.00  0.00    +0.072 C 
ENDBRANCH   9  11
BRANCH   9  16
ATOM     16  C   UNL     1      33.291 -16.945 -24.029  0.00  0.00    +0.027 C 
BRANCH  16  17
ATOM     17  C   UNL     1      33.047 -18.283 -24.736  0.00  0.00    +0.002 C 
ATOM     18  C   UNL     1      31.616 -18.392 -25.238  0.00  0.00    +0.000 C 
ENDBRANCH  16  17
ENDBRANCH   9  16
ENDBRANCH   7   9
ENDBRANCH   3   7
BRANCH   4  19
ATOM     19  C   UNL     1      32.618 -12.876 -23.436  0.00  0.00    +0.060 C 
BRANCH  19  20
ATOM     20  C   UNL     1      32.231 -11.489 -22.931  0.00  0.00    +0.016 C 
ATOM     21  C   UNL     1      32.944 -10.358 -23.332  0.00  0.00    +0.134 C 
ATOM     22  C   UNL     1      31.152 -11.360 -22.057  0.00  0.00    -0.001 C 
ATOM     23  C   UNL     1      32.576  -9.099 -22.859  0.00  0.00    +0.087 C 
ATOM     24  C   UNL     1      30.784 -10.100 -21.584  0.00  0.00    +0.000 C 
ATOM     25  C   UNL     1      31.496  -8.969 -21.985  0.00  0.00    +0.008 C 
BRANCH  23  28
ATOM     26  O   UNL     1      34.493  -7.833 -22.932  0.00  0.00    -0.270 OA
ATOM     27  N   UNL     1      32.630  -6.921 -24.011  0.00  0.00    -0.272 N 
ATOM     28  C   UNL     1      33.303  -7.904 -23.265  0.00  0.00    +0.252 C 
ATOM     29  C   UNL     1      33.292  -5.706 -24.468  0.00  0.00    +0.115 C 
ATOM     30  C   UNL     1      31.223  -7.051 -24.380  0.00  0.00    +0.115 C 
ENDBRANCH  23  28
BRANCH  21  31
ATOM     31  O   UNL     1      33.997 -10.488 -24.187  0.00  0.00    -0.506 OA
ATOM     32  H   UNL     1      34.744 -10.997 -23.938  0.00  0.00    +0.292 HD
ENDBRANCH  21  31
ENDBRANCH  19  20
ENDBRANCH   4  19
TORSDOF 9
ENDMDL
MODEL 9
REMARK VINA RESULT:     -10.4      2.018      8.509
REMARK  Name = 71587743
REMARK  9 active torsions:
REMARK  status: ('A' for Active; 'I' for Inactive)
REMARK    1  A    between atoms: C_3  and  N_7
REMARK    2  A    between atoms: C_4  and  C_19
REMARK    3  A    between atoms: N_7  and  C_9
REMARK    4  A    between atoms: C_9  and  C_11
REMARK    5  A    between atoms: C_9  and  C_16
REMARK    6  A    between atoms: C_16  and  C_17
REMARK    7  A    between atoms: C_19  and  C_20
REMARK    8  A    between atoms: C_21  and  O_31
REMARK    9  A    between atoms: C_23  and  C_28
REMARK                            x       y       z     vdW  Elec       q    Type
REMARK                         _______ _______ _______ _____ _____    ______ ____
ROOT
ATOM      1  O   UNL     1      31.789 -13.087 -20.047  0.00  0.00    -0.282 OA
ATOM      2  O   UNL     1      30.131 -10.727 -21.040  0.00  0.00    -0.283 OA
ATOM      3  C   UNL     1      32.888 -12.094 -22.089  0.00  0.00    +0.087 C 
ATOM      4  C   UNL     1      32.136 -11.042 -22.522  0.00  0.00    +0.041 C 
ATOM      5  C   UNL     1      31.955 -12.346 -20.980  0.00  0.00    +0.247 C 
ATOM      6  C   UNL     1      31.152 -11.206 -21.458  0.00  0.00    +0.233 C 
ENDROOT
BRANCH   3   7
ATOM      7  N   UNL     1      33.983 -12.745 -22.389  0.00  0.00    -0.326 N 
ATOM      8  H   UNL     1      34.834 -12.441 -21.997  0.00  0.00    +0.147 HD
BRANCH   7   9
ATOM      9  C   UNL     1      34.000 -13.895 -23.275  0.00  0.00    +0.127 C 
BRANCH   9  11
ATOM     10  O   UNL     1      34.505 -16.282 -23.168  0.00  0.00    -0.460 OA
ATOM     11  C   UNL     1      34.250 -15.149 -22.463  0.00  0.00    +0.140 C 
ATOM     12  C   UNL     1      34.276 -15.404 -21.111  0.00  0.00    +0.037 C 
ATOM     13  C   UNL     1      34.698 -17.271 -22.257  0.00  0.00    +0.123 C 
ATOM     14  C   UNL     1      34.567 -16.783 -20.978  0.00  0.00    +0.036 C 
ATOM     15  C   UNL     1      34.993 -18.605 -22.799  0.00  0.00    +0.072 C 
ENDBRANCH   9  11
BRANCH   9  16
ATOM     16  C   UNL     1      32.689 -13.919 -24.083  0.00  0.00    +0.027 C 
BRANCH  16  17
ATOM     17  C   UNL     1      32.923 -14.032 -25.593  0.00  0.00    +0.002 C 
ATOM     18  C   UNL     1      32.605 -12.726 -26.303  0.00  0.00    +0.000 C 
ENDBRANCH  16  17
ENDBRANCH   9  16
ENDBRANCH   7   9
ENDBRANCH   3   7
BRANCH   4  19
ATOM     19  C   UNL     1      32.254 -10.043 -23.684  0.00  0.00    +0.060 C 
BRANCH  19  20
ATOM     20  C   UNL     1      32.766  -8.670 -23.260  0.00  0.00    +0.016 C 
ATOM     21  C   UNL     1      31.919  -7.752 -22.639  0.00  0.00    +0.134 C 
ATOM     22  C   UNL     1      34.098  -8.337 -23.502  0.00  0.00    -0.001 C 
ATOM     23  C   UNL     1      32.405  -6.502 -22.259  0.00  0.00    +0.087 C 
ATOM     24  C   UNL     1      34.584  -7.086 -23.123  0.00  0.00    +0.000 C 
ATOM     25  C   UNL     1      33.738  -6.167 -22.502  0.00  0.00    +0.008 C 
BRANCH  23  28
ATOM     26  O   UNL     1      31.469  -5.581 -20.373  0.00  0.00    -0.270 OA
ATOM     27  N   UNL     1      30.858  -4.588 -22.399  0.00  0.00    -0.272 N 
ATOM     28  C   UNL     1      31.541  -5.528 -21.607  0.00  0.00    +0.252 C 
ATOM     29  C   UNL     1      29.988  -3.572 -21.821  0.00  0.00    +0.115 C 
ATOM     30  C   UNL     1      30.975  -4.566 -23.855  0.00  0.00    +0.115 C 
ENDBRANCH  23  28
BRANCH  21  31
ATOM     31  O   UNL     1      30.617  -8.081 -22.402  0.00  0.00    -0.506 OA
ATOM     32  H   UNL     1      30.374  -8.476 -21.587  0.00  0.00    +0.292 HD
ENDBRANCH  21  31
ENDBRANCH  19  20
ENDBRANCH   4  19
TORSDOF 9
ENDMDL
