MODEL 1
REMARK VINA RESULT:     -11.8      0.000      0.000
REMARK  Name = 5282430
REMARK  2 active torsions:
REMARK  status: ('A' for Active; 'I' for Inactive)
REMARK    1  A    between atoms: C_17  and  S_23
REMARK    2  A    between atoms: C_18  and  S_27
REMARK                            x       y       z     vdW  Elec       q    Type
REMARK                         _______ _______ _______ _____ _____    ______ ____
ROOT
ATOM      1  O   UNL     1      37.232 -21.423 -16.090  0.00  0.00    -0.285 OA
ATOM      2  O   UNL     1      32.867 -21.651 -19.041  0.00  0.00    -0.285 OA
ATOM      3  N   UNL     1      33.986 -22.654 -16.495  0.00  0.00    -0.309 N 
ATOM      4  N   UNL     1      36.117 -20.427 -18.640  0.00  0.00    -0.309 N 
ATOM      5  C   UNL     1      35.007 -21.891 -17.001  0.00  0.00    +0.105 C 
ATOM      6  C   UNL     1      35.094 -21.185 -18.131  0.00  0.00    +0.105 C 
ATOM      7  C   UNL     1      35.659 -22.822 -14.931  0.00  0.00    +0.055 C 
ATOM      8  C   UNL     1      34.443 -20.259 -20.205  0.00  0.00    +0.055 C 
ATOM      9  C   UNL     1      34.356 -23.207 -15.276  0.00  0.00    +0.052 C 
ATOM     10  C   UNL     1      35.747 -19.876 -19.860  0.00  0.00    +0.052 C 
ATOM     11  C   UNL     1      36.146 -21.956 -16.020  0.00  0.00    +0.211 C 
ATOM     12  C   UNL     1      33.954 -21.120 -19.112  0.00  0.00    +0.211 C 
ATOM     13  C   UNL     1      36.284 -23.226 -13.770  0.00  0.00    +0.023 C 
ATOM     14  C   UNL     1      33.819 -19.857 -21.366  0.00  0.00    +0.023 C 
ATOM     15  C   UNL     1      33.633 -24.030 -14.438  0.00  0.00    +0.016 C 
ATOM     16  C   UNL     1      36.472 -19.056 -20.700  0.00  0.00    +0.016 C 
ATOM     17  C   UNL     1      35.553 -24.058 -12.921  0.00  0.00    +0.113 C 
ATOM     18  C   UNL     1      34.551 -19.027 -22.216  0.00  0.00    +0.113 C 
ATOM     19  C   UNL     1      34.242 -24.455 -13.251  0.00  0.00    +0.020 C 
ATOM     20  C   UNL     1      35.863 -18.631 -21.887  0.00  0.00    +0.020 C 
ATOM     21  H   UNL     1      33.114 -22.789 -16.933  0.00  0.00    +0.152 HD
ATOM     22  H   UNL     1      36.988 -20.292 -18.202  0.00  0.00    +0.152 HD
ENDROOT
BRANCH  17  23
ATOM     23  S   UNL     1      36.270 -24.613 -11.428  0.00  0.00    +0.042 S 
ATOM     24  O   UNL     1      35.037 -24.674 -10.357  0.00  0.00    -0.065 OA
ATOM     25  O   UNL     1      36.725 -25.981 -11.630  0.00  0.00    -0.065 OA
ATOM     26  O   UNL     1      37.197 -23.579 -10.995  0.00  0.00    -0.065 OA
ENDBRANCH  17  23
BRANCH  18  27
ATOM     27  S   UNL     1      33.833 -18.469 -23.708  0.00  0.00    +0.042 S 
ATOM     28  O   UNL     1      34.435 -19.452 -24.867  0.00  0.00    -0.065 OA
ATOM     29  O   UNL     1      32.401 -18.722 -23.639  0.00  0.00    -0.065 OA
ATOM     30  O   UNL     1      34.339 -17.126 -23.945  0.00  0.00    -0.065 OA
ENDBRANCH  18  27
TORSDOF 2
ENDMDL
MODEL 2
REMARK VINA RESULT:     -11.8      0.015      9.876
REMARK  Name = 5282430
REMARK  2 active torsions:
REMARK  status: ('A' for Active; 'I' for Inactive)
REMARK    1  A    between atoms: C_17  and  S_23
REMARK    2  A    between atoms: C_18  and  S_27
REMARK                            x       y       z     vdW  Elec       q    Type
REMARK                         _______ _______ _______ _____ _____    ______ ____
ROOT
ATOM      1  O   UNL     1      32.856 -21.631 -19.041  0.00  0.00    -0.285 OA
ATOM      2  O   UNL     1      37.230 -21.429 -16.102  0.00  0.00    -0.285 OA
ATOM      3  N   UNL     1      36.115 -20.427 -18.648  0.00  0.00    -0.309 N 
ATOM      4  N   UNL     1      33.975 -22.640 -16.499  0.00  0.00    -0.309 N 
ATOM      5  C   UNL     1      35.088 -21.178 -18.137  0.00  0.00    +0.105 C 
ATOM      6  C   UNL     1      34.999 -21.883 -17.007  0.00  0.00    +0.105 C 
ATOM      7  C   UNL     1      34.438 -20.248 -20.209  0.00  0.00    +0.055 C 
ATOM      8  C   UNL     1      35.651 -22.818 -14.938  0.00  0.00    +0.055 C 
ATOM      9  C   UNL     1      35.745 -19.873 -19.868  0.00  0.00    +0.052 C 
ATOM     10  C   UNL     1      34.345 -23.195 -15.280  0.00  0.00    +0.052 C 
ATOM     11  C   UNL     1      33.946 -21.106 -19.115  0.00  0.00    +0.211 C 
ATOM     12  C   UNL     1      36.141 -21.955 -16.029  0.00  0.00    +0.211 C 
ATOM     13  C   UNL     1      33.814 -19.842 -21.369  0.00  0.00    +0.023 C 
ATOM     14  C   UNL     1      36.276 -23.226 -13.779  0.00  0.00    +0.023 C 
ATOM     15  C   UNL     1      36.472 -19.058 -20.709  0.00  0.00    +0.016 C 
ATOM     16  C   UNL     1      33.619 -24.014 -14.441  0.00  0.00    +0.016 C 
ATOM     17  C   UNL     1      34.548 -19.016 -22.221  0.00  0.00    +0.113 C 
ATOM     18  C   UNL     1      35.542 -24.054 -12.928  0.00  0.00    +0.113 C 
ATOM     19  C   UNL     1      35.863 -18.628 -21.895  0.00  0.00    +0.020 C 
ATOM     20  C   UNL     1      34.229 -24.443 -13.255  0.00  0.00    +0.020 C 
ATOM     21  H   UNL     1      36.988 -20.297 -18.213  0.00  0.00    +0.152 HD
ATOM     22  H   UNL     1      33.102 -22.770 -16.934  0.00  0.00    +0.152 HD
ENDROOT
BRANCH  17  23
ATOM     23  S   UNL     1      33.830 -18.454 -23.711  0.00  0.00    +0.042 S 
ATOM     24  O   UNL     1      34.434 -19.432 -24.873  0.00  0.00    -0.065 OA
ATOM     25  O   UNL     1      32.398 -18.710 -23.643  0.00  0.00    -0.065 OA
ATOM     26  O   UNL     1      34.334 -17.110 -23.942  0.00  0.00    -0.065 OA
ENDBRANCH  17  23
BRANCH  18  27
ATOM     27  S   UNL     1      36.260 -24.614 -11.437  0.00  0.00    +0.042 S 
ATOM     28  O   UNL     1      35.028 -24.677 -10.365  0.00  0.00    -0.065 OA
ATOM     29  O   UNL     1      36.714 -25.981 -11.643  0.00  0.00    -0.065 OA
ATOM     30  O   UNL     1      37.188 -23.581 -11.001  0.00  0.00    -0.065 OA
ENDBRANCH  18  27
TORSDOF 2
ENDMDL
MODEL 3
REMARK VINA RESULT:     -10.6      8.830     13.981
REMARK  Name = 5282430
REMARK  2 active torsions:
REMARK  status: ('A' for Active; 'I' for Inactive)
REMARK    1  A    between atoms: C_17  and  S_23
REMARK    2  A    between atoms: C_18  and  S_27
REMARK                            x       y       z     vdW  Elec       q    Type
REMARK                         _______ _______ _______ _____ _____    ______ ____
ROOT
ATOM      1  O   UNL     1      32.225 -10.219 -24.426  0.00  0.00    -0.285 OA
ATOM      2  O   UNL     1      33.181 -13.167 -20.159  0.00  0.00    -0.285 OA
ATOM      3  N   UNL     1      32.262 -10.469 -20.940  0.00  0.00    -0.309 N 
ATOM      4  N   UNL     1      33.152 -12.915 -23.645  0.00  0.00    -0.309 N 
ATOM      5  C   UNL     1      32.489 -11.078 -22.147  0.00  0.00    +0.105 C 
ATOM      6  C   UNL     1      32.919 -12.307 -22.438  0.00  0.00    +0.105 C 
ATOM      7  C   UNL     1      31.731  -8.869 -22.501  0.00  0.00    +0.055 C 
ATOM      8  C   UNL     1      33.683 -14.515 -22.084  0.00  0.00    +0.055 C 
ATOM      9  C   UNL     1      31.814  -9.168 -21.134  0.00  0.00    +0.052 C 
ATOM     10  C   UNL     1      33.601 -14.215 -23.451  0.00  0.00    +0.052 C 
ATOM     11  C   UNL     1      32.159 -10.080 -23.225  0.00  0.00    +0.211 C 
ATOM     12  C   UNL     1      33.249 -13.305 -21.361  0.00  0.00    +0.211 C 
ATOM     13  C   UNL     1      31.316  -7.646 -22.983  0.00  0.00    +0.023 C 
ATOM     14  C   UNL     1      34.100 -15.737 -21.602  0.00  0.00    +0.023 C 
ATOM     15  C   UNL     1      31.472  -8.216 -20.196  0.00  0.00    +0.016 C 
ATOM     16  C   UNL     1      33.948 -15.165 -24.389  0.00  0.00    +0.016 C 
ATOM     17  C   UNL     1      30.968  -6.683 -22.035  0.00  0.00    +0.113 C 
ATOM     18  C   UNL     1      34.450 -16.699 -22.550  0.00  0.00    +0.113 C 
ATOM     19  C   UNL     1      31.045  -6.965 -20.656  0.00  0.00    +0.020 C 
ATOM     20  C   UNL     1      34.374 -16.416 -23.929  0.00  0.00    +0.020 C 
ATOM     21  H   UNL     1      32.395 -10.893 -20.062  0.00  0.00    +0.152 HD
ATOM     22  H   UNL     1      33.019 -12.491 -24.524  0.00  0.00    +0.152 HD
ENDROOT
BRANCH  17  23
ATOM     23  S   UNL     1      30.428  -5.107 -22.562  0.00  0.00    +0.042 S 
ATOM     24  O   UNL     1      31.638  -4.083 -22.160  0.00  0.00    -0.065 OA
ATOM     25  O   UNL     1      30.351  -5.122 -24.015  0.00  0.00    -0.065 OA
ATOM     26  O   UNL     1      29.263  -4.769 -21.760  0.00  0.00    -0.065 OA
ENDBRANCH  17  23
BRANCH  18  27
ATOM     27  S   UNL     1      34.987 -18.276 -22.023  0.00  0.00    +0.042 S 
ATOM     28  O   UNL     1      36.620 -18.202 -22.047  0.00  0.00    -0.065 OA
ATOM     29  O   UNL     1      34.590 -18.444 -20.633  0.00  0.00    -0.065 OA
ATOM     30  O   UNL     1      34.561 -19.228 -23.037  0.00  0.00    -0.065 OA
ENDBRANCH  18  27
TORSDOF 2
ENDMDL
MODEL 4
REMARK VINA RESULT:     -10.6      8.835     12.392
REMARK  Name = 5282430
REMARK  2 active torsions:
REMARK  status: ('A' for Active; 'I' for Inactive)
REMARK    1  A    between atoms: C_17  and  S_23
REMARK    2  A    between atoms: C_18  and  S_27
REMARK                            x       y       z     vdW  Elec       q    Type
REMARK                         _______ _______ _______ _____ _____    ______ ____
ROOT
ATOM      1  O   UNL     1      33.231 -13.150 -20.157  0.00  0.00    -0.285 OA
ATOM      2  O   UNL     1      32.180 -10.222 -24.416  0.00  0.00    -0.285 OA
ATOM      3  N   UNL     1      33.125 -12.914 -23.643  0.00  0.00    -0.309 N 
ATOM      4  N   UNL     1      32.293 -10.456 -20.930  0.00  0.00    -0.309 N 
ATOM      5  C   UNL     1      32.919 -12.301 -22.434  0.00  0.00    +0.105 C 
ATOM      6  C   UNL     1      32.494 -11.071 -22.139  0.00  0.00    +0.105 C 
ATOM      7  C   UNL     1      33.691 -14.506 -22.087  0.00  0.00    +0.055 C 
ATOM      8  C   UNL     1      31.727  -8.863 -22.486  0.00  0.00    +0.055 C 
ATOM      9  C   UNL     1      33.579 -14.213 -23.453  0.00  0.00    +0.052 C 
ATOM     10  C   UNL     1      31.841  -9.156 -21.119  0.00  0.00    +0.052 C 
ATOM     11  C   UNL     1      33.273 -13.294 -21.360  0.00  0.00    +0.211 C 
ATOM     12  C   UNL     1      32.140 -10.077 -23.213  0.00  0.00    +0.211 C 
ATOM     13  C   UNL     1      34.120 -15.726 -21.609  0.00  0.00    +0.023 C 
ATOM     14  C   UNL     1      31.301  -7.643 -22.964  0.00  0.00    +0.023 C 
ATOM     15  C   UNL     1      33.905 -15.167 -24.395  0.00  0.00    +0.016 C 
ATOM     16  C   UNL     1      31.519  -8.201 -20.178  0.00  0.00    +0.016 C 
ATOM     17  C   UNL     1      34.449 -16.693 -22.561  0.00  0.00    +0.113 C 
ATOM     18  C   UNL     1      30.974  -6.676 -22.012  0.00  0.00    +0.113 C 
ATOM     19  C   UNL     1      34.342 -16.416 -23.938  0.00  0.00    +0.020 C 
ATOM     20  C   UNL     1      31.082  -6.952 -20.635  0.00  0.00    +0.020 C 
ATOM     21  H   UNL     1      32.972 -12.494 -24.520  0.00  0.00    +0.152 HD
ATOM     22  H   UNL     1      32.446 -10.876 -20.053  0.00  0.00    +0.152 HD
ENDROOT
BRANCH  17  23
ATOM     23  S   UNL     1      34.999 -18.267 -22.038  0.00  0.00    +0.042 S 
ATOM     24  O   UNL     1      36.630 -18.192 -22.096  0.00  0.00    -0.065 OA
ATOM     25  O   UNL     1      34.631 -18.429 -20.639  0.00  0.00    -0.065 OA
ATOM     26  O   UNL     1      34.552 -19.223 -23.039  0.00  0.00    -0.065 OA
ENDBRANCH  17  23
BRANCH  18  27
ATOM     27  S   UNL     1      30.422  -5.102 -22.535  0.00  0.00    +0.042 S 
ATOM     28  O   UNL     1      31.623  -4.071 -22.129  0.00  0.00    -0.065 OA
ATOM     29  O   UNL     1      30.345  -5.113 -23.988  0.00  0.00    -0.065 OA
ATOM     30  O   UNL     1      29.254  -4.777 -21.732  0.00  0.00    -0.065 OA
ENDBRANCH  18  27
TORSDOF 2
ENDMDL
MODEL 5
REMARK VINA RESULT:     -10.5      1.023      1.178
REMARK  Name = 5282430
REMARK  2 active torsions:
REMARK  status: ('A' for Active; 'I' for Inactive)
REMARK    1  A    between atoms: C_17  and  S_23
REMARK    2  A    between atoms: C_18  and  S_27
REMARK                            x       y       z     vdW  Elec       q    Type
REMARK                         _______ _______ _______ _____ _____    ______ ____
ROOT
ATOM      1  O   UNL     1      37.393 -20.869 -16.949  0.00  0.00    -0.285 OA
ATOM      2  O   UNL     1      32.948 -21.218 -19.766  0.00  0.00    -0.285 OA
ATOM      3  N   UNL     1      34.229 -22.306 -17.335  0.00  0.00    -0.309 N 
ATOM      4  N   UNL     1      36.114 -19.788 -19.385  0.00  0.00    -0.309 N 
ATOM      5  C   UNL     1      35.174 -21.437 -17.818  0.00  0.00    +0.105 C 
ATOM      6  C   UNL     1      35.167 -20.652 -18.898  0.00  0.00    +0.105 C 
ATOM      7  C   UNL     1      35.968 -22.455 -15.840  0.00  0.00    +0.055 C 
ATOM      8  C   UNL     1      34.376 -19.638 -20.879  0.00  0.00    +0.055 C 
ATOM      9  C   UNL     1      34.684 -22.911 -16.170  0.00  0.00    +0.052 C 
ATOM     10  C   UNL     1      35.660 -19.183 -20.551  0.00  0.00    +0.052 C 
ATOM     11  C   UNL     1      36.351 -21.484 -16.881  0.00  0.00    +0.211 C 
ATOM     12  C   UNL     1      33.990 -20.605 -19.835  0.00  0.00    +0.211 C 
ATOM     13  C   UNL     1      36.663 -22.890 -14.732  0.00  0.00    +0.023 C 
ATOM     14  C   UNL     1      33.681 -19.205 -21.988  0.00  0.00    +0.023 C 
ATOM     15  C   UNL     1      34.053 -23.840 -15.369  0.00  0.00    +0.016 C 
ATOM     16  C   UNL     1      36.293 -18.257 -21.354  0.00  0.00    +0.016 C 
ATOM     17  C   UNL     1      36.025 -23.829 -13.920  0.00  0.00    +0.113 C 
ATOM     18  C   UNL     1      34.320 -18.267 -22.801  0.00  0.00    +0.113 C 
ATOM     19  C   UNL     1      34.735 -24.299 -14.235  0.00  0.00    +0.020 C 
ATOM     20  C   UNL     1      35.611 -17.799 -22.487  0.00  0.00    +0.020 C 
ATOM     21  H   UNL     1      33.354 -22.475 -17.752  0.00  0.00    +0.152 HD
ATOM     22  H   UNL     1      36.990 -19.619 -18.967  0.00  0.00    +0.152 HD
ENDROOT
BRANCH  17  23
ATOM     23  S   UNL     1      36.836 -24.430 -12.494  0.00  0.00    +0.042 S 
ATOM     24  O   UNL     1      35.658 -24.613 -11.377  0.00  0.00    -0.065 OA
ATOM     25  O   UNL     1      37.346 -25.760 -12.795  0.00  0.00    -0.065 OA
ATOM     26  O   UNL     1      37.731 -23.377 -12.042  0.00  0.00    -0.065 OA
ENDBRANCH  17  23
BRANCH  18  27
ATOM     27  S   UNL     1      33.508 -17.664 -24.227  0.00  0.00    +0.042 S 
ATOM     28  O   UNL     1      32.411 -18.812 -24.612  0.00  0.00    -0.065 OA
ATOM     29  O   UNL     1      32.762 -16.473 -23.848  0.00  0.00    -0.065 OA
ATOM     30  O   UNL     1      34.501 -17.612 -25.287  0.00  0.00    -0.065 OA
ENDBRANCH  18  27
TORSDOF 2
ENDMDL
MODEL 6
REMARK VINA RESULT:     -10.3      0.996      9.893
REMARK  Name = 5282430
REMARK  2 active torsions:
REMARK  status: ('A' for Active; 'I' for Inactive)
REMARK    1  A    between atoms: C_17  and  S_23
REMARK    2  A    between atoms: C_18  and  S_27
REMARK                            x       y       z     vdW  Elec       q    Type
REMARK                         _______ _______ _______ _____ _____    ______ ____
ROOT
ATOM      1  O   UNL     1      32.781 -21.199 -19.687  0.00  0.00    -0.285 OA
ATOM      2  O   UNL     1      37.289 -21.042 -16.956  0.00  0.00    -0.285 OA
ATOM      3  N   UNL     1      36.030 -19.944 -19.394  0.00  0.00    -0.309 N 
ATOM      4  N   UNL     1      34.042 -22.304 -17.254  0.00  0.00    -0.309 N 
ATOM      5  C   UNL     1      35.045 -20.742 -18.871  0.00  0.00    +0.105 C 
ATOM      6  C   UNL     1      35.026 -21.501 -17.774  0.00  0.00    +0.105 C 
ATOM      7  C   UNL     1      34.276 -19.728 -20.861  0.00  0.00    +0.055 C 
ATOM      8  C   UNL     1      35.797 -22.520 -15.786  0.00  0.00    +0.055 C 
ATOM      9  C   UNL     1      35.590 -19.341 -20.565  0.00  0.00    +0.052 C 
ATOM     10  C   UNL     1      34.483 -22.908 -16.083  0.00  0.00    +0.052 C 
ATOM     11  C   UNL     1      33.855 -20.648 -19.788  0.00  0.00    +0.211 C 
ATOM     12  C   UNL     1      36.215 -21.595 -16.856  0.00  0.00    +0.211 C 
ATOM     13  C   UNL     1      33.587 -19.281 -21.969  0.00  0.00    +0.023 C 
ATOM     14  C   UNL     1      36.486 -22.968 -14.680  0.00  0.00    +0.023 C 
ATOM     15  C   UNL     1      36.259 -18.471 -21.400  0.00  0.00    +0.016 C 
ATOM     16  C   UNL     1      33.816 -23.782 -15.250  0.00  0.00    +0.016 C 
ATOM     17  C   UNL     1      34.263 -18.400 -22.814  0.00  0.00    +0.113 C 
ATOM     18  C   UNL     1      35.811 -23.851 -13.836  0.00  0.00    +0.113 C 
ATOM     19  C   UNL     1      35.584 -17.999 -22.533  0.00  0.00    +0.020 C 
ATOM     20  C   UNL     1      34.491 -24.253 -14.118  0.00  0.00    +0.020 C 
ATOM     21  H   UNL     1      36.921 -19.816 -18.995  0.00  0.00    +0.152 HD
ATOM     22  H   UNL     1      33.151 -22.431 -17.652  0.00  0.00    +0.152 HD
ENDROOT
BRANCH  17  23
ATOM     23  S   UNL     1      33.461 -17.783 -24.239  0.00  0.00    +0.042 S 
ATOM     24  O   UNL     1      32.430 -18.966 -24.695  0.00  0.00    -0.065 OA
ATOM     25  O   UNL     1      32.648 -16.643 -23.838  0.00  0.00    -0.065 OA
ATOM     26  O   UNL     1      34.478 -17.645 -25.269  0.00  0.00    -0.065 OA
ENDBRANCH  17  23
BRANCH  18  27
ATOM     27  S   UNL     1      36.613 -24.466 -12.410  0.00  0.00    +0.042 S 
ATOM     28  O   UNL     1      37.180 -23.144 -11.634  0.00  0.00    -0.065 OA
ATOM     29  O   UNL     1      35.602 -25.063 -11.550  0.00  0.00    -0.065 OA
ATOM     30  O   UNL     1      37.751 -25.246 -12.869  0.00  0.00    -0.065 OA
ENDBRANCH  18  27
TORSDOF 2
ENDMDL
MODEL 7
REMARK VINA RESULT:     -10.2      9.395     14.580
REMARK  Name = 5282430
REMARK  2 active torsions:
REMARK  status: ('A' for Active; 'I' for Inactive)
REMARK    1  A    between atoms: C_17  and  S_23
REMARK    2  A    between atoms: C_18  and  S_27
REMARK                            x       y       z     vdW  Elec       q    Type
REMARK                         _______ _______ _______ _____ _____    ______ ____
ROOT
ATOM      1  O   UNL     1      31.916  -9.560 -20.293  0.00  0.00    -0.285 OA
ATOM      2  O   UNL     1      33.046 -12.511 -24.516  0.00  0.00    -0.285 OA
ATOM      3  N   UNL     1      32.088  -9.814 -23.776  0.00  0.00    -0.309 N 
ATOM      4  N   UNL     1      32.865 -12.259 -21.034  0.00  0.00    -0.309 N 
ATOM      5  C   UNL     1      32.271 -10.421 -22.559  0.00  0.00    +0.105 C 
ATOM      6  C   UNL     1      32.689 -11.650 -22.250  0.00  0.00    +0.105 C 
ATOM      7  C   UNL     1      31.494  -8.213 -22.239  0.00  0.00    +0.055 C 
ATOM      8  C   UNL     1      33.459 -13.860 -22.570  0.00  0.00    +0.055 C 
ATOM      9  C   UNL     1      31.632  -8.514 -23.601  0.00  0.00    +0.052 C 
ATOM     10  C   UNL     1      33.319 -13.560 -21.208  0.00  0.00    +0.052 C 
ATOM     11  C   UNL     1      31.897  -9.422 -21.497  0.00  0.00    +0.211 C 
ATOM     12  C   UNL     1      33.062 -12.649 -23.312  0.00  0.00    +0.211 C 
ATOM     13  C   UNL     1      31.058  -6.990 -21.775  0.00  0.00    +0.023 C 
ATOM     14  C   UNL     1      33.894 -15.083 -23.034  0.00  0.00    +0.023 C 
ATOM     15  C   UNL     1      31.325  -7.564 -24.554  0.00  0.00    +0.016 C 
ATOM     16  C   UNL     1      33.622 -14.511 -20.256  0.00  0.00    +0.016 C 
ATOM     17  C   UNL     1      30.748  -6.029 -22.738  0.00  0.00    +0.113 C 
ATOM     18  C   UNL     1      34.202 -16.046 -22.071  0.00  0.00    +0.113 C 
ATOM     19  C   UNL     1      30.881  -6.312 -24.112  0.00  0.00    +0.020 C 
ATOM     20  C   UNL     1      34.067 -15.763 -20.698  0.00  0.00    +0.020 C 
ATOM     21  H   UNL     1      32.258 -10.239 -24.647  0.00  0.00    +0.152 HD
ATOM     22  H   UNL     1      32.696 -11.834 -20.162  0.00  0.00    +0.152 HD
ENDROOT
BRANCH  17  23
ATOM     23  S   UNL     1      30.190  -4.451 -22.234  0.00  0.00    +0.042 S 
ATOM     24  O   UNL     1      29.910  -3.633 -23.621  0.00  0.00    -0.065 OA
ATOM     25  O   UNL     1      28.903  -4.620 -21.575  0.00  0.00    -0.065 OA
ATOM     26  O   UNL     1      31.299  -3.811 -21.546  0.00  0.00    -0.065 OA
ENDBRANCH  17  23
BRANCH  18  27
ATOM     27  S   UNL     1      34.762 -17.623 -22.575  0.00  0.00    +0.042 S 
ATOM     28  O   UNL     1      34.014 -18.681 -21.579  0.00  0.00    -0.065 OA
ATOM     29  O   UNL     1      34.255 -17.872 -23.916  0.00  0.00    -0.065 OA
ATOM     30  O   UNL     1      36.189 -17.671 -22.300  0.00  0.00    -0.065 OA
ENDBRANCH  18  27
TORSDOF 2
ENDMDL
MODEL 8
REMARK VINA RESULT:     -10.1      8.909     12.413
REMARK  Name = 5282430
REMARK  2 active torsions:
REMARK  status: ('A' for Active; 'I' for Inactive)
REMARK    1  A    between atoms: C_17  and  S_23
REMARK    2  A    between atoms: C_18  and  S_27
REMARK                            x       y       z     vdW  Elec       q    Type
REMARK                         _______ _______ _______ _____ _____    ______ ____
ROOT
ATOM      1  O   UNL     1      33.247 -13.071 -20.035  0.00  0.00    -0.285 OA
ATOM      2  O   UNL     1      32.226 -10.069 -24.249  0.00  0.00    -0.285 OA
ATOM      3  N   UNL     1      33.145 -12.781 -23.517  0.00  0.00    -0.309 N 
ATOM      4  N   UNL     1      32.336 -10.356 -20.767  0.00  0.00    -0.309 N 
ATOM      5  C   UNL     1      32.944 -12.184 -22.299  0.00  0.00    +0.105 C 
ATOM      6  C   UNL     1      32.531 -10.955 -21.985  0.00  0.00    +0.105 C 
ATOM      7  C   UNL     1      33.695 -14.402 -21.985  0.00  0.00    +0.055 C 
ATOM      8  C   UNL     1      31.786  -8.735 -22.298  0.00  0.00    +0.055 C 
ATOM      9  C   UNL     1      33.587 -14.087 -23.347  0.00  0.00    +0.052 C 
ATOM     10  C   UNL     1      31.896  -9.049 -20.937  0.00  0.00    +0.052 C 
ATOM     11  C   UNL     1      33.288 -13.197 -21.239  0.00  0.00    +0.211 C 
ATOM     12  C   UNL     1      32.187  -9.942 -23.044  0.00  0.00    +0.211 C 
ATOM     13  C   UNL     1      34.112 -15.633 -21.525  0.00  0.00    +0.023 C 
ATOM     14  C   UNL     1      31.371  -7.503 -22.758  0.00  0.00    +0.023 C 
ATOM     15  C   UNL     1      33.904 -15.029 -24.302  0.00  0.00    +0.016 C 
ATOM     16  C   UNL     1      31.583  -8.106 -19.981  0.00  0.00    +0.016 C 
ATOM     17  C   UNL     1      34.432 -16.588 -22.491  0.00  0.00    +0.113 C 
ATOM     18  C   UNL     1      31.053  -6.548 -21.792  0.00  0.00    +0.113 C 
ATOM     19  C   UNL     1      34.329 -16.289 -23.864  0.00  0.00    +0.020 C 
ATOM     20  C   UNL     1      31.157  -6.846 -20.419  0.00  0.00    +0.020 C 
ATOM     21  H   UNL     1      32.996 -12.346 -24.388  0.00  0.00    +0.152 HD
ATOM     22  H   UNL     1      32.484 -10.791 -19.896  0.00  0.00    +0.152 HD
ENDROOT
BRANCH  17  23
ATOM     23  S   UNL     1      34.967 -18.175 -21.993  0.00  0.00    +0.042 S 
ATOM     24  O   UNL     1      34.368 -19.201 -23.115  0.00  0.00    -0.065 OA
ATOM     25  O   UNL     1      36.417 -18.217 -22.110  0.00  0.00    -0.065 OA
ATOM     26  O   UNL     1      34.316 -18.460 -20.724  0.00  0.00    -0.065 OA
ENDBRANCH  17  23
BRANCH  18  27
ATOM     27  S   UNL     1      30.516  -4.961 -22.291  0.00  0.00    +0.042 S 
ATOM     28  O   UNL     1      30.486  -5.013 -23.924  0.00  0.00    -0.065 OA
ATOM     29  O   UNL     1      29.140  -4.793 -21.846  0.00  0.00    -0.065 OA
ATOM     30  O   UNL     1      31.548  -4.020 -21.886  0.00  0.00    -0.065 OA
ENDBRANCH  18  27
TORSDOF 2
ENDMDL
MODEL 9
REMARK VINA RESULT:     -10.0      1.456      2.344
REMARK  Name = 5282430
REMARK  2 active torsions:
REMARK  status: ('A' for Active; 'I' for Inactive)
REMARK    1  A    between atoms: C_17  and  S_23
REMARK    2  A    between atoms: C_18  and  S_27
REMARK                            x       y       z     vdW  Elec       q    Type
REMARK                         _______ _______ _______ _____ _____    ______ ____
ROOT
ATOM      1  O   UNL     1      33.104 -22.633 -15.630  0.00  0.00    -0.285 OA
ATOM      2  O   UNL     1      36.696 -20.903 -19.083  0.00  0.00    -0.285 OA
ATOM      3  N   UNL     1      36.478 -22.232 -16.452  0.00  0.00    -0.309 N 
ATOM      4  N   UNL     1      33.321 -21.297 -18.258  0.00  0.00    -0.309 N 
ATOM      5  C   UNL     1      35.168 -22.045 -16.812  0.00  0.00    +0.105 C 
ATOM      6  C   UNL     1      34.632 -21.489 -17.900  0.00  0.00    +0.105 C 
ATOM      7  C   UNL     1      35.271 -23.111 -14.706  0.00  0.00    +0.055 C 
ATOM      8  C   UNL     1      34.529 -20.418 -20.003  0.00  0.00    +0.055 C 
ATOM      9  C   UNL     1      36.553 -22.859 -15.215  0.00  0.00    +0.052 C 
ATOM     10  C   UNL     1      33.247 -20.668 -19.494  0.00  0.00    +0.052 C 
ATOM     11  C   UNL     1      34.313 -22.601 -15.705  0.00  0.00    +0.211 C 
ATOM     12  C   UNL     1      35.486 -20.933 -19.007  0.00  0.00    +0.211 C 
ATOM     13  C   UNL     1      35.047 -23.724 -13.493  0.00  0.00    +0.023 C 
ATOM     14  C   UNL     1      34.753 -19.803 -21.216  0.00  0.00    +0.023 C 
ATOM     15  C   UNL     1      37.668 -23.230 -14.493  0.00  0.00    +0.016 C 
ATOM     16  C   UNL     1      32.132 -20.293 -20.214  0.00  0.00    +0.016 C 
ATOM     17  C   UNL     1      36.174 -24.101 -12.762  0.00  0.00    +0.113 C 
ATOM     18  C   UNL     1      33.625 -19.424 -21.946  0.00  0.00    +0.113 C 
ATOM     19  C   UNL     1      37.471 -23.856 -13.257  0.00  0.00    +0.020 C 
ATOM     20  C   UNL     1      32.329 -19.667 -21.450  0.00  0.00    +0.020 C 
ATOM     21  H   UNL     1      37.254 -21.962 -16.994  0.00  0.00    +0.152 HD
ATOM     22  H   UNL     1      32.545 -21.567 -17.716  0.00  0.00    +0.152 HD
ENDROOT
BRANCH  17  23
ATOM     23  S   UNL     1      35.978 -24.886 -11.213  0.00  0.00    +0.042 S 
ATOM     24  O   UNL     1      36.859 -23.994 -10.166  0.00  0.00    -0.065 OA
ATOM     25  O   UNL     1      34.584 -24.753 -10.817  0.00  0.00    -0.065 OA
ATOM     26  O   UNL     1      36.596 -26.198 -11.325  0.00  0.00    -0.065 OA
ENDBRANCH  17  23
BRANCH  18  27
ATOM     27  S   UNL     1      33.822 -18.640 -23.495  0.00  0.00    +0.042 S 
ATOM     28  O   UNL     1      34.561 -19.747 -24.445  0.00  0.00    -0.065 OA
ATOM     29  O   UNL     1      32.497 -18.416 -24.056  0.00  0.00    -0.065 OA
ATOM     30  O   UNL     1      34.740 -17.531 -23.293  0.00  0.00    -0.065 OA
ENDBRANCH  18  27
TORSDOF 2
ENDMDL
