MODEL 1
REMARK VINA RESULT:      -9.3      0.000      0.000
REMARK  Name = 6540267
REMARK  6 active torsions:
REMARK  status: ('A' for Active; 'I' for Inactive)
REMARK    1  A    between atoms: N_1  and  C_24
REMARK    2  A    between atoms: C_2  and  C_12
REMARK    3  A    between atoms: N_11  and  C_15
REMARK    4  A    between atoms: N_14  and  C_21
REMARK    5  A    between atoms: C_24  and  C_25
REMARK    6  A    between atoms: C_28  and  O_31
REMARK                            x       y       z     vdW  Elec       q    Type
REMARK                         _______ _______ _______ _____ _____    ______ ____
ROOT
ATOM      1  N   UNL     1      36.288 -23.350 -13.804  0.00  0.00    -0.279 N 
ATOM      2  C   UNL     1      35.607 -24.164 -12.972  0.00  0.00    +0.106 C 
ATOM      3  C   UNL     1      37.441 -23.986 -14.203  0.00  0.00    +0.052 C 
ATOM      4  C   UNL     1      36.271 -25.329 -12.799  0.00  0.00    +0.021 C 
ATOM      5  C   UNL     1      37.456 -25.238 -13.582  0.00  0.00    +0.015 C 
ATOM      6  C   UNL     1      38.463 -23.555 -15.056  0.00  0.00    +0.015 C 
ATOM      7  C   UNL     1      38.542 -26.102 -13.824  0.00  0.00    +0.001 C 
ATOM      8  C   UNL     1      39.531 -24.429 -15.281  0.00  0.00    +0.001 C 
ATOM      9  C   UNL     1      39.571 -25.684 -14.675  0.00  0.00    +0.000 C 
ENDROOT
BRANCH   2  12
ATOM     10  O   UNL     1      34.256 -23.234 -11.263  0.00  0.00    -0.269 OA
ATOM     11  N   UNL     1      33.185 -24.154 -13.075  0.00  0.00    -0.302 N 
ATOM     12  C   UNL     1      34.325 -23.797 -12.357  0.00  0.00    +0.260 C 
ATOM     13  H   UNL     1      33.292 -24.602 -13.945  0.00  0.00    +0.150 HD
BRANCH  11  15
ATOM     14  N   UNL     1      30.070 -23.344 -14.859  0.00  0.00    +0.388 N 
ATOM     15  C   UNL     1      31.851 -23.887 -12.584  0.00  0.00    +0.068 C 
ATOM     16  C   UNL     1      31.397 -22.475 -12.957  0.00  0.00    -0.003 C 
ATOM     17  C   UNL     1      30.852 -24.919 -13.115  0.00  0.00    -0.003 C 
ATOM     18  C   UNL     1      31.071 -22.348 -14.449  0.00  0.00    -0.076 C 
ATOM     19  C   UNL     1      30.544 -24.711 -14.602  0.00  0.00    -0.076 C 
ATOM     20  H   UNL     1      29.231 -23.192 -14.300  0.00  0.00    -0.080 HD
BRANCH  14  21
ATOM     21  C   UNL     1      29.732 -23.176 -16.272  0.00  0.00    -0.058 C 
ATOM     22  C   UNL     1      28.243 -22.871 -16.404  0.00  0.00    -0.023 C 
ATOM     23  C   UNL     1      30.576 -22.065 -16.890  0.00  0.00    -0.023 C 
ENDBRANCH  14  21
ENDBRANCH  11  15
ENDBRANCH   2  12
BRANCH   1  24
ATOM     24  C   UNL     1      35.887 -22.023 -14.222  0.00  0.00    +0.122 C 
BRANCH  24  25
ATOM     25  C   UNL     1      35.361 -22.037 -15.622  0.00  0.00    +0.001 C 
ATOM     26  C   UNL     1      36.018 -21.318 -16.616  0.00  0.00    +0.034 C 
ATOM     27  C   UNL     1      34.215 -22.770 -15.924  0.00  0.00    -0.002 C 
ATOM     28  C   UNL     1      35.528 -21.331 -17.923  0.00  0.00    +0.138 C 
ATOM     29  C   UNL     1      33.725 -22.782 -17.230  0.00  0.00    +0.003 C 
ATOM     30  C   UNL     1      34.381 -22.062 -18.229  0.00  0.00    +0.037 C 
BRANCH  28  31
ATOM     31  O   UNL     1      36.167 -20.628 -18.897  0.00  0.00    -0.471 OA
ATOM     32  C   UNL     1      35.402 -20.265 -20.045  0.00  0.00    +0.252 C 
ENDBRANCH  28  31
ENDBRANCH  24  25
ENDBRANCH   1  24
TORSDOF 6
ENDMDL
MODEL 2
REMARK VINA RESULT:      -8.8      2.130      6.931
REMARK  Name = 6540267
REMARK  6 active torsions:
REMARK  status: ('A' for Active; 'I' for Inactive)
REMARK    1  A    between atoms: N_1  and  C_24
REMARK    2  A    between atoms: C_2  and  C_12
REMARK    3  A    between atoms: N_11  and  C_15
REMARK    4  A    between atoms: N_14  and  C_21
REMARK    5  A    between atoms: C_24  and  C_25
REMARK    6  A    between atoms: C_28  and  O_31
REMARK                            x       y       z     vdW  Elec       q    Type
REMARK                         _______ _______ _______ _____ _____    ______ ____
ROOT
ATOM      1  N   UNL     1      34.111 -22.837 -16.811  0.00  0.00    -0.279 N 
ATOM      2  C   UNL     1      35.162 -22.549 -16.019  0.00  0.00    +0.106 C 
ATOM      3  C   UNL     1      34.206 -22.091 -17.964  0.00  0.00    +0.052 C 
ATOM      4  C   UNL     1      35.962 -21.630 -16.605  0.00  0.00    +0.021 C 
ATOM      5  C   UNL     1      35.366 -21.320 -17.859  0.00  0.00    +0.015 C 
ATOM      6  C   UNL     1      33.363 -22.040 -19.080  0.00  0.00    +0.015 C 
ATOM      7  C   UNL     1      35.702 -20.454 -18.919  0.00  0.00    +0.001 C 
ATOM      8  C   UNL     1      33.717 -21.175 -20.119  0.00  0.00    +0.001 C 
ATOM      9  C   UNL     1      34.868 -20.393 -20.042  0.00  0.00    +0.000 C 
ENDROOT
BRANCH   2  12
ATOM     10  O   UNL     1      35.311 -22.527 -13.654  0.00  0.00    -0.269 OA
ATOM     11  N   UNL     1      35.683 -24.529 -14.718  0.00  0.00    -0.302 N 
ATOM     12  C   UNL     1      35.374 -23.170 -14.704  0.00  0.00    +0.260 C 
ATOM     13  H   UNL     1      35.722 -24.999 -15.583  0.00  0.00    +0.150 HD
BRANCH  11  15
ATOM     14  N   UNL     1      38.846 -25.670 -13.226  0.00  0.00    +0.388 N 
ATOM     15  C   UNL     1      35.948 -25.271 -13.506  0.00  0.00    +0.068 C 
ATOM     16  C   UNL     1      36.630 -26.605 -13.813  0.00  0.00    -0.003 C 
ATOM     17  C   UNL     1      36.804 -24.453 -12.536  0.00  0.00    -0.003 C 
ATOM     18  C   UNL     1      38.091 -26.423 -14.238  0.00  0.00    -0.076 C 
ATOM     19  C   UNL     1      38.259 -24.342 -13.003  0.00  0.00    -0.076 C 
ATOM     20  H   UNL     1      38.797 -26.187 -12.349  0.00  0.00    -0.080 HD
BRANCH  14  21
ATOM     21  C   UNL     1      40.249 -25.549 -13.622  0.00  0.00    -0.058 C 
ATOM     22  C   UNL     1      40.927 -26.912 -13.510  0.00  0.00    -0.023 C 
ATOM     23  C   UNL     1      40.353 -25.001 -15.043  0.00  0.00    -0.023 C 
ENDBRANCH  14  21
ENDBRANCH  11  15
ENDBRANCH   2  12
BRANCH   1  24
ATOM     24  C   UNL     1      33.047 -23.774 -16.516  0.00  0.00    +0.122 C 
BRANCH  24  25
ATOM     25  C   UNL     1      31.888 -23.086 -15.869  0.00  0.00    +0.001 C 
ATOM     26  C   UNL     1      30.738 -22.824 -16.607  0.00  0.00    +0.034 C 
ATOM     27  C   UNL     1      31.966 -22.710 -14.530  0.00  0.00    -0.002 C 
ATOM     28  C   UNL     1      29.656 -22.181 -16.004  0.00  0.00    +0.138 C 
ATOM     29  C   UNL     1      30.884 -22.067 -13.927  0.00  0.00    +0.003 C 
ATOM     30  C   UNL     1      29.730 -21.803 -14.664  0.00  0.00    +0.037 C 
BRANCH  28  31
ATOM     31  O   UNL     1      28.530 -21.922 -16.722  0.00  0.00    -0.471 OA
ATOM     32  C   UNL     1      27.279 -22.123 -16.065  0.00  0.00    +0.252 C 
ENDBRANCH  28  31
ENDBRANCH  24  25
ENDBRANCH   1  24
TORSDOF 6
ENDMDL
MODEL 3
REMARK VINA RESULT:      -8.7      1.419      6.100
REMARK  Name = 6540267
REMARK  6 active torsions:
REMARK  status: ('A' for Active; 'I' for Inactive)
REMARK    1  A    between atoms: N_1  and  C_24
REMARK    2  A    between atoms: C_2  and  C_12
REMARK    3  A    between atoms: N_11  and  C_15
REMARK    4  A    between atoms: N_14  and  C_21
REMARK    5  A    between atoms: C_24  and  C_25
REMARK    6  A    between atoms: C_28  and  O_31
REMARK                            x       y       z     vdW  Elec       q    Type
REMARK                         _______ _______ _______ _____ _____    ______ ____
ROOT
ATOM      1  N   UNL     1      33.074 -23.490 -14.493  0.00  0.00    -0.279 N 
ATOM      2  C   UNL     1      33.001 -23.314 -13.158  0.00  0.00    +0.106 C 
ATOM      3  C   UNL     1      31.898 -23.058 -15.062  0.00  0.00    +0.052 C 
ATOM      4  C   UNL     1      31.809 -22.776 -12.814  0.00  0.00    +0.021 C 
ATOM      5  C   UNL     1      31.081 -22.604 -14.024  0.00  0.00    +0.015 C 
ATOM      6  C   UNL     1      31.497 -23.036 -16.403  0.00  0.00    +0.015 C 
ATOM      7  C   UNL     1      29.802 -22.102 -14.337  0.00  0.00    +0.001 C 
ATOM      8  C   UNL     1      30.224 -22.534 -16.690  0.00  0.00    +0.001 C 
ATOM      9  C   UNL     1      29.388 -22.074 -15.675  0.00  0.00    +0.000 C 
ENDROOT
BRANCH   2  12
ATOM     10  O   UNL     1      34.020 -24.640 -11.480  0.00  0.00    -0.269 OA
ATOM     11  N   UNL     1      35.197 -22.824 -12.253  0.00  0.00    -0.302 N 
ATOM     12  C   UNL     1      34.089 -23.670 -12.239  0.00  0.00    +0.260 C 
ATOM     13  H   UNL     1      35.205 -22.062 -12.877  0.00  0.00    +0.150 HD
BRANCH  11  15
ATOM     14  N   UNL     1      38.296 -24.748 -12.735  0.00  0.00    +0.388 N 
ATOM     15  C   UNL     1      36.333 -23.028 -11.382  0.00  0.00    +0.068 C 
ATOM     16  C   UNL     1      36.507 -24.508 -11.039  0.00  0.00    -0.003 C 
ATOM     17  C   UNL     1      37.616 -22.479 -12.013  0.00  0.00    -0.003 C 
ATOM     18  C   UNL     1      37.040 -25.318 -12.227  0.00  0.00    -0.076 C 
ATOM     19  C   UNL     1      38.111 -23.355 -13.168  0.00  0.00    -0.076 C 
ATOM     20  H   UNL     1      38.973 -24.753 -11.973  0.00  0.00    -0.080 HD
BRANCH  14  21
ATOM     21  C   UNL     1      38.818 -25.560 -13.834  0.00  0.00    -0.058 C 
ATOM     22  C   UNL     1      37.654 -26.166 -14.613  0.00  0.00    -0.023 C 
ATOM     23  C   UNL     1      39.705 -24.714 -14.743  0.00  0.00    -0.023 C 
ENDBRANCH  14  21
ENDBRANCH  11  15
ENDBRANCH   2  12
BRANCH   1  24
ATOM     24  C   UNL     1      34.196 -24.039 -15.224  0.00  0.00    +0.122 C 
BRANCH  24  25
ATOM     25  C   UNL     1      34.924 -22.969 -15.974  0.00  0.00    +0.001 C 
ATOM     26  C   UNL     1      34.424 -22.512 -17.190  0.00  0.00    +0.034 C 
ATOM     27  C   UNL     1      36.100 -22.435 -15.451  0.00  0.00    -0.002 C 
ATOM     28  C   UNL     1      35.103 -21.514 -17.890  0.00  0.00    +0.138 C 
ATOM     29  C   UNL     1      36.779 -21.437 -16.151  0.00  0.00    +0.003 C 
ATOM     30  C   UNL     1      36.280 -20.977 -17.370  0.00  0.00    +0.037 C 
BRANCH  28  31
ATOM     31  O   UNL     1      34.618 -21.065 -19.079  0.00  0.00    -0.471 OA
ATOM     32  C   UNL     1      33.203 -21.109 -19.261  0.00  0.00    +0.252 C 
ENDBRANCH  28  31
ENDBRANCH  24  25
ENDBRANCH   1  24
TORSDOF 6
ENDMDL
MODEL 4
REMARK VINA RESULT:      -8.0      2.026      6.467
REMARK  Name = 6540267
REMARK  6 active torsions:
REMARK  status: ('A' for Active; 'I' for Inactive)
REMARK    1  A    between atoms: N_1  and  C_24
REMARK    2  A    between atoms: C_2  and  C_12
REMARK    3  A    between atoms: N_11  and  C_15
REMARK    4  A    between atoms: N_14  and  C_21
REMARK    5  A    between atoms: C_24  and  C_25
REMARK    6  A    between atoms: C_28  and  O_31
REMARK                            x       y       z     vdW  Elec       q    Type
REMARK                         _______ _______ _______ _____ _____    ______ ____
ROOT
ATOM      1  N   UNL     1      32.368 -23.086 -16.572  0.00  0.00    -0.279 N 
ATOM      2  C   UNL     1      33.167 -23.121 -15.487  0.00  0.00    +0.106 C 
ATOM      3  C   UNL     1      31.101 -22.722 -16.179  0.00  0.00    +0.052 C 
ATOM      4  C   UNL     1      32.472 -22.792 -14.374  0.00  0.00    +0.021 C 
ATOM      5  C   UNL     1      31.138 -22.531 -14.796  0.00  0.00    +0.015 C 
ATOM      6  C   UNL     1      29.935 -22.549 -16.934  0.00  0.00    +0.015 C 
ATOM      7  C   UNL     1      29.956 -22.149 -14.132  0.00  0.00    +0.001 C 
ATOM      8  C   UNL     1      28.774 -22.169 -16.254  0.00  0.00    +0.001 C 
ATOM      9  C   UNL     1      28.782 -21.973 -14.874  0.00  0.00    +0.000 C 
ENDROOT
BRANCH   2  12
ATOM     10  O   UNL     1      35.436 -22.728 -16.043  0.00  0.00    -0.269 OA
ATOM     11  N   UNL     1      34.927 -24.726 -15.030  0.00  0.00    -0.302 N 
ATOM     12  C   UNL     1      34.591 -23.475 -15.545  0.00  0.00    +0.260 C 
ATOM     13  H   UNL     1      34.216 -25.287 -14.643  0.00  0.00    +0.150 HD
BRANCH  11  15
ATOM     14  N   UNL     1      37.628 -24.462 -12.547  0.00  0.00    +0.388 N 
ATOM     15  C   UNL     1      36.283 -25.227 -15.046  0.00  0.00    +0.068 C 
ATOM     16  C   UNL     1      37.295 -24.083 -14.971  0.00  0.00    -0.003 C 
ATOM     17  C   UNL     1      36.519 -26.214 -13.899  0.00  0.00    -0.003 C 
ATOM     18  C   UNL     1      37.350 -23.450 -13.576  0.00  0.00    -0.076 C 
ATOM     19  C   UNL     1      36.599 -25.511 -12.541  0.00  0.00    -0.076 C 
ATOM     20  H   UNL     1      38.521 -24.899 -12.771  0.00  0.00    -0.080 HD
BRANCH  14  21
ATOM     21  C   UNL     1      37.728 -23.835 -11.229  0.00  0.00    -0.058 C 
ATOM     22  C   UNL     1      38.217 -22.398 -11.387  0.00  0.00    -0.023 C 
ATOM     23  C   UNL     1      36.379 -23.881 -10.517  0.00  0.00    -0.023 C 
ENDBRANCH  14  21
ENDBRANCH  11  15
ENDBRANCH   2  12
BRANCH   1  24
ATOM     24  C   UNL     1      32.762 -23.378 -17.934  0.00  0.00    +0.122 C 
BRANCH  24  25
ATOM     25  C   UNL     1      33.079 -22.122 -18.683  0.00  0.00    +0.001 C 
ATOM     26  C   UNL     1      34.405 -21.736 -18.858  0.00  0.00    +0.034 C 
ATOM     27  C   UNL     1      32.046 -21.345 -19.201  0.00  0.00    -0.002 C 
ATOM     28  C   UNL     1      34.701 -20.564 -19.556  0.00  0.00    +0.138 C 
ATOM     29  C   UNL     1      32.341 -20.174 -19.898  0.00  0.00    +0.003 C 
ATOM     30  C   UNL     1      33.669 -19.784 -20.076  0.00  0.00    +0.037 C 
BRANCH  28  31
ATOM     31  O   UNL     1      35.996 -20.183 -19.729  0.00  0.00    -0.471 OA
ATOM     32  C   UNL     1      36.236 -19.066 -20.584  0.00  0.00    +0.252 C 
ENDBRANCH  28  31
ENDBRANCH  24  25
ENDBRANCH   1  24
TORSDOF 6
ENDMDL
MODEL 5
REMARK VINA RESULT:      -7.9      2.215      7.271
REMARK  Name = 6540267
REMARK  6 active torsions:
REMARK  status: ('A' for Active; 'I' for Inactive)
REMARK    1  A    between atoms: N_1  and  C_24
REMARK    2  A    between atoms: C_2  and  C_12
REMARK    3  A    between atoms: N_11  and  C_15
REMARK    4  A    between atoms: N_14  and  C_21
REMARK    5  A    between atoms: C_24  and  C_25
REMARK    6  A    between atoms: C_28  and  O_31
REMARK                            x       y       z     vdW  Elec       q    Type
REMARK                         _______ _______ _______ _____ _____    ______ ____
ROOT
ATOM      1  N   UNL     1      32.530 -22.739 -15.243  0.00  0.00    -0.279 N 
ATOM      2  C   UNL     1      33.754 -23.269 -15.045  0.00  0.00    +0.106 C 
ATOM      3  C   UNL     1      32.450 -22.277 -16.536  0.00  0.00    +0.052 C 
ATOM      4  C   UNL     1      34.500 -23.174 -16.170  0.00  0.00    +0.021 C 
ATOM      5  C   UNL     1      33.680 -22.537 -17.143  0.00  0.00    +0.015 C 
ATOM      6  C   UNL     1      31.393 -21.652 -17.208  0.00  0.00    +0.015 C 
ATOM      7  C   UNL     1      33.867 -22.157 -18.487  0.00  0.00    +0.001 C 
ATOM      8  C   UNL     1      31.601 -21.284 -18.541  0.00  0.00    +0.001 C 
ATOM      9  C   UNL     1      32.819 -21.532 -19.172  0.00  0.00    +0.000 C 
ENDROOT
BRANCH   2  12
ATOM     10  O   UNL     1      33.439 -23.911 -12.787  0.00  0.00    -0.269 OA
ATOM     11  N   UNL     1      35.494 -24.324 -13.727  0.00  0.00    -0.302 N 
ATOM     12  C   UNL     1      34.182 -23.857 -13.769  0.00  0.00    +0.260 C 
ATOM     13  H   UNL     1      36.049 -24.259 -14.538  0.00  0.00    +0.150 HD
BRANCH  11  15
ATOM     14  N   UNL     1      38.933 -25.392 -12.969  0.00  0.00    +0.388 N 
ATOM     15  C   UNL     1      36.068 -24.901 -12.532  0.00  0.00    +0.068 C 
ATOM     16  C   UNL     1      36.633 -26.296 -12.808  0.00  0.00    -0.003 C 
ATOM     17  C   UNL     1      37.158 -23.997 -11.952  0.00  0.00    -0.003 C 
ATOM     18  C   UNL     1      37.929 -26.242 -13.624  0.00  0.00    -0.076 C 
ATOM     19  C   UNL     1      38.436 -24.019 -12.797  0.00  0.00    -0.076 C 
ATOM     20  H   UNL     1      39.115 -25.778 -12.044  0.00  0.00    -0.080 HD
BRANCH  14  21
ATOM     21  C   UNL     1      40.180 -25.392 -13.733  0.00  0.00    -0.058 C 
ATOM     22  C   UNL     1      40.891 -26.729 -13.542  0.00  0.00    -0.023 C 
ATOM     23  C   UNL     1      39.896 -25.129 -15.210  0.00  0.00    -0.023 C 
ENDBRANCH  14  21
ENDBRANCH  11  15
ENDBRANCH   2  12
BRANCH   1  24
ATOM     24  C   UNL     1      31.463 -22.664 -14.267  0.00  0.00    +0.122 C 
BRANCH  24  25
ATOM     25  C   UNL     1      30.150 -23.041 -14.876  0.00  0.00    +0.001 C 
ATOM     26  C   UNL     1      29.156 -22.079 -15.030  0.00  0.00    +0.034 C 
ATOM     27  C   UNL     1      29.929 -24.353 -15.288  0.00  0.00    -0.002 C 
ATOM     28  C   UNL     1      27.931 -22.431 -15.598  0.00  0.00    +0.138 C 
ATOM     29  C   UNL     1      28.705 -24.705 -15.856  0.00  0.00    +0.003 C 
ATOM     30  C   UNL     1      27.706 -23.743 -16.011  0.00  0.00    +0.037 C 
BRANCH  28  31
ATOM     31  O   UNL     1      26.956 -21.494 -15.749  0.00  0.00    -0.471 OA
ATOM     32  C   UNL     1      26.212 -21.519 -16.967  0.00  0.00    +0.252 C 
ENDBRANCH  28  31
ENDBRANCH  24  25
ENDBRANCH   1  24
TORSDOF 6
ENDMDL
MODEL 6
REMARK VINA RESULT:      -7.8      3.377      7.741
REMARK  Name = 6540267
REMARK  6 active torsions:
REMARK  status: ('A' for Active; 'I' for Inactive)
REMARK    1  A    between atoms: N_1  and  C_24
REMARK    2  A    between atoms: C_2  and  C_12
REMARK    3  A    between atoms: N_11  and  C_15
REMARK    4  A    between atoms: N_14  and  C_21
REMARK    5  A    between atoms: C_24  and  C_25
REMARK    6  A    between atoms: C_28  and  O_31
REMARK                            x       y       z     vdW  Elec       q    Type
REMARK                         _______ _______ _______ _____ _____    ______ ____
ROOT
ATOM      1  N   UNL     1      34.374 -21.896 -16.787  0.00  0.00    -0.279 N 
ATOM      2  C   UNL     1      34.118 -21.727 -18.100  0.00  0.00    +0.106 C 
ATOM      3  C   UNL     1      33.205 -22.237 -16.147  0.00  0.00    +0.052 C 
ATOM      4  C   UNL     1      32.808 -21.944 -18.360  0.00  0.00    +0.021 C 
ATOM      5  C   UNL     1      32.201 -22.273 -17.117  0.00  0.00    +0.015 C 
ATOM      6  C   UNL     1      32.961 -22.513 -14.797  0.00  0.00    +0.015 C 
ATOM      7  C   UNL     1      30.888 -22.600 -16.722  0.00  0.00    +0.001 C 
ATOM      8  C   UNL     1      31.652 -22.836 -14.428  0.00  0.00    +0.001 C 
ATOM      9  C   UNL     1      30.629 -22.879 -15.374  0.00  0.00    +0.000 C 
ENDROOT
BRANCH   2  12
ATOM     10  O   UNL     1      36.303 -21.778 -19.014  0.00  0.00    -0.269 OA
ATOM     11  N   UNL     1      34.742 -20.471 -20.078  0.00  0.00    -0.302 N 
ATOM     12  C   UNL     1      35.147 -21.357 -19.081  0.00  0.00    +0.260 C 
ATOM     13  H   UNL     1      33.807 -20.163 -20.089  0.00  0.00    +0.150 HD
BRANCH  11  15
ATOM     14  N   UNL     1      34.793 -17.322 -21.981  0.00  0.00    +0.388 N 
ATOM     15  C   UNL     1      35.650 -19.991 -21.096  0.00  0.00    +0.068 C 
ATOM     16  C   UNL     1      34.921 -19.756 -22.420  0.00  0.00    -0.003 C 
ATOM     17  C   UNL     1      36.352 -18.708 -20.647  0.00  0.00    -0.003 C 
ATOM     18  C   UNL     1      34.026 -18.513 -22.373  0.00  0.00    -0.076 C 
ATOM     19  C   UNL     1      35.410 -17.500 -20.659  0.00  0.00    -0.076 C 
ATOM     20  H   UNL     1      35.540 -17.193 -22.661  0.00  0.00    -0.080 HD
BRANCH  14  21
ATOM     21  C   UNL     1      33.937 -16.136 -21.991  0.00  0.00    -0.058 C 
ATOM     22  C   UNL     1      34.093 -15.387 -20.670  0.00  0.00    -0.023 C 
ATOM     23  C   UNL     1      34.288 -15.239 -23.174  0.00  0.00    -0.023 C 
ENDBRANCH  14  21
ENDBRANCH  11  15
ENDBRANCH   2  12
BRANCH   1  24
ATOM     24  C   UNL     1      35.662 -21.750 -16.141  0.00  0.00    +0.122 C 
BRANCH  24  25
ATOM     25  C   UNL     1      36.093 -23.034 -15.506  0.00  0.00    +0.001 C 
ATOM     26  C   UNL     1      37.352 -23.128 -14.919  0.00  0.00    +0.034 C 
ATOM     27  C   UNL     1      35.232 -24.130 -15.506  0.00  0.00    -0.002 C 
ATOM     28  C   UNL     1      37.754 -24.326 -14.327  0.00  0.00    +0.138 C 
ATOM     29  C   UNL     1      35.635 -25.327 -14.914  0.00  0.00    +0.003 C 
ATOM     30  C   UNL     1      36.896 -25.425 -14.324  0.00  0.00    +0.037 C 
BRANCH  28  31
ATOM     31  O   UNL     1      38.984 -24.422 -13.753  0.00  0.00    -0.471 OA
ATOM     32  C   UNL     1      39.878 -25.396 -14.290  0.00  0.00    +0.252 C 
ENDBRANCH  28  31
ENDBRANCH  24  25
ENDBRANCH   1  24
TORSDOF 6
ENDMDL
MODEL 7
REMARK VINA RESULT:      -7.7      2.117      6.235
REMARK  Name = 6540267
REMARK  6 active torsions:
REMARK  status: ('A' for Active; 'I' for Inactive)
REMARK    1  A    between atoms: N_1  and  C_24
REMARK    2  A    between atoms: C_2  and  C_12
REMARK    3  A    between atoms: N_11  and  C_15
REMARK    4  A    between atoms: N_14  and  C_21
REMARK    5  A    between atoms: C_24  and  C_25
REMARK    6  A    between atoms: C_28  and  O_31
REMARK                            x       y       z     vdW  Elec       q    Type
REMARK                         _______ _______ _______ _____ _____    ______ ____
ROOT
ATOM      1  N   UNL     1      34.983 -22.720 -16.571  0.00  0.00    -0.279 N 
ATOM      2  C   UNL     1      36.210 -22.316 -16.185  0.00  0.00    +0.106 C 
ATOM      3  C   UNL     1      34.631 -22.040 -17.714  0.00  0.00    +0.052 C 
ATOM      4  C   UNL     1      36.692 -21.382 -17.037  0.00  0.00    +0.021 C 
ATOM      5  C   UNL     1      35.692 -21.188 -18.029  0.00  0.00    +0.015 C 
ATOM      6  C   UNL     1      33.465 -22.112 -18.486  0.00  0.00    +0.015 C 
ATOM      7  C   UNL     1      35.587 -20.368 -19.170  0.00  0.00    +0.001 C 
ATOM      8  C   UNL     1      33.383 -21.289 -19.613  0.00  0.00    +0.001 C 
ATOM      9  C   UNL     1      34.427 -20.429 -19.951  0.00  0.00    +0.000 C 
ENDROOT
BRANCH   2  12
ATOM     10  O   UNL     1      36.848 -22.271 -13.904  0.00  0.00    -0.269 OA
ATOM     11  N   UNL     1      37.628 -24.011 -15.186  0.00  0.00    -0.302 N 
ATOM     12  C   UNL     1      36.894 -22.841 -14.996  0.00  0.00    +0.260 C 
ATOM     13  H   UNL     1      37.633 -24.429 -16.078  0.00  0.00    +0.150 HD
BRANCH  11  15
ATOM     14  N   UNL     1      36.713 -24.748 -11.700  0.00  0.00    +0.388 N 
ATOM     15  C   UNL     1      38.380 -24.630 -14.118  0.00  0.00    +0.068 C 
ATOM     16  C   UNL     1      38.563 -23.669 -12.942  0.00  0.00    -0.003 C 
ATOM     17  C   UNL     1      37.703 -25.919 -13.643  0.00  0.00    -0.003 C 
ATOM     18  C   UNL     1      37.264 -23.464 -12.155  0.00  0.00    -0.076 C 
ATOM     19  C   UNL     1      36.433 -25.639 -12.834  0.00  0.00    -0.076 C 
ATOM     20  H   UNL     1      37.413 -25.198 -11.112  0.00  0.00    -0.080 HD
BRANCH  14  21
ATOM     21  C   UNL     1      35.502 -24.532 -10.908  0.00  0.00    -0.058 C 
ATOM     22  C   UNL     1      35.771 -23.461  -9.853  0.00  0.00    -0.023 C 
ATOM     23  C   UNL     1      34.342 -24.130 -11.813  0.00  0.00    -0.023 C 
ENDBRANCH  14  21
ENDBRANCH  11  15
ENDBRANCH   2  12
BRANCH   1  24
ATOM     24  C   UNL     1      34.158 -23.707 -15.905  0.00  0.00    +0.122 C 
BRANCH  24  25
ATOM     25  C   UNL     1      32.859 -23.111 -15.464  0.00  0.00    +0.001 C 
ATOM     26  C   UNL     1      31.794 -23.034 -16.356  0.00  0.00    +0.034 C 
ATOM     27  C   UNL     1      32.722 -22.637 -14.161  0.00  0.00    -0.002 C 
ATOM     28  C   UNL     1      30.581 -22.479 -15.944  0.00  0.00    +0.138 C 
ATOM     29  C   UNL     1      31.511 -22.081 -13.749  0.00  0.00    +0.003 C 
ATOM     30  C   UNL     1      30.440 -22.003 -14.641  0.00  0.00    +0.037 C 
BRANCH  28  31
ATOM     31  O   UNL     1      29.538 -22.401 -16.813  0.00  0.00    -0.471 OA
ATOM     32  C   UNL     1      28.267 -22.850 -16.345  0.00  0.00    +0.252 C 
ENDBRANCH  28  31
ENDBRANCH  24  25
ENDBRANCH   1  24
TORSDOF 6
ENDMDL
MODEL 8
REMARK VINA RESULT:      -7.5      1.711      6.272
REMARK  Name = 6540267
REMARK  6 active torsions:
REMARK  status: ('A' for Active; 'I' for Inactive)
REMARK    1  A    between atoms: N_1  and  C_24
REMARK    2  A    between atoms: C_2  and  C_12
REMARK    3  A    between atoms: N_11  and  C_15
REMARK    4  A    between atoms: N_14  and  C_21
REMARK    5  A    between atoms: C_24  and  C_25
REMARK    6  A    between atoms: C_28  and  O_31
REMARK                            x       y       z     vdW  Elec       q    Type
REMARK                         _______ _______ _______ _____ _____    ______ ____
ROOT
ATOM      1  N   UNL     1      32.324 -22.973 -15.813  0.00  0.00    -0.279 N 
ATOM      2  C   UNL     1      32.736 -22.454 -14.639  0.00  0.00    +0.106 C 
ATOM      3  C   UNL     1      30.951 -23.061 -15.801  0.00  0.00    +0.052 C 
ATOM      4  C   UNL     1      31.679 -22.192 -13.838  0.00  0.00    +0.021 C 
ATOM      5  C   UNL     1      30.518 -22.576 -14.565  0.00  0.00    +0.015 C 
ATOM      6  C   UNL     1      30.066 -23.530 -16.779  0.00  0.00    +0.015 C 
ATOM      7  C   UNL     1      29.136 -22.556 -14.289  0.00  0.00    +0.001 C 
ATOM      8  C   UNL     1      28.700 -23.501 -16.484  0.00  0.00    +0.001 C 
ATOM      9  C   UNL     1      28.240 -23.022 -15.259  0.00  0.00    +0.000 C 
ENDROOT
BRANCH   2  12
ATOM     10  O   UNL     1      34.909 -21.612 -15.070  0.00  0.00    -0.269 OA
ATOM     11  N   UNL     1      34.590 -22.761 -13.106  0.00  0.00    -0.302 N 
ATOM     12  C   UNL     1      34.150 -22.221 -14.314  0.00  0.00    +0.260 C 
ATOM     13  H   UNL     1      33.945 -23.239 -12.536  0.00  0.00    +0.150 HD
BRANCH  11  15
ATOM     14  N   UNL     1      37.443 -25.062 -13.428  0.00  0.00    +0.388 N 
ATOM     15  C   UNL     1      35.961 -22.641 -12.664  0.00  0.00    +0.068 C 
ATOM     16  C   UNL     1      36.317 -23.741 -11.662  0.00  0.00    -0.003 C 
ATOM     17  C   UNL     1      36.928 -22.677 -13.850  0.00  0.00    -0.003 C 
ATOM     18  C   UNL     1      36.461 -25.110 -12.335  0.00  0.00    -0.076 C 
ATOM     19  C   UNL     1      37.052 -24.081 -14.450  0.00  0.00    -0.076 C 
ATOM     20  H   UNL     1      38.336 -24.767 -13.035  0.00  0.00    -0.080 HD
BRANCH  14  21
ATOM     21  C   UNL     1      37.607 -26.387 -14.026  0.00  0.00    -0.058 C 
ATOM     22  C   UNL     1      36.488 -26.630 -15.034  0.00  0.00    -0.023 C 
ATOM     23  C   UNL     1      38.977 -26.502 -14.689  0.00  0.00    -0.023 C 
ENDBRANCH  14  21
ENDBRANCH  11  15
ENDBRANCH   2  12
BRANCH   1  24
ATOM     24  C   UNL     1      33.171 -23.375 -16.916  0.00  0.00    +0.122 C 
BRANCH  24  25
ATOM     25  C   UNL     1      33.296 -22.277 -17.924  0.00  0.00    +0.001 C 
ATOM     26  C   UNL     1      34.555 -21.897 -18.382  0.00  0.00    +0.034 C 
ATOM     27  C   UNL     1      32.153 -21.640 -18.401  0.00  0.00    -0.002 C 
ATOM     28  C   UNL     1      34.672 -20.872 -19.323  0.00  0.00    +0.138 C 
ATOM     29  C   UNL     1      32.270 -20.616 -19.341  0.00  0.00    +0.003 C 
ATOM     30  C   UNL     1      33.530 -20.232 -19.802  0.00  0.00    +0.037 C 
BRANCH  28  31
ATOM     31  O   UNL     1      35.901 -20.498 -19.771  0.00  0.00    -0.471 OA
ATOM     32  C   UNL     1      35.962 -19.344 -20.609  0.00  0.00    +0.252 C 
ENDBRANCH  28  31
ENDBRANCH  24  25
ENDBRANCH   1  24
TORSDOF 6
ENDMDL
MODEL 9
REMARK VINA RESULT:      -7.2      2.891      6.479
REMARK  Name = 6540267
REMARK  6 active torsions:
REMARK  status: ('A' for Active; 'I' for Inactive)
REMARK    1  A    between atoms: N_1  and  C_24
REMARK    2  A    between atoms: C_2  and  C_12
REMARK    3  A    between atoms: N_11  and  C_15
REMARK    4  A    between atoms: N_14  and  C_21
REMARK    5  A    between atoms: C_24  and  C_25
REMARK    6  A    between atoms: C_28  and  O_31
REMARK                            x       y       z     vdW  Elec       q    Type
REMARK                         _______ _______ _______ _____ _____    ______ ____
ROOT
ATOM      1  N   UNL     1      33.797 -23.561 -14.994  0.00  0.00    -0.279 N 
ATOM      2  C   UNL     1      34.380 -22.933 -16.034  0.00  0.00    +0.106 C 
ATOM      3  C   UNL     1      34.540 -23.327 -13.860  0.00  0.00    +0.052 C 
ATOM      4  C   UNL     1      35.496 -22.283 -15.632  0.00  0.00    +0.021 C 
ATOM      5  C   UNL     1      35.620 -22.524 -14.235  0.00  0.00    +0.015 C 
ATOM      6  C   UNL     1      34.344 -23.760 -12.544  0.00  0.00    +0.015 C 
ATOM      7  C   UNL     1      36.549 -22.133 -13.250  0.00  0.00    +0.001 C 
ATOM      8  C   UNL     1      35.277 -23.361 -11.584  0.00  0.00    +0.001 C 
ATOM      9  C   UNL     1      36.364 -22.560 -11.930  0.00  0.00    +0.000 C 
ENDROOT
BRANCH   2  12
ATOM     10  O   UNL     1      33.180 -23.921 -17.821  0.00  0.00    -0.269 OA
ATOM     11  N   UNL     1      34.168 -21.884 -18.210  0.00  0.00    -0.302 N 
ATOM     12  C   UNL     1      33.847 -22.973 -17.402  0.00  0.00    +0.260 C 
ATOM     13  H   UNL     1      34.703 -21.150 -17.829  0.00  0.00    +0.150 HD
BRANCH  11  15
ATOM     14  N   UNL     1      34.791 -19.319 -20.774  0.00  0.00    +0.388 N 
ATOM     15  C   UNL     1      33.740 -21.795 -19.589  0.00  0.00    +0.068 C 
ATOM     16  C   UNL     1      32.871 -20.558 -19.819  0.00  0.00    -0.003 C 
ATOM     17  C   UNL     1      34.941 -21.779 -20.538  0.00  0.00    -0.003 C 
ATOM     18  C   UNL     1      33.692 -19.264 -19.800  0.00  0.00    -0.076 C 
ATOM     19  C   UNL     1      35.693 -20.446 -20.494  0.00  0.00    -0.076 C 
ATOM     20  H   UNL     1      34.385 -19.465 -21.697  0.00  0.00    -0.080 HD
BRANCH  14  21
ATOM     21  C   UNL     1      35.533 -18.059 -20.779  0.00  0.00    -0.058 C 
ATOM     22  C   UNL     1      36.743 -18.186 -21.701  0.00  0.00    -0.023 C 
ATOM     23  C   UNL     1      34.626 -16.913 -21.220  0.00  0.00    -0.023 C 
ENDBRANCH  14  21
ENDBRANCH  11  15
ENDBRANCH   2  12
BRANCH   1  24
ATOM     24  C   UNL     1      32.586 -24.353 -15.042  0.00  0.00    +0.122 C 
BRANCH  24  25
ATOM     25  C   UNL     1      31.374 -23.493 -14.880  0.00  0.00    +0.001 C 
ATOM     26  C   UNL     1      30.582 -23.195 -15.985  0.00  0.00    +0.034 C 
ATOM     27  C   UNL     1      31.042 -22.994 -13.622  0.00  0.00    -0.002 C 
ATOM     28  C   UNL     1      29.451 -22.392 -15.834  0.00  0.00    +0.138 C 
ATOM     29  C   UNL     1      29.912 -22.191 -13.471  0.00  0.00    +0.003 C 
ATOM     30  C   UNL     1      29.116 -21.890 -14.577  0.00  0.00    +0.037 C 
BRANCH  28  31
ATOM     31  O   UNL     1      28.675 -22.097 -16.912  0.00  0.00    -0.471 OA
ATOM     32  C   UNL     1      27.290 -22.427 -16.826  0.00  0.00    +0.252 C 
ENDBRANCH  28  31
ENDBRANCH  24  25
ENDBRANCH   1  24
TORSDOF 6
ENDMDL
