MODEL 1
REMARK VINA RESULT:     -11.3      0.000      0.000
REMARK  Name = 11957417
REMARK  7 active torsions:
REMARK  status: ('A' for Active; 'I' for Inactive)
REMARK    1  A    between atoms: C_2  and  N_6
REMARK    2  A    between atoms: C_3  and  O_24
REMARK    3  A    between atoms: C_5  and  C_21
REMARK    4  A    between atoms: C_13  and  O_15
REMARK    5  A    between atoms: C_14  and  O_17
REMARK    6  A    between atoms: O_24  and  C_25
REMARK    7  A    between atoms: C_25  and  C_28
REMARK                            x       y       z     vdW  Elec       q    Type
REMARK                         _______ _______ _______ _____ _____    ______ ____
ROOT
ATOM      1  S   UNL     1      33.039 -20.508 -20.277  0.00  0.00    -0.065 S 
ATOM      2  C   UNL     1      34.522 -19.880 -20.832  0.00  0.00    +0.083 C 
ATOM      3  C   UNL     1      35.192 -21.180 -19.048  0.00  0.00    +0.151 C 
ATOM      4  C   UNL     1      35.594 -20.308 -20.101  0.00  0.00    +0.059 C 
ATOM      5  C   UNL     1      33.829 -21.374 -19.029  0.00  0.00    +0.118 C 
ENDROOT
BRANCH   2   6
ATOM      6  N   UNL     1      34.503 -19.033 -21.922  0.00  0.00    -0.275 N 
ATOM      7  N   UNL     1      34.542 -18.400 -24.051  0.00  0.00    -0.250 NA
ATOM      8  C   UNL     1      34.397 -17.666 -21.899  0.00  0.00    +0.140 C 
ATOM      9  C   UNL     1      34.423 -17.294 -23.240  0.00  0.00    +0.081 C 
ATOM     10  C   UNL     1      34.285 -16.751 -20.851  0.00  0.00    +0.039 C 
ATOM     11  C   UNL     1      34.586 -19.423 -23.229  0.00  0.00    +0.220 C 
ATOM     12  C   UNL     1      34.333 -15.933 -23.575  0.00  0.00    +0.056 C 
ATOM     13  C   UNL     1      34.196 -15.399 -21.204  0.00  0.00    +0.170 C 
ATOM     14  C   UNL     1      34.220 -14.996 -22.541  0.00  0.00    +0.173 C 
BRANCH  13  15
ATOM     15  O   UNL     1      34.085 -14.469 -20.211  0.00  0.00    -0.469 OA
ATOM     16  C   UNL     1      32.788 -13.925 -19.979  0.00  0.00    +0.253 C 
ENDBRANCH  13  15
BRANCH  14  17
ATOM     17  O   UNL     1      34.132 -13.671 -22.859  0.00  0.00    -0.468 OA
ATOM     18  C   UNL     1      33.010 -13.268 -23.639  0.00  0.00    +0.253 C 
ENDBRANCH  14  17
ENDBRANCH   2   6
BRANCH   5  21
ATOM     19  O   UNL     1      33.422 -23.248 -17.624  0.00  0.00    -0.270 OA
ATOM     20  N   UNL     1      31.745 -21.733 -17.836  0.00  0.00    -0.325 N 
ATOM     21  C   UNL     1      33.042 -22.169 -18.140  0.00  0.00    +0.252 C 
ATOM     22  H   UNL     1      31.179 -22.260 -17.228  0.00  0.00    +0.145 HD
ATOM     23  H   UNL     1      31.401 -20.900 -18.231  0.00  0.00    +0.145 HD
ENDBRANCH   5  21
BRANCH   3  24
ATOM     24  O   UNL     1      36.025 -21.760 -18.165  0.00  0.00    -0.474 OA
BRANCH  24  25
ATOM     25  C   UNL     1      36.140 -21.162 -16.867  0.00  0.00    +0.189 C 
ATOM     26  C   UNL     1      37.112 -19.990 -16.931  0.00  0.00    +0.052 C 
BRANCH  25  28
ATOM     27 CL   UNL     1      34.059 -22.196 -14.839  0.00  0.00    -0.082 Cl
ATOM     28  C   UNL     1      36.581 -22.211 -15.873  0.00  0.00    +0.028 C 
ATOM     29  C   UNL     1      35.700 -22.722 -14.931  0.00  0.00    +0.057 C 
ATOM     30  C   UNL     1      37.898 -22.644 -15.931  0.00  0.00    +0.000 C 
ATOM     31  C   UNL     1      36.145 -23.688 -14.029  0.00  0.00    +0.011 C 
ATOM     32  C   UNL     1      38.344 -23.610 -15.029  0.00  0.00    -0.000 C 
ATOM     33  C   UNL     1      37.466 -24.132 -14.078  0.00  0.00    +0.001 C 
ENDBRANCH  25  28
ENDBRANCH  24  25
ENDBRANCH   3  24
TORSDOF 7
ENDMDL
MODEL 2
REMARK VINA RESULT:     -10.4      7.004     12.670
REMARK  Name = 11957417
REMARK  7 active torsions:
REMARK  status: ('A' for Active; 'I' for Inactive)
REMARK    1  A    between atoms: C_2  and  N_6
REMARK    2  A    between atoms: C_3  and  O_24
REMARK    3  A    between atoms: C_5  and  C_21
REMARK    4  A    between atoms: C_13  and  O_15
REMARK    5  A    between atoms: C_14  and  O_17
REMARK    6  A    between atoms: O_24  and  C_25
REMARK    7  A    between atoms: C_25  and  C_28
REMARK                            x       y       z     vdW  Elec       q    Type
REMARK                         _______ _______ _______ _____ _____    ______ ____
ROOT
ATOM      1  S   UNL     1      31.675 -11.461 -22.179  0.00  0.00    -0.065 S 
ATOM      2  C   UNL     1      32.737 -11.445 -23.511  0.00  0.00    +0.083 C 
ATOM      3  C   UNL     1      32.856  -9.260 -22.780  0.00  0.00    +0.151 C 
ATOM      4  C   UNL     1      33.304 -10.221 -23.732  0.00  0.00    +0.059 C 
ATOM      5  C   UNL     1      31.967  -9.801 -21.878  0.00  0.00    +0.118 C 
ENDROOT
BRANCH   2   6
ATOM      6  N   UNL     1      32.916 -12.620 -24.213  0.00  0.00    -0.275 N 
ATOM      7  N   UNL     1      32.923 -14.018 -25.940  0.00  0.00    -0.250 NA
ATOM      8  C   UNL     1      33.379 -13.811 -23.717  0.00  0.00    +0.140 C 
ATOM      9  C   UNL     1      33.375 -14.668 -24.815  0.00  0.00    +0.081 C 
ATOM     10  C   UNL     1      33.788 -14.202 -22.442  0.00  0.00    +0.039 C 
ATOM     11  C   UNL     1      32.658 -12.794 -25.544  0.00  0.00    +0.220 C 
ATOM     12  C   UNL     1      33.800 -15.996 -24.648  0.00  0.00    +0.056 C 
ATOM     13  C   UNL     1      34.210 -15.528 -22.295  0.00  0.00    +0.170 C 
ATOM     14  C   UNL     1      34.217 -16.411 -23.377  0.00  0.00    +0.173 C 
BRANCH  13  15
ATOM     15  O   UNL     1      34.619 -15.952 -21.063  0.00  0.00    -0.469 OA
ATOM     16  C   UNL     1      34.001 -15.344 -19.932  0.00  0.00    +0.253 C 
ENDBRANCH  13  15
BRANCH  14  17
ATOM     17  O   UNL     1      34.631 -17.700 -23.207  0.00  0.00    -0.468 OA
ATOM     18  C   UNL     1      33.738 -18.726 -23.631  0.00  0.00    +0.253 C 
ENDBRANCH  14  17
ENDBRANCH   2   6
BRANCH   5  21
ATOM     19  O   UNL     1      30.251  -9.607 -20.244  0.00  0.00    -0.270 OA
ATOM     20  N   UNL     1      31.830  -7.977 -20.282  0.00  0.00    -0.325 N 
ATOM     21  C   UNL     1      31.299  -9.174 -20.783  0.00  0.00    +0.252 C 
ATOM     22  H   UNL     1      31.391  -7.521 -19.528  0.00  0.00    +0.145 HD
ATOM     23  H   UNL     1      32.642  -7.593 -20.684  0.00  0.00    +0.145 HD
ENDBRANCH   5  21
BRANCH   3  24
ATOM     24  O   UNL     1      33.242  -7.972 -22.743  0.00  0.00    -0.474 OA
BRANCH  24  25
ATOM     25  C   UNL     1      32.734  -7.096 -23.758  0.00  0.00    +0.189 C 
ATOM     26  C   UNL     1      33.896  -6.512 -24.554  0.00  0.00    +0.052 C 
BRANCH  25  28
ATOM     27 CL   UNL     1      29.697  -7.582 -23.530  0.00  0.00    -0.082 Cl
ATOM     28  C   UNL     1      31.892  -6.021 -23.112  0.00  0.00    +0.028 C 
ATOM     29  C   UNL     1      30.519  -6.170 -22.976  0.00  0.00    +0.057 C 
ATOM     30  C   UNL     1      32.537  -4.877 -22.662  0.00  0.00    +0.000 C 
ATOM     31  C   UNL     1      29.776  -5.154 -22.375  0.00  0.00    +0.011 C 
ATOM     32  C   UNL     1      31.793  -3.861 -22.062  0.00  0.00    -0.000 C 
ATOM     33  C   UNL     1      30.412  -4.000 -21.919  0.00  0.00    +0.001 C 
ENDBRANCH  25  28
ENDBRANCH  24  25
ENDBRANCH   3  24
TORSDOF 7
ENDMDL
MODEL 3
REMARK VINA RESULT:     -10.0      7.075     12.773
REMARK  Name = 11957417
REMARK  7 active torsions:
REMARK  status: ('A' for Active; 'I' for Inactive)
REMARK    1  A    between atoms: C_2  and  N_6
REMARK    2  A    between atoms: C_3  and  O_24
REMARK    3  A    between atoms: C_5  and  C_21
REMARK    4  A    between atoms: C_13  and  O_15
REMARK    5  A    between atoms: C_14  and  O_17
REMARK    6  A    between atoms: O_24  and  C_25
REMARK    7  A    between atoms: C_25  and  C_28
REMARK                            x       y       z     vdW  Elec       q    Type
REMARK                         _______ _______ _______ _____ _____    ______ ____
ROOT
ATOM      1  S   UNL     1      31.837 -11.618 -21.945  0.00  0.00    -0.065 S 
ATOM      2  C   UNL     1      32.465 -11.485 -23.523  0.00  0.00    +0.083 C 
ATOM      3  C   UNL     1      32.173  -9.273 -22.938  0.00  0.00    +0.151 C 
ATOM      4  C   UNL     1      32.599 -10.191 -23.941  0.00  0.00    +0.059 C 
ATOM      5  C   UNL     1      31.734  -9.915 -21.801  0.00  0.00    +0.118 C 
ENDROOT
BRANCH   2   6
ATOM      6  N   UNL     1      32.766 -12.648 -24.203  0.00  0.00    -0.275 N 
ATOM      7  N   UNL     1      32.959 -14.056 -25.911  0.00  0.00    -0.250 NA
ATOM      8  C   UNL     1      33.298 -13.795 -23.673  0.00  0.00    +0.140 C 
ATOM      9  C   UNL     1      33.409 -14.659 -24.759  0.00  0.00    +0.081 C 
ATOM     10  C   UNL     1      33.680 -14.142 -22.376  0.00  0.00    +0.039 C 
ATOM     11  C   UNL     1      32.582 -12.853 -25.541  0.00  0.00    +0.220 C 
ATOM     12  C   UNL     1      33.930 -15.949 -24.558  0.00  0.00    +0.056 C 
ATOM     13  C   UNL     1      34.196 -15.430 -22.195  0.00  0.00    +0.170 C 
ATOM     14  C   UNL     1      34.320 -16.319 -23.265  0.00  0.00    +0.173 C 
BRANCH  13  15
ATOM     15  O   UNL     1      34.582 -15.810 -20.942  0.00  0.00    -0.469 OA
ATOM     16  C   UNL     1      33.898 -15.210 -19.845  0.00  0.00    +0.253 C 
ENDBRANCH  13  15
BRANCH  14  17
ATOM     17  O   UNL     1      34.826 -17.569 -23.062  0.00  0.00    -0.468 OA
ATOM     18  C   UNL     1      33.927 -18.663 -23.224  0.00  0.00    +0.253 C 
ENDBRANCH  14  17
ENDBRANCH   2   6
BRANCH   5  21
ATOM     19  O   UNL     1      30.802 -10.029 -19.618  0.00  0.00    -0.270 OA
ATOM     20  N   UNL     1      31.194  -7.961 -20.466  0.00  0.00    -0.325 N 
ATOM     21  C   UNL     1      31.233  -9.357 -20.586  0.00  0.00    +0.252 C 
ATOM     22  H   UNL     1      30.853  -7.547 -19.641  0.00  0.00    +0.145 HD
ATOM     23  H   UNL     1      31.508  -7.395 -21.207  0.00  0.00    +0.145 HD
ENDBRANCH   5  21
BRANCH   3  24
ATOM     24  O   UNL     1      32.189  -7.933 -23.061  0.00  0.00    -0.474 OA
BRANCH  24  25
ATOM     25  C   UNL     1      33.446  -7.306 -23.348  0.00  0.00    +0.189 C 
ATOM     26  C   UNL     1      33.886  -6.476 -22.148  0.00  0.00    +0.052 C 
BRANCH  25  28
ATOM     27 CL   UNL     1      30.685  -6.087 -23.979  0.00  0.00    -0.082 Cl
ATOM     28  C   UNL     1      33.311  -6.470 -24.598  0.00  0.00    +0.028 C 
ATOM     29  C   UNL     1      32.100  -5.890 -24.947  0.00  0.00    +0.057 C 
ATOM     30  C   UNL     1      34.440  -6.302 -25.389  0.00  0.00    +0.000 C 
ATOM     31  C   UNL     1      32.015  -5.125 -26.110  0.00  0.00    +0.011 C 
ATOM     32  C   UNL     1      34.355  -5.538 -26.553  0.00  0.00    -0.000 C 
ATOM     33  C   UNL     1      33.142  -4.949 -26.913  0.00  0.00    +0.001 C 
ENDBRANCH  25  28
ENDBRANCH  24  25
ENDBRANCH   3  24
TORSDOF 7
ENDMDL
MODEL 4
REMARK VINA RESULT:      -9.8      2.040      2.938
REMARK  Name = 11957417
REMARK  7 active torsions:
REMARK  status: ('A' for Active; 'I' for Inactive)
REMARK    1  A    between atoms: C_2  and  N_6
REMARK    2  A    between atoms: C_3  and  O_24
REMARK    3  A    between atoms: C_5  and  C_21
REMARK    4  A    between atoms: C_13  and  O_15
REMARK    5  A    between atoms: C_14  and  O_17
REMARK    6  A    between atoms: O_24  and  C_25
REMARK    7  A    between atoms: C_25  and  C_28
REMARK                            x       y       z     vdW  Elec       q    Type
REMARK                         _______ _______ _______ _____ _____    ______ ____
ROOT
ATOM      1  S   UNL     1      36.087 -19.425 -19.871  0.00  0.00    -0.065 S 
ATOM      2  C   UNL     1      34.780 -19.795 -20.899  0.00  0.00    +0.083 C 
ATOM      3  C   UNL     1      34.571 -21.408 -19.262  0.00  0.00    +0.151 C 
ATOM      4  C   UNL     1      34.047 -20.867 -20.472  0.00  0.00    +0.059 C 
ATOM      5  C   UNL     1      35.681 -20.718 -18.825  0.00  0.00    +0.118 C 
ENDROOT
BRANCH   2   6
ATOM      6  N   UNL     1      34.592 -19.011 -22.019  0.00  0.00    -0.275 N 
ATOM      7  N   UNL     1      34.342 -18.496 -24.166  0.00  0.00    -0.250 NA
ATOM      8  C   UNL     1      34.437 -17.649 -22.053  0.00  0.00    +0.140 C 
ATOM      9  C   UNL     1      34.282 -17.352 -23.404  0.00  0.00    +0.081 C 
ATOM     10  C   UNL     1      34.420 -16.681 -21.048  0.00  0.00    +0.039 C 
ATOM     11  C   UNL     1      34.528 -19.470 -23.305  0.00  0.00    +0.220 C 
ATOM     12  C   UNL     1      34.098 -16.015 -23.794  0.00  0.00    +0.056 C 
ATOM     13  C   UNL     1      34.235 -15.355 -21.455  0.00  0.00    +0.170 C 
ATOM     14  C   UNL     1      34.077 -15.026 -22.803  0.00  0.00    +0.173 C 
BRANCH  13  15
ATOM     15  O   UNL     1      34.212 -14.375 -20.505  0.00  0.00    -0.469 OA
ATOM     16  C   UNL     1      32.947 -13.783 -20.218  0.00  0.00    +0.253 C 
ENDBRANCH  13  15
BRANCH  14  17
ATOM     17  O   UNL     1      33.899 -13.725 -23.174  0.00  0.00    -0.468 OA
ATOM     18  C   UNL     1      32.758 -13.433 -23.977  0.00  0.00    +0.253 C 
ENDBRANCH  14  17
ENDBRANCH   2   6
BRANCH   5  21
ATOM     19  O   UNL     1      36.704 -22.070 -17.160  0.00  0.00    -0.270 OA
ATOM     20  N   UNL     1      37.055 -19.832 -17.032  0.00  0.00    -0.325 N 
ATOM     21  C   UNL     1      36.485 -20.944 -17.667  0.00  0.00    +0.252 C 
ATOM     22  H   UNL     1      37.614 -19.956 -16.230  0.00  0.00    +0.145 HD
ATOM     23  H   UNL     1      36.897 -18.928 -17.386  0.00  0.00    +0.145 HD
ENDBRANCH   5  21
BRANCH   3  24
ATOM     24  O   UNL     1      34.061 -22.464 -18.604  0.00  0.00    -0.474 OA
BRANCH  24  25
ATOM     25  C   UNL     1      32.698 -22.379 -18.165  0.00  0.00    +0.189 C 
ATOM     26  C   UNL     1      32.133 -21.009 -18.524  0.00  0.00    +0.052 C 
BRANCH  25  28
ATOM     27 CL   UNL     1      29.931 -22.335 -16.805  0.00  0.00    -0.082 Cl
ATOM     28  C   UNL     1      32.635 -22.648 -16.680  0.00  0.00    +0.028 C 
ATOM     29  C   UNL     1      31.426 -22.643 -16.001  0.00  0.00    +0.057 C 
ATOM     30  C   UNL     1      33.829 -22.896 -16.017  0.00  0.00    +0.000 C 
ATOM     31  C   UNL     1      31.409 -22.894 -14.629  0.00  0.00    +0.011 C 
ATOM     32  C   UNL     1      33.812 -23.147 -14.645  0.00  0.00    -0.000 C 
ATOM     33  C   UNL     1      32.601 -23.146 -13.951  0.00  0.00    +0.001 C 
ENDBRANCH  25  28
ENDBRANCH  24  25
ENDBRANCH   3  24
TORSDOF 7
ENDMDL
MODEL 5
REMARK VINA RESULT:      -9.6      4.772      9.121
REMARK  Name = 11957417
REMARK  7 active torsions:
REMARK  status: ('A' for Active; 'I' for Inactive)
REMARK    1  A    between atoms: C_2  and  N_6
REMARK    2  A    between atoms: C_3  and  O_24
REMARK    3  A    between atoms: C_5  and  C_21
REMARK    4  A    between atoms: C_13  and  O_15
REMARK    5  A    between atoms: C_14  and  O_17
REMARK    6  A    between atoms: O_24  and  C_25
REMARK    7  A    between atoms: C_25  and  C_28
REMARK                            x       y       z     vdW  Elec       q    Type
REMARK                         _______ _______ _______ _____ _____    ______ ____
ROOT
ATOM      1  S   UNL     1      31.081 -23.443 -14.334  0.00  0.00    -0.065 S 
ATOM      2  C   UNL     1      32.748 -23.209 -14.598  0.00  0.00    +0.083 C 
ATOM      3  C   UNL     1      31.833 -22.366 -16.541  0.00  0.00    +0.151 C 
ATOM      4  C   UNL     1      33.024 -22.628 -15.804  0.00  0.00    +0.059 C 
ATOM      5  C   UNL     1      30.704 -22.760 -15.858  0.00  0.00    +0.118 C 
ENDROOT
BRANCH   2   6
ATOM      6  N   UNL     1      33.625 -23.611 -13.611  0.00  0.00    -0.275 N 
ATOM      7  N   UNL     1      34.316 -24.391 -11.649  0.00  0.00    -0.250 NA
ATOM      8  C   UNL     1      34.994 -23.610 -13.679  0.00  0.00    +0.140 C 
ATOM      9  C   UNL     1      35.402 -24.102 -12.442  0.00  0.00    +0.081 C 
ATOM     10  C   UNL     1      35.885 -23.232 -14.685  0.00  0.00    +0.039 C 
ATOM     11  C   UNL     1      33.268 -24.086 -12.381  0.00  0.00    +0.220 C 
ATOM     12  C   UNL     1      36.775 -24.231 -12.175  0.00  0.00    +0.056 C 
ATOM     13  C   UNL     1      37.248 -23.368 -14.402  0.00  0.00    +0.170 C 
ATOM     14  C   UNL     1      37.688 -23.858 -13.170  0.00  0.00    +0.173 C 
BRANCH  13  15
ATOM     15  O   UNL     1      38.155 -23.010 -15.358  0.00  0.00    -0.469 OA
ATOM     16  C   UNL     1      37.778 -21.958 -16.243  0.00  0.00    +0.253 C 
ENDBRANCH  13  15
BRANCH  14  17
ATOM     17  O   UNL     1      39.024 -23.981 -12.919  0.00  0.00    -0.468 OA
ATOM     18  C   UNL     1      39.712 -25.036 -13.585  0.00  0.00    +0.253 C 
ENDBRANCH  14  17
ENDBRANCH   2   6
BRANCH   5  21
ATOM     19  O   UNL     1      28.797 -21.642 -16.731  0.00  0.00    -0.270 OA
ATOM     20  N   UNL     1      28.518 -23.794 -16.067  0.00  0.00    -0.325 N 
ATOM     21  C   UNL     1      29.334 -22.669 -16.250  0.00  0.00    +0.252 C 
ATOM     22  H   UNL     1      27.569 -23.762 -16.327  0.00  0.00    +0.145 HD
ATOM     23  H   UNL     1      28.894 -24.617 -15.679  0.00  0.00    +0.145 HD
ENDBRANCH   5  21
BRANCH   3  24
ATOM     24  O   UNL     1      31.789 -21.799 -17.760  0.00  0.00    -0.474 OA
BRANCH  24  25
ATOM     25  C   UNL     1      32.570 -22.400 -18.802  0.00  0.00    +0.189 C 
ATOM     26  C   UNL     1      33.184 -23.698 -18.292  0.00  0.00    +0.052 C 
BRANCH  25  28
ATOM     27 CL   UNL     1      31.683 -20.108 -20.666  0.00  0.00    -0.082 Cl
ATOM     28  C   UNL     1      33.620 -21.419 -19.267  0.00  0.00    +0.028 C 
ATOM     29  C   UNL     1      33.295 -20.363 -20.107  0.00  0.00    +0.057 C 
ATOM     30  C   UNL     1      34.923 -21.610 -18.828  0.00  0.00    +0.000 C 
ATOM     31  C   UNL     1      34.294 -19.480 -20.515  0.00  0.00    +0.011 C 
ATOM     32  C   UNL     1      35.922 -20.726 -19.237  0.00  0.00    -0.000 C 
ATOM     33  C   UNL     1      35.606 -19.661 -20.081  0.00  0.00    +0.001 C 
ENDBRANCH  25  28
ENDBRANCH  24  25
ENDBRANCH   3  24
TORSDOF 7
ENDMDL
MODEL 6
REMARK VINA RESULT:      -9.4      4.223      8.749
REMARK  Name = 11957417
REMARK  7 active torsions:
REMARK  status: ('A' for Active; 'I' for Inactive)
REMARK    1  A    between atoms: C_2  and  N_6
REMARK    2  A    between atoms: C_3  and  O_24
REMARK    3  A    between atoms: C_5  and  C_21
REMARK    4  A    between atoms: C_13  and  O_15
REMARK    5  A    between atoms: C_14  and  O_17
REMARK    6  A    between atoms: O_24  and  C_25
REMARK    7  A    between atoms: C_25  and  C_28
REMARK                            x       y       z     vdW  Elec       q    Type
REMARK                         _______ _______ _______ _____ _____    ______ ____
ROOT
ATOM      1  S   UNL     1      34.680 -22.915 -14.338  0.00  0.00    -0.065 S 
ATOM      2  C   UNL     1      33.235 -23.059 -15.230  0.00  0.00    +0.083 C 
ATOM      3  C   UNL     1      34.711 -22.292 -16.830  0.00  0.00    +0.151 C 
ATOM      4  C   UNL     1      33.376 -22.700 -16.541  0.00  0.00    +0.059 C 
ATOM      5  C   UNL     1      35.524 -22.361 -15.721  0.00  0.00    +0.118 C 
ENDROOT
BRANCH   2   6
ATOM      6  N   UNL     1      32.107 -23.504 -14.572  0.00  0.00    -0.275 N 
ATOM      7  N   UNL     1      30.880 -24.548 -13.042  0.00  0.00    -0.250 NA
ATOM      8  C   UNL     1      30.803 -23.258 -14.919  0.00  0.00    +0.140 C 
ATOM      9  C   UNL     1      30.056 -23.919 -13.948  0.00  0.00    +0.081 C 
ATOM     10  C   UNL     1      30.230 -22.535 -15.966  0.00  0.00    +0.039 C 
ATOM     11  C   UNL     1      32.100 -24.277 -13.446  0.00  0.00    +0.220 C 
ATOM     12  C   UNL     1      28.654 -23.869 -14.010  0.00  0.00    +0.056 C 
ATOM     13  C   UNL     1      28.832 -22.495 -16.012  0.00  0.00    +0.170 C 
ATOM     14  C   UNL     1      28.056 -23.149 -15.052  0.00  0.00    +0.173 C 
BRANCH  13  15
ATOM     15  O   UNL     1      28.229 -21.800 -17.020  0.00  0.00    -0.469 OA
ATOM     16  C   UNL     1      27.201 -22.472 -17.743  0.00  0.00    +0.253 C 
ENDBRANCH  13  15
BRANCH  14  17
ATOM     17  O   UNL     1      26.694 -23.096 -15.119  0.00  0.00    -0.468 OA
ATOM     18  C   UNL     1      26.088 -21.823 -14.911  0.00  0.00    +0.253 C 
ENDBRANCH  14  17
ENDBRANCH   2   6
BRANCH   5  21
ATOM     19  O   UNL     1      37.762 -22.771 -15.031  0.00  0.00    -0.270 OA
ATOM     20  N   UNL     1      37.358 -20.822 -16.121  0.00  0.00    -0.325 N 
ATOM     21  C   UNL     1      36.911 -22.043 -15.597  0.00  0.00    +0.252 C 
ATOM     22  H   UNL     1      38.308 -20.574 -16.050  0.00  0.00    +0.145 HD
ATOM     23  H   UNL     1      36.722 -20.213 -16.560  0.00  0.00    +0.145 HD
ENDBRANCH   5  21
BRANCH   3  24
ATOM     24  O   UNL     1      35.150 -21.887 -18.035  0.00  0.00    -0.474 OA
BRANCH  24  25
ATOM     25  C   UNL     1      34.170 -21.616 -19.045  0.00  0.00    +0.189 C 
ATOM     26  C   UNL     1      33.966 -22.861 -19.901  0.00  0.00    +0.052 C 
BRANCH  25  28
ATOM     27 CL   UNL     1      32.016 -20.045 -20.595  0.00  0.00    -0.082 Cl
ATOM     28  C   UNL     1      34.614 -20.429 -19.866  0.00  0.00    +0.028 C 
ATOM     29  C   UNL     1      33.702 -19.675 -20.590  0.00  0.00    +0.057 C 
ATOM     30  C   UNL     1      35.967 -20.119 -19.874  0.00  0.00    +0.000 C 
ATOM     31  C   UNL     1      34.152 -18.587 -21.338  0.00  0.00    +0.011 C 
ATOM     32  C   UNL     1      36.417 -19.030 -20.622  0.00  0.00    -0.000 C 
ATOM     33  C   UNL     1      35.508 -18.265 -21.354  0.00  0.00    +0.001 C 
ENDBRANCH  25  28
ENDBRANCH  24  25
ENDBRANCH   3  24
TORSDOF 7
ENDMDL
MODEL 7
REMARK VINA RESULT:      -9.0      8.223     14.351
REMARK  Name = 11957417
REMARK  7 active torsions:
REMARK  status: ('A' for Active; 'I' for Inactive)
REMARK    1  A    between atoms: C_2  and  N_6
REMARK    2  A    between atoms: C_3  and  O_24
REMARK    3  A    between atoms: C_5  and  C_21
REMARK    4  A    between atoms: C_13  and  O_15
REMARK    5  A    between atoms: C_14  and  O_17
REMARK    6  A    between atoms: O_24  and  C_25
REMARK    7  A    between atoms: C_25  and  C_28
REMARK                            x       y       z     vdW  Elec       q    Type
REMARK                         _______ _______ _______ _____ _____    ______ ____
ROOT
ATOM      1  S   UNL     1      31.402  -7.850 -20.258  0.00  0.00    -0.065 S 
ATOM      2  C   UNL     1      31.387  -8.978 -21.534  0.00  0.00    +0.083 C 
ATOM      3  C   UNL     1      30.882  -7.012 -22.629  0.00  0.00    +0.151 C 
ATOM      4  C   UNL     1      31.099  -8.415 -22.746  0.00  0.00    +0.059 C 
ATOM      5  C   UNL     1      31.016  -6.573 -21.331  0.00  0.00    +0.118 C 
ENDROOT
BRANCH   2   6
ATOM      6  N   UNL     1      31.654 -10.299 -21.237  0.00  0.00    -0.275 N 
ATOM      7  N   UNL     1      31.791 -12.164 -20.037  0.00  0.00    -0.250 NA
ATOM      8  C   UNL     1      32.172 -11.244 -22.086  0.00  0.00    +0.140 C 
ATOM      9  C   UNL     1      32.247 -12.399 -21.313  0.00  0.00    +0.081 C 
ATOM     10  C   UNL     1      32.569 -11.188 -23.423  0.00  0.00    +0.039 C 
ATOM     11  C   UNL     1      31.444 -10.897 -20.027  0.00  0.00    +0.220 C 
ATOM     12  C   UNL     1      32.746 -13.579 -21.891  0.00  0.00    +0.056 C 
ATOM     13  C   UNL     1      33.063 -12.373 -23.982  0.00  0.00    +0.170 C 
ATOM     14  C   UNL     1      33.150 -13.547 -23.232  0.00  0.00    +0.173 C 
BRANCH  13  15
ATOM     15  O   UNL     1      33.462 -12.363 -25.287  0.00  0.00    -0.469 OA
ATOM     16  C   UNL     1      32.506 -12.780 -26.258  0.00  0.00    +0.253 C 
ENDBRANCH  13  15
BRANCH  14  17
ATOM     17  O   UNL     1      33.636 -14.689 -23.800  0.00  0.00    -0.468 OA
ATOM     18  C   UNL     1      34.358 -15.576 -22.951  0.00  0.00    +0.253 C 
ENDBRANCH  14  17
ENDBRANCH   2   6
BRANCH   5  21
ATOM     19  O   UNL     1      29.817  -4.585 -20.823  0.00  0.00    -0.270 OA
ATOM     20  N   UNL     1      32.012  -4.641 -20.249  0.00  0.00    -0.325 N 
ATOM     21  C   UNL     1      30.879  -5.252 -20.805  0.00  0.00    +0.252 C 
ATOM     22  H   UNL     1      31.948  -3.731 -19.880  0.00  0.00    +0.145 HD
ATOM     23  H   UNL     1      32.870  -5.123 -20.228  0.00  0.00    +0.145 HD
ENDBRANCH   5  21
BRANCH   3  24
ATOM     24  O   UNL     1      30.583  -6.189 -23.651  0.00  0.00    -0.474 OA
BRANCH  24  25
ATOM     25  C   UNL     1      31.397  -5.023 -23.827  0.00  0.00    +0.189 C 
ATOM     26  C   UNL     1      30.509  -3.828 -24.158  0.00  0.00    +0.052 C 
BRANCH  25  28
ATOM     27 CL   UNL     1      34.191  -6.004 -22.966  0.00  0.00    -0.082 Cl
ATOM     28  C   UNL     1      32.419  -5.287 -24.908  0.00  0.00    +0.028 C 
ATOM     29  C   UNL     1      33.696  -5.729 -24.596  0.00  0.00    +0.057 C 
ATOM     30  C   UNL     1      32.038  -5.070 -26.225  0.00  0.00    +0.000 C 
ATOM     31  C   UNL     1      34.612  -5.960 -25.623  0.00  0.00    +0.011 C 
ATOM     32  C   UNL     1      32.953  -5.301 -27.252  0.00  0.00    -0.000 C 
ATOM     33  C   UNL     1      34.241  -5.746 -26.950  0.00  0.00    +0.001 C 
ENDBRANCH  25  28
ENDBRANCH  24  25
ENDBRANCH   3  24
TORSDOF 7
ENDMDL
MODEL 8
REMARK VINA RESULT:      -8.8      3.767      9.799
REMARK  Name = 11957417
REMARK  7 active torsions:
REMARK  status: ('A' for Active; 'I' for Inactive)
REMARK    1  A    between atoms: C_2  and  N_6
REMARK    2  A    between atoms: C_3  and  O_24
REMARK    3  A    between atoms: C_5  and  C_21
REMARK    4  A    between atoms: C_13  and  O_15
REMARK    5  A    between atoms: C_14  and  O_17
REMARK    6  A    between atoms: O_24  and  C_25
REMARK    7  A    between atoms: C_25  and  C_28
REMARK                            x       y       z     vdW  Elec       q    Type
REMARK                         _______ _______ _______ _____ _____    ______ ____
ROOT
ATOM      1  S   UNL     1      34.434 -16.427 -23.955  0.00  0.00    -0.065 S 
ATOM      2  C   UNL     1      34.515 -16.459 -22.254  0.00  0.00    +0.083 C 
ATOM      3  C   UNL     1      33.184 -14.613 -22.634  0.00  0.00    +0.151 C 
ATOM      4  C   UNL     1      33.811 -15.447 -21.664  0.00  0.00    +0.059 C 
ATOM      5  C   UNL     1      33.440 -15.033 -23.921  0.00  0.00    +0.118 C 
ENDROOT
BRANCH   2   6
ATOM      6  N   UNL     1      35.252 -17.461 -21.657  0.00  0.00    -0.275 N 
ATOM      7  N   UNL     1      37.041 -18.573 -20.950  0.00  0.00    -0.250 NA
ATOM      8  C   UNL     1      34.765 -18.588 -21.046  0.00  0.00    +0.140 C 
ATOM      9  C   UNL     1      35.901 -19.265 -20.612  0.00  0.00    +0.081 C 
ATOM     10  C   UNL     1      33.467 -19.059 -20.842  0.00  0.00    +0.039 C 
ATOM     11  C   UNL     1      36.616 -17.498 -21.574  0.00  0.00    +0.220 C 
ATOM     12  C   UNL     1      35.753 -20.486 -19.933  0.00  0.00    +0.056 C 
ATOM     13  C   UNL     1      33.339 -20.276 -20.164  0.00  0.00    +0.170 C 
ATOM     14  C   UNL     1      34.460 -20.978 -19.716  0.00  0.00    +0.173 C 
BRANCH  13  15
ATOM     15  O   UNL     1      32.087 -20.773 -19.942  0.00  0.00    -0.469 OA
ATOM     16  C   UNL     1      31.695 -20.955 -18.584  0.00  0.00    +0.253 C 
ENDBRANCH  13  15
BRANCH  14  17
ATOM     17  O   UNL     1      34.308 -22.164 -19.058  0.00  0.00    -0.468 OA
ATOM     18  C   UNL     1      34.658 -22.184 -17.676  0.00  0.00    +0.253 C 
ENDBRANCH  14  17
ENDBRANCH   2   6
BRANCH   5  21
ATOM     19  O   UNL     1      33.299 -14.922 -26.291  0.00  0.00    -0.270 OA
ATOM     20  N   UNL     1      32.189 -13.330 -25.114  0.00  0.00    -0.325 N 
ATOM     21  C   UNL     1      32.998 -14.474 -25.158  0.00  0.00    +0.252 C 
ATOM     22  H   UNL     1      31.870 -12.921 -25.951  0.00  0.00    +0.145 HD
ATOM     23  H   UNL     1      31.941 -12.935 -24.248  0.00  0.00    +0.145 HD
ENDBRANCH   5  21
BRANCH   3  24
ATOM     24  O   UNL     1      32.424 -13.539 -22.354  0.00  0.00    -0.474 OA
BRANCH  24  25
ATOM     25  C   UNL     1      32.693 -12.834 -21.135  0.00  0.00    +0.189 C 
ATOM     26  C   UNL     1      32.099 -13.604 -19.961  0.00  0.00    +0.052 C 
BRANCH  25  28
ATOM     27 CL   UNL     1      33.522 -11.120 -23.561  0.00  0.00    -0.082 Cl
ATOM     28  C   UNL     1      32.134 -11.434 -21.236  0.00  0.00    +0.028 C 
ATOM     29  C   UNL     1      32.464 -10.605 -22.299  0.00  0.00    +0.057 C 
ATOM     30  C   UNL     1      31.283 -11.003 -20.228  0.00  0.00    +0.000 C 
ATOM     31  C   UNL     1      31.929  -9.318 -22.356  0.00  0.00    +0.011 C 
ATOM     32  C   UNL     1      30.748  -9.716 -20.285  0.00  0.00    -0.000 C 
ATOM     33  C   UNL     1      31.072  -8.874 -21.350  0.00  0.00    +0.001 C 
ENDBRANCH  25  28
ENDBRANCH  24  25
ENDBRANCH   3  24
TORSDOF 7
ENDMDL
MODEL 9
REMARK VINA RESULT:      -8.7      8.925     13.112
REMARK  Name = 11957417
REMARK  7 active torsions:
REMARK  status: ('A' for Active; 'I' for Inactive)
REMARK    1  A    between atoms: C_2  and  N_6
REMARK    2  A    between atoms: C_3  and  O_24
REMARK    3  A    between atoms: C_5  and  C_21
REMARK    4  A    between atoms: C_13  and  O_15
REMARK    5  A    between atoms: C_14  and  O_17
REMARK    6  A    between atoms: O_24  and  C_25
REMARK    7  A    between atoms: C_25  and  C_28
REMARK                            x       y       z     vdW  Elec       q    Type
REMARK                         _______ _______ _______ _____ _____    ______ ____
ROOT
ATOM      1  S   UNL     1      31.111  -7.206 -20.688  0.00  0.00    -0.065 S 
ATOM      2  C   UNL     1      31.051  -6.954 -22.372  0.00  0.00    +0.083 C 
ATOM      3  C   UNL     1      31.483  -9.216 -22.243  0.00  0.00    +0.151 C 
ATOM      4  C   UNL     1      31.262  -8.095 -23.093  0.00  0.00    +0.059 C 
ATOM      5  C   UNL     1      31.428  -8.874 -20.910  0.00  0.00    +0.118 C 
ENDROOT
BRANCH   2   6
ATOM      6  N   UNL     1      30.805  -5.675 -22.829  0.00  0.00    -0.275 N 
ATOM      7  N   UNL     1      30.005  -3.602 -22.847  0.00  0.00    -0.250 NA
ATOM      8  C   UNL     1      31.243  -5.125 -24.006  0.00  0.00    +0.140 C 
ATOM      9  C   UNL     1      30.731  -3.830 -23.994  0.00  0.00    +0.081 C 
ATOM     10  C   UNL     1      32.019  -5.633 -25.049  0.00  0.00    +0.039 C 
ATOM     11  C   UNL     1      30.071  -4.728 -22.173  0.00  0.00    +0.220 C 
ATOM     12  C   UNL     1      30.999  -2.978 -25.078  0.00  0.00    +0.056 C 
ATOM     13  C   UNL     1      32.276  -4.770 -26.120  0.00  0.00    +0.170 C 
ATOM     14  C   UNL     1      31.776  -3.466 -26.136  0.00  0.00    +0.173 C 
BRANCH  13  15
ATOM     15  O   UNL     1      33.031  -5.226 -27.161  0.00  0.00    -0.469 OA
ATOM     16  C   UNL     1      34.445  -5.223 -26.984  0.00  0.00    +0.253 C 
ENDBRANCH  13  15
BRANCH  14  17
ATOM     17  O   UNL     1      32.041  -2.644 -27.193  0.00  0.00    -0.468 OA
ATOM     18  C   UNL     1      30.947  -1.898 -27.720  0.00  0.00    +0.253 C 
ENDBRANCH  14  17
ENDBRANCH   2   6
BRANCH   5  21
ATOM     19  O   UNL     1      31.859  -9.276 -18.607  0.00  0.00    -0.270 OA
ATOM     20  N   UNL     1      31.478 -11.089 -19.918  0.00  0.00    -0.325 N 
ATOM     21  C   UNL     1      31.594  -9.701 -19.758  0.00  0.00    +0.252 C 
ATOM     22  H   UNL     1      31.588 -11.685 -19.142  0.00  0.00    +0.145 HD
ATOM     23  H   UNL     1      31.286 -11.467 -20.806  0.00  0.00    +0.145 HD
ENDBRANCH   5  21
BRANCH   3  24
ATOM     24  O   UNL     1      31.717 -10.472 -22.666  0.00  0.00    -0.474 OA
BRANCH  24  25
ATOM     25  C   UNL     1      33.082 -10.872 -22.840  0.00  0.00    +0.189 C 
ATOM     26  C   UNL     1      33.814  -9.829 -23.678  0.00  0.00    +0.052 C 
BRANCH  25  28
ATOM     27 CL   UNL     1      33.898 -13.262 -21.070  0.00  0.00    -0.082 Cl
ATOM     28  C   UNL     1      33.123 -12.242 -23.476  0.00  0.00    +0.028 C 
ATOM     29  C   UNL     1      33.482 -13.363 -22.742  0.00  0.00    +0.057 C 
ATOM     30  C   UNL     1      32.793 -12.341 -24.820  0.00  0.00    +0.000 C 
ATOM     31  C   UNL     1      33.510 -14.610 -23.365  0.00  0.00    +0.011 C 
ATOM     32  C   UNL     1      32.821 -13.588 -25.443  0.00  0.00    -0.000 C 
ATOM     33  C   UNL     1      33.180 -14.723 -24.715  0.00  0.00    +0.001 C 
ENDBRANCH  25  28
ENDBRANCH  24  25
ENDBRANCH   3  24
TORSDOF 7
ENDMDL
