MODEL 1
REMARK VINA RESULT:     -11.4      0.000      0.000
REMARK  Name = 5287792
REMARK  2 active torsions:
REMARK  status: ('A' for Active; 'I' for Inactive)
REMARK    1  A    between atoms: N_2  and  C_16
REMARK    2  A    between atoms: C_4  and  O_22
REMARK                            x       y       z     vdW  Elec       q    Type
REMARK                         _______ _______ _______ _____ _____    ______ ____
ROOT
ATOM      1  O   UNL     1      31.425 -21.432 -18.234  0.00  0.00    -0.288 OA
ATOM      2  N   UNL     1      34.400 -23.337 -15.291  0.00  0.00    -0.264 N 
ATOM      3  N   UNL     1      35.310 -22.049 -17.151  0.00  0.00    -0.392 NA
ATOM      4  C   UNL     1      33.002 -22.889 -17.143  0.00  0.00    +0.204 C 
ATOM      5  C   UNL     1      32.144 -23.092 -15.899  0.00  0.00    +0.065 C 
ATOM      6  C   UNL     1      33.070 -23.850 -14.938  0.00  0.00    +0.101 C 
ATOM      7  C   UNL     1      34.381 -22.703 -16.530  0.00  0.00    +0.195 C 
ATOM      8  C   UNL     1      32.586 -21.774 -18.060  0.00  0.00    +0.207 C 
ATOM      9  C   UNL     1      33.698 -21.164 -18.814  0.00  0.00    +0.063 C 
ATOM     10  C   UNL     1      35.008 -21.379 -18.355  0.00  0.00    +0.117 C 
ATOM     11  C   UNL     1      33.445 -20.420 -19.970  0.00  0.00    +0.001 C 
ATOM     12  C   UNL     1      36.065 -20.834 -19.092  0.00  0.00    +0.085 C 
ATOM     13  C   UNL     1      34.513 -19.888 -20.689  0.00  0.00    -0.026 C 
ATOM     14  C   UNL     1      35.820 -20.097 -20.254  0.00  0.00    -0.023 C 
ATOM     15  C   UNL     1      34.257 -19.096 -21.927  0.00  0.00    +0.031 C 
ENDROOT
BRANCH   2  16
ATOM     16  C   UNL     1      35.487 -23.519 -14.472  0.00  0.00    +0.053 C 
ATOM     17  C   UNL     1      36.470 -24.493 -14.764  0.00  0.00    +0.015 C 
ATOM     18  C   UNL     1      35.668 -22.740 -13.307  0.00  0.00    +0.015 C 
ATOM     19  C   UNL     1      37.576 -24.677 -13.932  0.00  0.00    +0.001 C 
ATOM     20  C   UNL     1      36.773 -22.925 -12.477  0.00  0.00    +0.001 C 
ATOM     21  C   UNL     1      37.727 -23.893 -12.789  0.00  0.00    +0.000 C 
ENDBRANCH   2  16
BRANCH   4  22
ATOM     22  O   UNL     1      33.036 -24.051 -17.955  0.00  0.00    -0.372 OA
ATOM     23  H   UNL     1      33.941 -24.199 -18.272  0.00  0.00    +0.211 HD
ENDBRANCH   4  22
TORSDOF 2
ENDMDL
MODEL 2
REMARK VINA RESULT:     -10.9      1.164      1.580
REMARK  Name = 5287792
REMARK  2 active torsions:
REMARK  status: ('A' for Active; 'I' for Inactive)
REMARK    1  A    between atoms: N_2  and  C_16
REMARK    2  A    between atoms: C_4  and  O_22
REMARK                            x       y       z     vdW  Elec       q    Type
REMARK                         _______ _______ _______ _____ _____    ______ ____
ROOT
ATOM      1  O   UNL     1      31.666 -20.482 -19.504  0.00  0.00    -0.288 OA
ATOM      2  N   UNL     1      34.187 -22.802 -16.438  0.00  0.00    -0.264 N 
ATOM      3  N   UNL     1      35.365 -21.396 -18.045  0.00  0.00    -0.392 NA
ATOM      4  C   UNL     1      33.041 -22.113 -18.386  0.00  0.00    +0.204 C 
ATOM      5  C   UNL     1      32.032 -22.387 -17.276  0.00  0.00    +0.065 C 
ATOM      6  C   UNL     1      32.806 -23.277 -16.294  0.00  0.00    +0.101 C 
ATOM      7  C   UNL     1      34.343 -22.056 -17.603  0.00  0.00    +0.195 C 
ATOM      8  C   UNL     1      32.783 -20.898 -19.232  0.00  0.00    +0.207 C 
ATOM      9  C   UNL     1      34.001 -20.279 -19.788  0.00  0.00    +0.063 C 
ATOM     10  C   UNL     1      35.237 -20.602 -19.204  0.00  0.00    +0.117 C 
ATOM     11  C   UNL     1      33.918 -19.419 -20.887  0.00  0.00    +0.001 C 
ATOM     12  C   UNL     1      36.396 -20.046 -19.757  0.00  0.00    +0.085 C 
ATOM     13  C   UNL     1      35.085 -18.878 -21.422  0.00  0.00    -0.026 C 
ATOM     14  C   UNL     1      36.321 -19.193 -20.861  0.00  0.00    -0.023 C 
ATOM     15  C   UNL     1      35.012 -17.963 -22.598  0.00  0.00    +0.031 C 
ENDROOT
BRANCH   2  16
ATOM     16  C   UNL     1      35.161 -23.115 -15.521  0.00  0.00    +0.053 C 
ATOM     17  C   UNL     1      36.152 -22.175 -15.154  0.00  0.00    +0.015 C 
ATOM     18  C   UNL     1      35.211 -24.387 -14.908  0.00  0.00    +0.015 C 
ATOM     19  C   UNL     1      37.140 -22.493 -14.221  0.00  0.00    +0.001 C 
ATOM     20  C   UNL     1      36.199 -24.704 -13.976  0.00  0.00    +0.001 C 
ATOM     21  C   UNL     1      37.164 -23.758 -13.633  0.00  0.00    +0.000 C 
ENDBRANCH   2  16
BRANCH   4  22
ATOM     22  O   UNL     1      33.126 -23.195 -19.300  0.00  0.00    -0.372 OA
ATOM     23  H   UNL     1      33.620 -23.924 -18.893  0.00  0.00    +0.211 HD
ENDBRANCH   4  22
TORSDOF 2
ENDMDL
MODEL 3
REMARK VINA RESULT:      -9.8      1.604      6.290
REMARK  Name = 5287792
REMARK  2 active torsions:
REMARK  status: ('A' for Active; 'I' for Inactive)
REMARK    1  A    between atoms: N_2  and  C_16
REMARK    2  A    between atoms: C_4  and  O_22
REMARK                            x       y       z     vdW  Elec       q    Type
REMARK                         _______ _______ _______ _____ _____    ______ ____
ROOT
ATOM      1  O   UNL     1      33.089 -25.035 -14.048  0.00  0.00    -0.288 OA
ATOM      2  N   UNL     1      33.264 -21.982 -17.481  0.00  0.00    -0.264 N 
ATOM      3  N   UNL     1      35.353 -22.549 -16.358  0.00  0.00    -0.392 NA
ATOM      4  C   UNL     1      33.159 -23.016 -15.359  0.00  0.00    +0.204 C 
ATOM      5  C   UNL     1      31.885 -23.328 -16.137  0.00  0.00    +0.065 C 
ATOM      6  C   UNL     1      31.843 -22.238 -17.217  0.00  0.00    +0.101 C 
ATOM      7  C   UNL     1      34.065 -22.489 -16.461  0.00  0.00    +0.195 C 
ATOM      8  C   UNL     1      33.751 -24.152 -14.573  0.00  0.00    +0.207 C 
ATOM      9  C   UNL     1      35.215 -24.075 -14.409  0.00  0.00    +0.063 C 
ATOM     10  C   UNL     1      35.937 -23.234 -15.272  0.00  0.00    +0.117 C 
ATOM     11  C   UNL     1      35.853 -24.800 -13.398  0.00  0.00    +0.001 C 
ATOM     12  C   UNL     1      37.321 -23.131 -15.091  0.00  0.00    +0.085 C 
ATOM     13  C   UNL     1      37.231 -24.680 -13.235  0.00  0.00    -0.026 C 
ATOM     14  C   UNL     1      37.963 -23.845 -14.077  0.00  0.00    -0.023 C 
ATOM     15  C   UNL     1      37.923 -25.445 -12.157  0.00  0.00    +0.031 C 
ENDROOT
BRANCH   2  16
ATOM     16  C   UNL     1      33.682 -21.297 -18.595  0.00  0.00    +0.053 C 
ATOM     17  C   UNL     1      32.756 -20.680 -19.469  0.00  0.00    +0.015 C 
ATOM     18  C   UNL     1      35.054 -21.179 -18.914  0.00  0.00    +0.015 C 
ATOM     19  C   UNL     1      33.181 -19.984 -20.600  0.00  0.00    +0.001 C 
ATOM     20  C   UNL     1      35.478 -20.483 -20.045  0.00  0.00    +0.001 C 
ATOM     21  C   UNL     1      34.542 -19.885 -20.889  0.00  0.00    +0.000 C 
ENDBRANCH   2  16
BRANCH   4  22
ATOM     22  O   UNL     1      32.958 -21.972 -14.418  0.00  0.00    -0.372 OA
ATOM     23  H   UNL     1      32.187 -21.446 -14.679  0.00  0.00    +0.211 HD
ENDBRANCH   4  22
TORSDOF 2
ENDMDL
MODEL 4
REMARK VINA RESULT:      -9.7      6.081      9.243
REMARK  Name = 5287792
REMARK  2 active torsions:
REMARK  status: ('A' for Active; 'I' for Inactive)
REMARK    1  A    between atoms: N_2  and  C_16
REMARK    2  A    between atoms: C_4  and  O_22
REMARK                            x       y       z     vdW  Elec       q    Type
REMARK                         _______ _______ _______ _____ _____    ______ ____
ROOT
ATOM      1  O   UNL     1      32.249 -14.484 -25.479  0.00  0.00    -0.288 OA
ATOM      2  N   UNL     1      34.343 -17.710 -22.961  0.00  0.00    -0.264 N 
ATOM      3  N   UNL     1      34.033 -15.510 -21.956  0.00  0.00    -0.392 NA
ATOM      4  C   UNL     1      33.875 -15.879 -24.379  0.00  0.00    +0.204 C 
ATOM      5  C   UNL     1      33.403 -17.168 -25.044  0.00  0.00    +0.065 C 
ATOM      6  C   UNL     1      34.189 -18.264 -24.312  0.00  0.00    +0.101 C 
ATOM      7  C   UNL     1      34.091 -16.341 -22.946  0.00  0.00    +0.195 C 
ATOM      8  C   UNL     1      32.960 -14.694 -24.507  0.00  0.00    +0.207 C 
ATOM      9  C   UNL     1      33.046 -13.740 -23.384  0.00  0.00    +0.063 C 
ATOM     10  C   UNL     1      33.630 -14.178 -22.184  0.00  0.00    +0.117 C 
ATOM     11  C   UNL     1      32.584 -12.430 -23.533  0.00  0.00    +0.001 C 
ATOM     12  C   UNL     1      33.747 -13.261 -21.133  0.00  0.00    +0.085 C 
ATOM     13  C   UNL     1      32.713 -11.534 -22.474  0.00  0.00    -0.026 C 
ATOM     14  C   UNL     1      33.296 -11.947 -21.278  0.00  0.00    -0.023 C 
ATOM     15  C   UNL     1      32.229 -10.131 -22.621  0.00  0.00    +0.031 C 
ENDROOT
BRANCH   2  16
ATOM     16  C   UNL     1      34.719 -18.492 -21.896  0.00  0.00    +0.053 C 
ATOM     17  C   UNL     1      33.816 -19.400 -21.296  0.00  0.00    +0.015 C 
ATOM     18  C   UNL     1      36.024 -18.421 -21.357  0.00  0.00    +0.015 C 
ATOM     19  C   UNL     1      34.199 -20.195 -20.215  0.00  0.00    +0.001 C 
ATOM     20  C   UNL     1      36.406 -19.215 -20.277  0.00  0.00    +0.001 C 
ATOM     21  C   UNL     1      35.494 -20.102 -19.705  0.00  0.00    +0.000 C 
ENDBRANCH   2  16
BRANCH   4  22
ATOM     22  O   UNL     1      35.124 -15.447 -24.895  0.00  0.00    -0.372 OA
ATOM     23  H   UNL     1      35.230 -15.774 -25.802  0.00  0.00    +0.211 HD
ENDBRANCH   4  22
TORSDOF 2
ENDMDL
MODEL 5
REMARK VINA RESULT:      -9.6      2.081      6.475
REMARK  Name = 5287792
REMARK  2 active torsions:
REMARK  status: ('A' for Active; 'I' for Inactive)
REMARK    1  A    between atoms: N_2  and  C_16
REMARK    2  A    between atoms: C_4  and  O_22
REMARK                            x       y       z     vdW  Elec       q    Type
REMARK                         _______ _______ _______ _____ _____    ______ ____
ROOT
ATOM      1  O   UNL     1      34.677 -23.316 -12.874  0.00  0.00    -0.288 OA
ATOM      2  N   UNL     1      35.231 -21.830 -17.190  0.00  0.00    -0.264 N 
ATOM      3  N   UNL     1      32.994 -22.515 -16.503  0.00  0.00    -0.392 NA
ATOM      4  C   UNL     1      35.005 -23.169 -15.256  0.00  0.00    +0.204 C 
ATOM      5  C   UNL     1      36.285 -22.345 -15.154  0.00  0.00    +0.065 C 
ATOM      6  C   UNL     1      36.574 -21.942 -16.606  0.00  0.00    +0.101 C 
ATOM      7  C   UNL     1      34.282 -22.463 -16.392  0.00  0.00    +0.195 C 
ATOM      8  C   UNL     1      34.193 -23.289 -13.997  0.00  0.00    +0.207 C 
ATOM      9  C   UNL     1      32.746 -23.461 -14.226  0.00  0.00    +0.063 C 
ATOM     10  C   UNL     1      32.228 -23.119 -15.485  0.00  0.00    +0.117 C 
ATOM     11  C   UNL     1      31.927 -23.979 -13.218  0.00  0.00    +0.001 C 
ATOM     12  C   UNL     1      30.861 -23.318 -15.715  0.00  0.00    +0.085 C 
ATOM     13  C   UNL     1      30.571 -24.171 -13.470  0.00  0.00    -0.026 C 
ATOM     14  C   UNL     1      30.039 -23.845 -14.716  0.00  0.00    -0.023 C 
ATOM     15  C   UNL     1      29.687 -24.729 -12.405  0.00  0.00    +0.031 C 
ENDROOT
BRANCH   2  16
ATOM     16  C   UNL     1      35.013 -21.194 -18.387  0.00  0.00    +0.053 C 
ATOM     17  C   UNL     1      33.718 -21.117 -18.951  0.00  0.00    +0.015 C 
ATOM     18  C   UNL     1      36.071 -20.592 -19.104  0.00  0.00    +0.015 C 
ATOM     19  C   UNL     1      33.496 -20.470 -20.168  0.00  0.00    +0.001 C 
ATOM     20  C   UNL     1      35.849 -19.946 -20.319  0.00  0.00    +0.001 C 
ATOM     21  C   UNL     1      34.561 -19.885 -20.852  0.00  0.00    +0.000 C 
ENDBRANCH   2  16
BRANCH   4  22
ATOM     22  O   UNL     1      35.268 -24.502 -15.663  0.00  0.00    -0.372 OA
ATOM     23  H   UNL     1      35.098 -25.106 -14.923  0.00  0.00    +0.211 HD
ENDBRANCH   4  22
TORSDOF 2
ENDMDL
MODEL 6
REMARK VINA RESULT:      -9.5     10.717     13.849
REMARK  Name = 5287792
REMARK  2 active torsions:
REMARK  status: ('A' for Active; 'I' for Inactive)
REMARK    1  A    between atoms: N_2  and  C_16
REMARK    2  A    between atoms: C_4  and  O_22
REMARK                            x       y       z     vdW  Elec       q    Type
REMARK                         _______ _______ _______ _____ _____    ______ ____
ROOT
ATOM      1  O   UNL     1      31.219  -8.433 -19.633  0.00  0.00    -0.288 OA
ATOM      2  N   UNL     1      32.251 -12.301 -21.895  0.00  0.00    -0.264 N 
ATOM      3  N   UNL     1      32.114 -10.235 -23.183  0.00  0.00    -0.392 NA
ATOM      4  C   UNL     1      31.128 -10.452 -20.944  0.00  0.00    +0.204 C 
ATOM      5  C   UNL     1      31.660 -11.348 -19.831  0.00  0.00    +0.065 C 
ATOM      6  C   UNL     1      31.891 -12.695 -20.527  0.00  0.00    +0.101 C 
ATOM      7  C   UNL     1      31.894 -10.979 -22.148  0.00  0.00    +0.195 C 
ATOM      8  C   UNL     1      31.272  -8.971 -20.730  0.00  0.00    +0.207 C 
ATOM      9  C   UNL     1      31.403  -8.190 -21.975  0.00  0.00    +0.063 C 
ATOM     10  C   UNL     1      31.762  -8.870 -23.150  0.00  0.00    +0.117 C 
ATOM     11  C   UNL     1      31.144  -6.817 -21.978  0.00  0.00    +0.001 C 
ATOM     12  C   UNL     1      31.847  -8.135 -24.339  0.00  0.00    +0.085 C 
ATOM     13  C   UNL     1      31.233  -6.106 -23.173  0.00  0.00    -0.026 C 
ATOM     14  C   UNL     1      31.580  -6.764 -24.351  0.00  0.00    -0.023 C 
ATOM     15  C   UNL     1      30.954  -4.641 -23.192  0.00  0.00    +0.031 C 
ENDROOT
BRANCH   2  16
ATOM     16  C   UNL     1      32.835 -13.181 -22.773  0.00  0.00    +0.053 C 
ATOM     17  C   UNL     1      33.794 -14.125 -22.337  0.00  0.00    +0.015 C 
ATOM     18  C   UNL     1      32.501 -13.179 -24.146  0.00  0.00    +0.015 C 
ATOM     19  C   UNL     1      34.387 -15.019 -23.229  0.00  0.00    +0.001 C 
ATOM     20  C   UNL     1      33.094 -14.073 -25.037  0.00  0.00    +0.001 C 
ATOM     21  C   UNL     1      34.038 -14.993 -24.579  0.00  0.00    +0.000 C 
ENDBRANCH   2  16
BRANCH   4  22
ATOM     22  O   UNL     1      29.745 -10.665 -21.176  0.00  0.00    -0.372 OA
ATOM     23  H   UNL     1      29.369  -9.893 -21.627  0.00  0.00    +0.211 HD
ENDBRANCH   4  22
TORSDOF 2
ENDMDL
MODEL 7
REMARK VINA RESULT:      -8.9     10.441     13.936
REMARK  Name = 5287792
REMARK  2 active torsions:
REMARK  status: ('A' for Active; 'I' for Inactive)
REMARK    1  A    between atoms: N_2  and  C_16
REMARK    2  A    between atoms: C_4  and  O_22
REMARK                            x       y       z     vdW  Elec       q    Type
REMARK                         _______ _______ _______ _____ _____    ______ ____
ROOT
ATOM      1  O   UNL     1      31.408  -7.437 -20.469  0.00  0.00    -0.288 OA
ATOM      2  N   UNL     1      32.186 -11.792 -21.723  0.00  0.00    -0.264 N 
ATOM      3  N   UNL     1      33.186 -10.025 -23.074  0.00  0.00    -0.392 NA
ATOM      4  C   UNL     1      31.326  -9.599 -21.528  0.00  0.00    +0.204 C 
ATOM      5  C   UNL     1      31.065 -10.361 -20.233  0.00  0.00    +0.065 C 
ATOM      6  C   UNL     1      31.186 -11.834 -20.648  0.00  0.00    +0.101 C 
ATOM      7  C   UNL     1      32.351 -10.496 -22.205  0.00  0.00    +0.195 C 
ATOM      8  C   UNL     1      31.770  -8.171 -21.378  0.00  0.00    +0.207 C 
ATOM      9  C   UNL     1      32.627  -7.685 -22.476  0.00  0.00    +0.063 C 
ATOM     10  C   UNL     1      33.246  -8.635 -23.304  0.00  0.00    +0.117 C 
ATOM     11  C   UNL     1      32.785  -6.314 -22.696  0.00  0.00    +0.001 C 
ATOM     12  C   UNL     1      34.027  -8.174 -24.370  0.00  0.00    +0.085 C 
ATOM     13  C   UNL     1      33.566  -5.878 -23.764  0.00  0.00    -0.026 C 
ATOM     14  C   UNL     1      34.182  -6.805 -24.602  0.00  0.00    -0.023 C 
ATOM     15  C   UNL     1      33.739  -4.417 -24.014  0.00  0.00    +0.031 C 
ENDROOT
BRANCH   2  16
ATOM     16  C   UNL     1      32.818 -12.926 -22.170  0.00  0.00    +0.053 C 
ATOM     17  C   UNL     1      32.778 -13.300 -23.533  0.00  0.00    +0.015 C 
ATOM     18  C   UNL     1      33.535 -13.764 -21.286  0.00  0.00    +0.015 C 
ATOM     19  C   UNL     1      33.421 -14.452 -23.987  0.00  0.00    +0.001 C 
ATOM     20  C   UNL     1      34.178 -14.915 -21.740  0.00  0.00    +0.001 C 
ATOM     21  C   UNL     1      34.121 -15.260 -23.090  0.00  0.00    +0.000 C 
ENDBRANCH   2  16
BRANCH   4  22
ATOM     22  O   UNL     1      30.173  -9.550 -22.352  0.00  0.00    -0.372 OA
ATOM     23  H   UNL     1      30.442  -9.505 -23.283  0.00  0.00    +0.211 HD
ENDBRANCH   4  22
TORSDOF 2
ENDMDL
MODEL 8
REMARK VINA RESULT:      -8.5     12.928     17.078
REMARK  Name = 5287792
REMARK  2 active torsions:
REMARK  status: ('A' for Active; 'I' for Inactive)
REMARK    1  A    between atoms: N_2  and  C_16
REMARK    2  A    between atoms: C_4  and  O_22
REMARK                            x       y       z     vdW  Elec       q    Type
REMARK                         _______ _______ _______ _____ _____    ______ ____
ROOT
ATOM      1  O   UNL     1      30.469  -8.525 -19.147  0.00  0.00    -0.288 OA
ATOM      2  N   UNL     1      31.958  -5.538 -22.310  0.00  0.00    -0.264 N 
ATOM      3  N   UNL     1      32.265  -7.915 -22.759  0.00  0.00    -0.392 NA
ATOM      4  C   UNL     1      31.811  -7.055 -20.504  0.00  0.00    +0.204 C 
ATOM      5  C   UNL     1      30.991  -5.809 -20.186  0.00  0.00    +0.065 C 
ATOM      6  C   UNL     1      31.559  -4.748 -21.138  0.00  0.00    +0.101 C 
ATOM      7  C   UNL     1      32.038  -6.893 -21.999  0.00  0.00    +0.195 C 
ATOM      8  C   UNL     1      31.193  -8.370 -20.120  0.00  0.00    +0.207 C 
ATOM      9  C   UNL     1      31.601  -9.502 -20.975  0.00  0.00    +0.063 C 
ATOM     10  C   UNL     1      32.169  -9.217 -22.227  0.00  0.00    +0.117 C 
ATOM     11  C   UNL     1      31.449 -10.817 -20.526  0.00  0.00    +0.001 C 
ATOM     12  C   UNL     1      32.591 -10.290 -23.021  0.00  0.00    +0.085 C 
ATOM     13  C   UNL     1      31.879 -11.869 -21.332  0.00  0.00    -0.026 C 
ATOM     14  C   UNL     1      32.452 -11.607 -22.575  0.00  0.00    -0.023 C 
ATOM     15  C   UNL     1      31.728 -13.277 -20.863  0.00  0.00    +0.031 C 
ENDROOT
BRANCH   2  16
ATOM     16  C   UNL     1      32.232  -4.951 -23.520  0.00  0.00    +0.053 C 
ATOM     17  C   UNL     1      31.200  -4.419 -24.329  0.00  0.00    +0.015 C 
ATOM     18  C   UNL     1      33.555  -4.853 -24.007  0.00  0.00    +0.015 C 
ATOM     19  C   UNL     1      31.479  -3.822 -25.559  0.00  0.00    +0.001 C 
ATOM     20  C   UNL     1      33.833  -4.256 -25.236  0.00  0.00    +0.001 C 
ATOM     21  C   UNL     1      32.795  -3.741 -26.013  0.00  0.00    +0.000 C 
ENDBRANCH   2  16
BRANCH   4  22
ATOM     22  O   UNL     1      33.076  -7.032 -19.862  0.00  0.00    -0.372 OA
ATOM     23  H   UNL     1      32.958  -7.179 -18.911  0.00  0.00    +0.211 HD
ENDBRANCH   4  22
TORSDOF 2
ENDMDL
