MODEL 1
REMARK VINA RESULT:     -11.7      0.000      0.000
REMARK  Name = 25138294
REMARK  3 active torsions:
REMARK  status: ('A' for Active; 'I' for Inactive)
REMARK    1  A    between atoms: N_4  and  C_7
REMARK    2  A    between atoms: C_5  and  C_25
REMARK    3  A    between atoms: C_6  and  C_15
REMARK                            x       y       z     vdW  Elec       q    Type
REMARK                         _______ _______ _______ _____ _____    ______ ____
ROOT
ATOM      1  N   UNL     1      31.799 -22.645 -16.657  0.00  0.00    -0.300 N 
ATOM      2  N   UNL     1      32.283 -23.712 -14.770  0.00  0.00    -0.302 N 
ATOM      3  C   UNL     1      33.158 -22.588 -16.534  0.00  0.00    +0.086 C 
ATOM      4  C   UNL     1      33.433 -23.252 -15.362  0.00  0.00    +0.058 C 
ATOM      5  C   UNL     1      31.317 -23.330 -15.575  0.00  0.00    +0.227 C 
ATOM      6  H   UNL     1      31.263 -22.264 -17.390  0.00  0.00    +0.150 HD
ATOM      7  H   UNL     1      32.201 -24.216 -13.929  0.00  0.00    +0.150 HD
ENDROOT
BRANCH   4  10
ATOM      8  N   UNL     1      37.358 -26.004 -14.798  0.00  0.00    -0.245 NA
ATOM      9  N   UNL     1      38.519 -24.050 -13.199  0.00  0.00    -0.245 NA
ATOM     10  C   UNL     1      34.742 -23.455 -14.805  0.00  0.00    -0.006 C 
ATOM     11  C   UNL     1      35.438 -24.635 -15.064  0.00  0.00    +0.074 C 
ATOM     12  C   UNL     1      35.321 -22.480 -14.007  0.00  0.00    -0.022 C 
ATOM     13  C   UNL     1      36.707 -24.857 -14.535  0.00  0.00    +0.077 C 
ATOM     14  C   UNL     1      37.294 -23.868 -13.725  0.00  0.00    +0.077 C 
ATOM     15  C   UNL     1      36.591 -22.693 -13.474  0.00  0.00    +0.073 C 
ATOM     16  C   UNL     1      38.581 -26.167 -14.263  0.00  0.00    +0.119 C 
ATOM     17  C   UNL     1      39.153 -25.204 -13.475  0.00  0.00    +0.119 C 
ENDBRANCH   4  10
BRANCH   3  20
ATOM     18  F   UNL     1      36.170 -20.029 -20.369  0.00  0.00    -0.202 F 
ATOM     19  N   UNL     1      33.335 -21.379 -18.543  0.00  0.00    -0.407 NA
ATOM     20  C   UNL     1      34.000 -21.934 -17.505  0.00  0.00    +0.127 C 
ATOM     21  C   UNL     1      35.376 -21.895 -17.355  0.00  0.00    +0.089 C 
ATOM     22  C   UNL     1      34.090 -20.756 -19.476  0.00  0.00    +0.136 C 
ATOM     23  C   UNL     1      36.119 -21.243 -18.334  0.00  0.00    +0.013 C 
ATOM     24  C   UNL     1      35.471 -20.660 -19.417  0.00  0.00    +0.161 C 
ATOM     25  C   UNL     1      33.359 -20.143 -20.623  0.00  0.00    +0.069 C 
ENDBRANCH   3  20
BRANCH   5  27
ATOM     26  O   UNL     1      28.970 -21.948 -16.859  0.00  0.00    -0.275 OA
ATOM     27  N   UNL     1      29.971 -23.545 -15.433  0.00  0.00    -0.274 N 
ATOM     28  C   UNL     1      28.892 -22.873 -16.056  0.00  0.00    +0.225 C 
ATOM     29  C   UNL     1      27.550 -23.417 -15.633  0.00  0.00    +0.095 C 
ATOM     30  H   UNL     1      29.721 -24.267 -14.812  0.00  0.00    +0.152 HD
ENDBRANCH   5  27
TORSDOF 3
ENDMDL
MODEL 2
REMARK VINA RESULT:     -11.5      2.086      5.876
REMARK  Name = 25138294
REMARK  3 active torsions:
REMARK  status: ('A' for Active; 'I' for Inactive)
REMARK    1  A    between atoms: N_4  and  C_7
REMARK    2  A    between atoms: C_5  and  C_25
REMARK    3  A    between atoms: C_6  and  C_15
REMARK                            x       y       z     vdW  Elec       q    Type
REMARK                         _______ _______ _______ _____ _____    ______ ____
ROOT
ATOM      1  N   UNL     1      32.283 -23.515 -15.377  0.00  0.00    -0.300 N 
ATOM      2  N   UNL     1      31.581 -22.420 -17.177  0.00  0.00    -0.302 N 
ATOM      3  C   UNL     1      33.407 -23.026 -15.979  0.00  0.00    +0.086 C 
ATOM      4  C   UNL     1      32.949 -22.355 -17.087  0.00  0.00    +0.058 C 
ATOM      5  C   UNL     1      31.211 -23.126 -16.132  0.00  0.00    +0.227 C 
ATOM      6  H   UNL     1      32.249 -24.050 -14.551  0.00  0.00    +0.150 HD
ATOM      7  H   UNL     1      31.005 -22.025 -17.870  0.00  0.00    +0.150 HD
ENDROOT
BRANCH   4  10
ATOM      8  N   UNL     1      33.364 -19.615 -21.039  0.00  0.00    -0.245 NA
ATOM      9  N   UNL     1      36.132 -19.673 -20.810  0.00  0.00    -0.245 NA
ATOM     10  C   UNL     1      33.770 -21.665 -18.044  0.00  0.00    -0.006 C 
ATOM     11  C   UNL     1      33.182 -20.962 -19.094  0.00  0.00    +0.074 C 
ATOM     12  C   UNL     1      35.152 -21.693 -17.929  0.00  0.00    -0.022 C 
ATOM     13  C   UNL     1      33.955 -20.286 -20.035  0.00  0.00    +0.077 C 
ATOM     14  C   UNL     1      35.356 -20.316 -19.918  0.00  0.00    +0.077 C 
ATOM     15  C   UNL     1      35.934 -21.020 -18.866  0.00  0.00    +0.073 C 
ATOM     16  C   UNL     1      34.157 -18.980 -21.920  0.00  0.00    +0.119 C 
ATOM     17  C   UNL     1      35.521 -19.008 -21.807  0.00  0.00    +0.119 C 
ENDBRANCH   4  10
BRANCH   3  20
ATOM     18  F   UNL     1      38.429 -24.111 -13.995  0.00  0.00    -0.202 F 
ATOM     19  N   UNL     1      35.100 -24.545 -15.381  0.00  0.00    -0.407 NA
ATOM     20  C   UNL     1      34.731 -23.246 -15.451  0.00  0.00    +0.127 C 
ATOM     21  C   UNL     1      35.535 -22.190 -15.056  0.00  0.00    +0.089 C 
ATOM     22  C   UNL     1      36.335 -24.793 -14.892  0.00  0.00    +0.136 C 
ATOM     23  C   UNL     1      36.800 -22.484 -14.559  0.00  0.00    +0.013 C 
ATOM     24  C   UNL     1      37.215 -23.809 -14.472  0.00  0.00    +0.161 C 
ATOM     25  C   UNL     1      36.745 -26.226 -14.813  0.00  0.00    +0.069 C 
ENDBRANCH   3  20
BRANCH   5  27
ATOM     26  O   UNL     1      28.561 -21.889 -16.847  0.00  0.00    -0.275 OA
ATOM     27  N   UNL     1      29.938 -23.475 -15.763  0.00  0.00    -0.274 N 
ATOM     28  C   UNL     1      28.710 -22.867 -16.121  0.00  0.00    +0.225 C 
ATOM     29  C   UNL     1      27.520 -23.561 -15.506  0.00  0.00    +0.095 C 
ATOM     30  H   UNL     1      29.868 -24.256 -15.169  0.00  0.00    +0.152 HD
ENDBRANCH   5  27
TORSDOF 3
ENDMDL
MODEL 3
REMARK VINA RESULT:     -11.3      3.007      5.199
REMARK  Name = 25138294
REMARK  3 active torsions:
REMARK  status: ('A' for Active; 'I' for Inactive)
REMARK    1  A    between atoms: N_4  and  C_7
REMARK    2  A    between atoms: C_5  and  C_25
REMARK    3  A    between atoms: C_6  and  C_15
REMARK                            x       y       z     vdW  Elec       q    Type
REMARK                         _______ _______ _______ _____ _____    ______ ____
ROOT
ATOM      1  N   UNL     1      32.020 -21.722 -18.250  0.00  0.00    -0.300 N 
ATOM      2  N   UNL     1      34.225 -21.743 -17.984  0.00  0.00    -0.302 N 
ATOM      3  C   UNL     1      32.249 -22.387 -17.079  0.00  0.00    +0.086 C 
ATOM      4  C   UNL     1      33.616 -22.389 -16.937  0.00  0.00    +0.058 C 
ATOM      5  C   UNL     1      33.236 -21.354 -18.757  0.00  0.00    +0.227 C 
ATOM      6  H   UNL     1      31.141 -21.540 -18.655  0.00  0.00    +0.150 HD
ATOM      7  H   UNL     1      35.189 -21.602 -18.125  0.00  0.00    +0.150 HD
ENDROOT
BRANCH   4  10
ATOM      8  N   UNL     1      35.982 -26.136 -15.026  0.00  0.00    -0.245 NA
ATOM      9  N   UNL     1      36.434 -24.686 -12.699  0.00  0.00    -0.245 NA
ATOM     10  C   UNL     1      34.342 -22.978 -15.846  0.00  0.00    -0.006 C 
ATOM     11  C   UNL     1      34.823 -24.282 -15.947  0.00  0.00    +0.074 C 
ATOM     12  C   UNL     1      34.567 -22.254 -14.684  0.00  0.00    -0.022 C 
ATOM     13  C   UNL     1      35.528 -24.877 -14.904  0.00  0.00    +0.077 C 
ATOM     14  C   UNL     1      35.756 -24.142 -13.726  0.00  0.00    +0.077 C 
ATOM     15  C   UNL     1      35.272 -22.841 -13.634  0.00  0.00    +0.073 C 
ATOM     16  C   UNL     1      36.657 -26.662 -13.988  0.00  0.00    +0.119 C 
ATOM     17  C   UNL     1      36.879 -25.947 -12.841  0.00  0.00    +0.119 C 
ENDBRANCH   4  10
BRANCH   3  20
ATOM     18  F   UNL     1      28.020 -24.311 -14.123  0.00  0.00    -0.202 F 
ATOM     19  N   UNL     1      29.945 -22.521 -16.629  0.00  0.00    -0.407 NA
ATOM     20  C   UNL     1      31.184 -22.923 -16.268  0.00  0.00    +0.127 C 
ATOM     21  C   UNL     1      31.444 -23.779 -15.211  0.00  0.00    +0.089 C 
ATOM     22  C   UNL     1      28.919 -23.003 -15.892  0.00  0.00    +0.136 C 
ATOM     23  C   UNL     1      30.363 -24.255 -14.477  0.00  0.00    +0.013 C 
ATOM     24  C   UNL     1      29.073 -23.864 -14.818  0.00  0.00    +0.161 C 
ATOM     25  C   UNL     1      27.550 -22.560 -16.288  0.00  0.00    +0.069 C 
ENDBRANCH   3  20
BRANCH   5  27
ATOM     26  O   UNL     1      35.489 -19.732 -19.923  0.00  0.00    -0.275 OA
ATOM     27  N   UNL     1      33.315 -20.661 -19.937  0.00  0.00    -0.274 N 
ATOM     28  C   UNL     1      34.396 -19.906 -20.455  0.00  0.00    +0.225 C 
ATOM     29  C   UNL     1      34.086 -19.297 -21.799  0.00  0.00    +0.095 C 
ATOM     30  H   UNL     1      32.510 -20.693 -20.503  0.00  0.00    +0.152 HD
ENDBRANCH   5  27
TORSDOF 3
ENDMDL
MODEL 4
REMARK VINA RESULT:     -11.1      2.427      6.628
REMARK  Name = 25138294
REMARK  3 active torsions:
REMARK  status: ('A' for Active; 'I' for Inactive)
REMARK    1  A    between atoms: N_4  and  C_7
REMARK    2  A    between atoms: C_5  and  C_25
REMARK    3  A    between atoms: C_6  and  C_15
REMARK                            x       y       z     vdW  Elec       q    Type
REMARK                         _______ _______ _______ _____ _____    ______ ____
ROOT
ATOM      1  N   UNL     1      34.763 -23.727 -15.555  0.00  0.00    -0.300 N 
ATOM      2  N   UNL     1      33.210 -24.167 -14.029  0.00  0.00    -0.302 N 
ATOM      3  C   UNL     1      33.629 -23.098 -15.984  0.00  0.00    +0.086 C 
ATOM      4  C   UNL     1      32.685 -23.384 -15.028  0.00  0.00    +0.058 C 
ATOM      5  C   UNL     1      34.463 -24.355 -14.378  0.00  0.00    +0.227 C 
ATOM      6  H   UNL     1      35.637 -23.728 -16.009  0.00  0.00    +0.150 HD
ATOM      7  H   UNL     1      32.750 -24.511 -13.230  0.00  0.00    +0.150 HD
ENDROOT
BRANCH   4  10
ATOM      8  N   UNL     1      28.342 -23.267 -17.130  0.00  0.00    -0.245 NA
ATOM      9  N   UNL     1      27.379 -21.645 -15.091  0.00  0.00    -0.245 NA
ATOM     10  C   UNL     1      31.320 -22.937 -15.042  0.00  0.00    -0.006 C 
ATOM     11  C   UNL     1      30.469 -23.313 -16.080  0.00  0.00    +0.074 C 
ATOM     12  C   UNL     1      30.839 -22.127 -14.023  0.00  0.00    -0.022 C 
ATOM     13  C   UNL     1      29.142 -22.891 -16.118  0.00  0.00    +0.077 C 
ATOM     14  C   UNL     1      28.656 -22.070 -15.085  0.00  0.00    +0.077 C 
ATOM     15  C   UNL     1      29.513 -21.700 -14.052  0.00  0.00    +0.073 C 
ATOM     16  C   UNL     1      27.070 -22.832 -17.118  0.00  0.00    +0.119 C 
ATOM     17  C   UNL     1      26.595 -22.033 -16.112  0.00  0.00    +0.119 C 
ENDBRANCH   4  10
BRANCH   3  20
ATOM     18  F   UNL     1      33.687 -20.165 -20.645  0.00  0.00    -0.202 F 
ATOM     19  N   UNL     1      34.788 -21.977 -17.696  0.00  0.00    -0.407 NA
ATOM     20  C   UNL     1      33.579 -22.331 -17.205  0.00  0.00    +0.127 C 
ATOM     21  C   UNL     1      32.373 -22.002 -17.801  0.00  0.00    +0.089 C 
ATOM     22  C   UNL     1      34.784 -21.257 -18.840  0.00  0.00    +0.136 C 
ATOM     23  C   UNL     1      32.409 -21.262 -18.977  0.00  0.00    +0.013 C 
ATOM     24  C   UNL     1      33.633 -20.879 -19.513  0.00  0.00    +0.161 C 
ATOM     25  C   UNL     1      36.116 -20.863 -19.384  0.00  0.00    +0.069 C 
ENDBRANCH   3  20
BRANCH   5  27
ATOM     26  O   UNL     1      37.336 -23.687 -13.772  0.00  0.00    -0.275 OA
ATOM     27  N   UNL     1      35.422 -25.072 -13.709  0.00  0.00    -0.274 N 
ATOM     28  C   UNL     1      36.768 -24.724 -13.443  0.00  0.00    +0.225 C 
ATOM     29  C   UNL     1      37.500 -25.791 -12.668  0.00  0.00    +0.095 C 
ATOM     30  H   UNL     1      35.134 -25.949 -13.367  0.00  0.00    +0.152 HD
ENDBRANCH   5  27
TORSDOF 3
ENDMDL
MODEL 5
REMARK VINA RESULT:     -11.1      2.732      6.830
REMARK  Name = 25138294
REMARK  3 active torsions:
REMARK  status: ('A' for Active; 'I' for Inactive)
REMARK    1  A    between atoms: N_4  and  C_7
REMARK    2  A    between atoms: C_5  and  C_25
REMARK    3  A    between atoms: C_6  and  C_15
REMARK                            x       y       z     vdW  Elec       q    Type
REMARK                         _______ _______ _______ _____ _____    ______ ____
ROOT
ATOM      1  N   UNL     1      36.236 -21.929 -16.874  0.00  0.00    -0.300 N 
ATOM      2  N   UNL     1      34.109 -21.766 -17.494  0.00  0.00    -0.302 N 
ATOM      3  C   UNL     1      35.519 -22.616 -15.936  0.00  0.00    +0.086 C 
ATOM      4  C   UNL     1      34.210 -22.501 -16.338  0.00  0.00    +0.058 C 
ATOM      5  C   UNL     1      35.346 -21.437 -17.790  0.00  0.00    +0.227 C 
ATOM      6  H   UNL     1      37.213 -21.810 -16.890  0.00  0.00    +0.150 HD
ATOM      7  H   UNL     1      33.291 -21.537 -17.990  0.00  0.00    +0.150 HD
ENDROOT
BRANCH   4  10
ATOM      8  N   UNL     1      29.463 -23.341 -16.118  0.00  0.00    -0.245 NA
ATOM      9  N   UNL     1      29.796 -24.689 -13.711  0.00  0.00    -0.245 NA
ATOM     10  C   UNL     1      33.076 -23.065 -15.662  0.00  0.00    -0.006 C 
ATOM     11  C   UNL     1      31.799 -22.940 -16.208  0.00  0.00    +0.074 C 
ATOM     12  C   UNL     1      33.242 -23.738 -14.460  0.00  0.00    -0.022 C 
ATOM     13  C   UNL     1      30.683 -23.476 -15.571  0.00  0.00    +0.077 C 
ATOM     14  C   UNL     1      30.852 -24.158 -14.353  0.00  0.00    +0.077 C 
ATOM     15  C   UNL     1      32.131 -24.278 -13.815  0.00  0.00    +0.073 C 
ATOM     16  C   UNL     1      28.419 -23.879 -15.461  0.00  0.00    +0.119 C 
ATOM     17  C   UNL     1      28.583 -24.543 -14.276  0.00  0.00    +0.119 C 
ENDBRANCH   4  10
BRANCH   3  20
ATOM     18  F   UNL     1      37.878 -25.340 -11.770  0.00  0.00    -0.202 F 
ATOM     19  N   UNL     1      36.329 -24.603 -14.972  0.00  0.00    -0.407 NA
ATOM     20  C   UNL     1      36.139 -23.273 -14.812  0.00  0.00    +0.127 C 
ATOM     21  C   UNL     1      36.500 -22.570 -13.675  0.00  0.00    +0.089 C 
ATOM     22  C   UNL     1      36.909 -25.255 -13.940  0.00  0.00    +0.136 C 
ATOM     23  C   UNL     1      37.095 -23.275 -12.634  0.00  0.00    +0.013 C 
ATOM     24  C   UNL     1      37.307 -24.644 -12.762  0.00  0.00    +0.161 C 
ATOM     25  C   UNL     1      37.118 -26.723 -14.113  0.00  0.00    +0.069 C 
ENDBRANCH   3  20
BRANCH   5  27
ATOM     26  O   UNL     1      33.821 -20.215 -20.081  0.00  0.00    -0.275 OA
ATOM     27  N   UNL     1      35.786 -20.700 -18.858  0.00  0.00    -0.274 N 
ATOM     28  C   UNL     1      35.036 -20.139 -19.921  0.00  0.00    +0.225 C 
ATOM     29  C   UNL     1      35.898 -19.388 -20.905  0.00  0.00    +0.095 C 
ATOM     30  H   UNL     1      36.756 -20.538 -18.892  0.00  0.00    +0.152 HD
ENDBRANCH   5  27
TORSDOF 3
ENDMDL
MODEL 6
REMARK VINA RESULT:     -10.9      2.430      5.764
REMARK  Name = 25138294
REMARK  3 active torsions:
REMARK  status: ('A' for Active; 'I' for Inactive)
REMARK    1  A    between atoms: N_4  and  C_7
REMARK    2  A    between atoms: C_5  and  C_25
REMARK    3  A    between atoms: C_6  and  C_15
REMARK                            x       y       z     vdW  Elec       q    Type
REMARK                         _______ _______ _______ _____ _____    ______ ____
ROOT
ATOM      1  N   UNL     1      33.087 -24.746 -13.789  0.00  0.00    -0.300 N 
ATOM      2  N   UNL     1      32.183 -23.419 -15.324  0.00  0.00    -0.302 N 
ATOM      3  C   UNL     1      34.134 -24.203 -14.479  0.00  0.00    +0.086 C 
ATOM      4  C   UNL     1      33.552 -23.390 -15.421  0.00  0.00    +0.058 C 
ATOM      5  C   UNL     1      31.936 -24.246 -14.332  0.00  0.00    +0.227 C 
ATOM      6  H   UNL     1      33.149 -25.380 -13.039  0.00  0.00    +0.150 HD
ATOM      7  H   UNL     1      31.530 -22.930 -15.875  0.00  0.00    +0.150 HD
ENDROOT
BRANCH   4  10
ATOM      8  N   UNL     1      33.623 -20.998 -19.612  0.00  0.00    -0.245 NA
ATOM      9  N   UNL     1      36.284 -20.315 -19.197  0.00  0.00    -0.245 NA
ATOM     10  C   UNL     1      34.256 -22.598 -16.391  0.00  0.00    -0.006 C 
ATOM     11  C   UNL     1      33.609 -22.167 -17.548  0.00  0.00    +0.074 C 
ATOM     12  C   UNL     1      35.585 -22.257 -16.183  0.00  0.00    -0.022 C 
ATOM     13  C   UNL     1      34.269 -21.400 -18.504  0.00  0.00    +0.077 C 
ATOM     14  C   UNL     1      35.616 -21.056 -18.293  0.00  0.00    +0.077 C 
ATOM     15  C   UNL     1      36.254 -21.490 -17.135  0.00  0.00    +0.073 C 
ATOM     16  C   UNL     1      34.308 -20.259 -20.503  0.00  0.00    +0.119 C 
ATOM     17  C   UNL     1      35.620 -19.922 -20.298  0.00  0.00    +0.119 C 
ENDBRANCH   4  10
BRANCH   3  20
ATOM     18  F   UNL     1      39.377 -25.214 -13.128  0.00  0.00    -0.202 F 
ATOM     19  N   UNL     1      36.033 -23.797 -13.152  0.00  0.00    -0.407 NA
ATOM     20  C   UNL     1      35.510 -24.512 -14.173  0.00  0.00    +0.127 C 
ATOM     21  C   UNL     1      36.210 -25.470 -14.887  0.00  0.00    +0.089 C 
ATOM     22  C   UNL     1      37.321 -24.057 -12.834  0.00  0.00    +0.136 C 
ATOM     23  C   UNL     1      37.532 -25.711 -14.531  0.00  0.00    +0.013 C 
ATOM     24  C   UNL     1      38.105 -24.996 -13.485  0.00  0.00    +0.161 C 
ATOM     25  C   UNL     1      37.901 -23.269 -11.708  0.00  0.00    +0.069 C 
ENDBRANCH   3  20
BRANCH   5  27
ATOM     26  O   UNL     1      29.304 -24.676 -15.730  0.00  0.00    -0.275 OA
ATOM     27  N   UNL     1      30.714 -24.617 -13.834  0.00  0.00    -0.274 N 
ATOM     28  C   UNL     1      29.493 -24.811 -14.525  0.00  0.00    +0.225 C 
ATOM     29  C   UNL     1      28.369 -25.227 -13.609  0.00  0.00    +0.095 C 
ATOM     30  H   UNL     1      30.681 -24.771 -12.862  0.00  0.00    +0.152 HD
ENDBRANCH   5  27
TORSDOF 3
ENDMDL
MODEL 7
REMARK VINA RESULT:     -10.6      2.817      6.639
REMARK  Name = 25138294
REMARK  3 active torsions:
REMARK  status: ('A' for Active; 'I' for Inactive)
REMARK    1  A    between atoms: N_4  and  C_7
REMARK    2  A    between atoms: C_5  and  C_25
REMARK    3  A    between atoms: C_6  and  C_15
REMARK                            x       y       z     vdW  Elec       q    Type
REMARK                         _______ _______ _______ _____ _____    ______ ____
ROOT
ATOM      1  N   UNL     1      36.321 -21.650 -17.357  0.00  0.00    -0.300 N 
ATOM      2  N   UNL     1      34.262 -21.401 -18.154  0.00  0.00    -0.302 N 
ATOM      3  C   UNL     1      35.496 -22.275 -16.465  0.00  0.00    +0.086 C 
ATOM      4  C   UNL     1      34.232 -22.107 -16.977  0.00  0.00    +0.058 C 
ATOM      5  C   UNL     1      35.535 -21.141 -18.354  0.00  0.00    +0.227 C 
ATOM      6  H   UNL     1      37.300 -21.578 -17.295  0.00  0.00    +0.150 HD
ATOM      7  H   UNL     1      33.500 -21.146 -18.722  0.00  0.00    +0.150 HD
ENDROOT
BRANCH   4  10
ATOM      8  N   UNL     1      31.944 -24.289 -13.330  0.00  0.00    -0.245 NA
ATOM      9  N   UNL     1      29.522 -24.017 -14.665  0.00  0.00    -0.245 NA
ATOM     10  C   UNL     1      33.019 -22.597 -16.384  0.00  0.00    -0.006 C 
ATOM     11  C   UNL     1      33.049 -23.213 -15.134  0.00  0.00    +0.074 C 
ATOM     12  C   UNL     1      31.810 -22.461 -17.050  0.00  0.00    -0.022 C 
ATOM     13  C   UNL     1      31.888 -23.698 -14.537  0.00  0.00    +0.077 C 
ATOM     14  C   UNL     1      30.663 -23.560 -15.213  0.00  0.00    +0.077 C 
ATOM     15  C   UNL     1      30.642 -22.943 -16.461  0.00  0.00    +0.073 C 
ATOM     16  C   UNL     1      30.792 -24.738 -12.800  0.00  0.00    +0.119 C 
ATOM     17  C   UNL     1      29.599 -24.604 -13.457  0.00  0.00    +0.119 C 
ENDBRANCH   4  10
BRANCH   3  20
ATOM     18  F   UNL     1      37.361 -24.993 -12.053  0.00  0.00    -0.202 F 
ATOM     19  N   UNL     1      36.091 -24.274 -15.379  0.00  0.00    -0.407 NA
ATOM     20  C   UNL     1      35.988 -22.930 -15.278  0.00  0.00    +0.127 C 
ATOM     21  C   UNL     1      36.322 -22.210 -14.143  0.00  0.00    +0.089 C 
ATOM     22  C   UNL     1      36.550 -24.925 -14.287  0.00  0.00    +0.136 C 
ATOM     23  C   UNL     1      36.792 -22.914 -13.040  0.00  0.00    +0.013 C 
ATOM     24  C   UNL     1      36.911 -24.298 -13.106  0.00  0.00    +0.161 C 
ATOM     25  C   UNL     1      36.663 -26.409 -14.395  0.00  0.00    +0.069 C 
ENDBRANCH   3  20
BRANCH   5  27
ATOM     26  O   UNL     1      34.291 -19.269 -20.358  0.00  0.00    -0.275 OA
ATOM     27  N   UNL     1      36.097 -20.456 -19.400  0.00  0.00    -0.274 N 
ATOM     28  C   UNL     1      35.477 -19.580 -20.325  0.00  0.00    +0.225 C 
ATOM     29  C   UNL     1      36.450 -19.019 -21.332  0.00  0.00    +0.095 C 
ATOM     30  H   UNL     1      37.064 -20.591 -19.525  0.00  0.00    +0.152 HD
ENDBRANCH   5  27
TORSDOF 3
ENDMDL
MODEL 8
REMARK VINA RESULT:     -10.5      3.040      5.554
REMARK  Name = 25138294
REMARK  3 active torsions:
REMARK  status: ('A' for Active; 'I' for Inactive)
REMARK    1  A    between atoms: N_4  and  C_7
REMARK    2  A    between atoms: C_5  and  C_25
REMARK    3  A    between atoms: C_6  and  C_15
REMARK                            x       y       z     vdW  Elec       q    Type
REMARK                         _______ _______ _______ _____ _____    ______ ____
ROOT
ATOM      1  N   UNL     1      32.191 -21.770 -18.112  0.00  0.00    -0.300 N 
ATOM      2  N   UNL     1      34.397 -21.879 -17.872  0.00  0.00    -0.302 N 
ATOM      3  C   UNL     1      32.408 -22.454 -16.949  0.00  0.00    +0.086 C 
ATOM      4  C   UNL     1      33.776 -22.509 -16.823  0.00  0.00    +0.058 C 
ATOM      5  C   UNL     1      33.415 -21.445 -18.630  0.00  0.00    +0.227 C 
ATOM      6  H   UNL     1      31.316 -21.551 -18.504  0.00  0.00    +0.150 HD
ATOM      7  H   UNL     1      35.364 -21.775 -18.024  0.00  0.00    +0.150 HD
ENDROOT
BRANCH   4  10
ATOM      8  N   UNL     1      36.318 -22.168 -12.735  0.00  0.00    -0.245 NA
ATOM      9  N   UNL     1      36.557 -24.934 -12.632  0.00  0.00    -0.245 NA
ATOM     10  C   UNL     1      34.491 -23.135 -15.745  0.00  0.00    -0.006 C 
ATOM     11  C   UNL     1      35.069 -22.357 -14.743  0.00  0.00    +0.074 C 
ATOM     12  C   UNL     1      34.610 -24.516 -15.694  0.00  0.00    -0.022 C 
ATOM     13  C   UNL     1      35.768 -22.939 -13.688  0.00  0.00    +0.077 C 
ATOM     14  C   UNL     1      35.889 -24.339 -13.638  0.00  0.00    +0.077 C 
ATOM     15  C   UNL     1      35.307 -25.107 -14.642  0.00  0.00    +0.073 C 
ATOM     16  C   UNL     1      36.982 -22.781 -11.739  0.00  0.00    +0.119 C 
ATOM     17  C   UNL     1      37.100 -24.144 -11.688  0.00  0.00    +0.119 C 
ENDBRANCH   4  10
BRANCH   3  20
ATOM     18  F   UNL     1      28.471 -24.453 -13.658  0.00  0.00    -0.202 F 
ATOM     19  N   UNL     1      31.733 -23.617 -15.020  0.00  0.00    -0.407 NA
ATOM     20  C   UNL     1      31.333 -22.954 -16.129  0.00  0.00    +0.127 C 
ATOM     21  C   UNL     1      30.008 -22.753 -16.476  0.00  0.00    +0.089 C 
ATOM     22  C   UNL     1      30.753 -24.101 -14.224  0.00  0.00    +0.136 C 
ATOM     23  C   UNL     1      29.028 -23.264 -15.632  0.00  0.00    +0.013 C 
ATOM     24  C   UNL     1      29.400 -23.952 -14.482  0.00  0.00    +0.161 C 
ATOM     25  C   UNL     1      31.191 -24.835 -13.000  0.00  0.00    +0.069 C 
ENDBRANCH   3  20
BRANCH   5  27
ATOM     26  O   UNL     1      35.693 -19.847 -19.780  0.00  0.00    -0.275 OA
ATOM     27  N   UNL     1      33.507 -20.747 -19.806  0.00  0.00    -0.274 N 
ATOM     28  C   UNL     1      34.600 -20.004 -20.316  0.00  0.00    +0.225 C 
ATOM     29  C   UNL     1      34.302 -19.383 -21.657  0.00  0.00    +0.095 C 
ATOM     30  H   UNL     1      32.704 -20.764 -20.374  0.00  0.00    +0.152 HD
ENDBRANCH   5  27
TORSDOF 3
ENDMDL
MODEL 9
REMARK VINA RESULT:     -10.2      2.836      6.252
REMARK  Name = 25138294
REMARK  3 active torsions:
REMARK  status: ('A' for Active; 'I' for Inactive)
REMARK    1  A    between atoms: N_4  and  C_7
REMARK    2  A    between atoms: C_5  and  C_25
REMARK    3  A    between atoms: C_6  and  C_15
REMARK                            x       y       z     vdW  Elec       q    Type
REMARK                         _______ _______ _______ _____ _____    ______ ____
ROOT
ATOM      1  N   UNL     1      34.569 -21.390 -18.611  0.00  0.00    -0.300 N 
ATOM      2  N   UNL     1      32.360 -21.504 -18.410  0.00  0.00    -0.302 N 
ATOM      3  C   UNL     1      34.333 -22.006 -17.414  0.00  0.00    +0.086 C 
ATOM      4  C   UNL     1      32.964 -22.064 -17.312  0.00  0.00    +0.058 C 
ATOM      5  C   UNL     1      33.354 -21.108 -19.173  0.00  0.00    +0.227 C 
ATOM      6  H   UNL     1      35.450 -21.188 -18.999  0.00  0.00    +0.150 HD
ATOM      7  H   UNL     1      31.395 -21.418 -18.587  0.00  0.00    +0.150 HD
ENDROOT
BRANCH   4  10
ATOM      8  N   UNL     1      29.135 -24.480 -15.639  0.00  0.00    -0.245 NA
ATOM      9  N   UNL     1      30.113 -24.268 -13.047  0.00  0.00    -0.245 NA
ATOM     10  C   UNL     1      32.232 -22.631 -16.213  0.00  0.00    -0.006 C 
ATOM     11  C   UNL     1      31.026 -23.291 -16.441  0.00  0.00    +0.074 C 
ATOM     12  C   UNL     1      32.720 -22.525 -14.919  0.00  0.00    -0.022 C 
ATOM     13  C   UNL     1      30.296 -23.849 -15.394  0.00  0.00    +0.077 C 
ATOM     14  C   UNL     1      30.791 -23.741 -14.082  0.00  0.00    +0.077 C 
ATOM     15  C   UNL     1      31.997 -23.080 -13.865  0.00  0.00    +0.073 C 
ATOM     16  C   UNL     1      28.471 -25.000 -14.591  0.00  0.00    +0.119 C 
ATOM     17  C   UNL     1      28.953 -24.896 -13.314  0.00  0.00    +0.119 C 
ENDBRANCH   4  10
BRANCH   3  20
ATOM     18  F   UNL     1      38.250 -23.887 -14.030  0.00  0.00    -0.202 F 
ATOM     19  N   UNL     1      35.128 -23.584 -15.862  0.00  0.00    -0.407 NA
ATOM     20  C   UNL     1      35.395 -22.447 -16.544  0.00  0.00    +0.127 C 
ATOM     21  C   UNL     1      36.582 -21.742 -16.441  0.00  0.00    +0.089 C 
ATOM     22  C   UNL     1      36.100 -24.031 -15.036  0.00  0.00    +0.136 C 
ATOM     23  C   UNL     1      37.559 -22.233 -15.582  0.00  0.00    +0.013 C 
ATOM     24  C   UNL     1      37.321 -23.399 -14.863  0.00  0.00    +0.161 C 
ATOM     25  C   UNL     1      35.807 -25.284 -14.280  0.00  0.00    +0.069 C 
ENDBRANCH   3  20
BRANCH   5  27
ATOM     26  O   UNL     1      35.161 -19.053 -20.429  0.00  0.00    -0.275 OA
ATOM     27  N   UNL     1      33.280 -20.485 -20.392  0.00  0.00    -0.274 N 
ATOM     28  C   UNL     1      34.153 -19.520 -20.951  0.00  0.00    +0.225 C 
ATOM     29  C   UNL     1      33.724 -19.082 -22.329  0.00  0.00    +0.095 C 
ATOM     30  H   UNL     1      32.517 -20.745 -20.956  0.00  0.00    +0.152 HD
ENDBRANCH   5  27
TORSDOF 3
ENDMDL
