MODEL 1
REMARK VINA RESULT:     -11.3      0.000      0.000
REMARK  Name = 6433114
REMARK  8 active torsions:
REMARK  status: ('A' for Active; 'I' for Inactive)
REMARK    1  A    between atoms: C_3  and  O_15
REMARK    2  A    between atoms: C_5  and  C_9
REMARK    3  A    between atoms: O_15  and  C_16
REMARK    4  A    between atoms: C_16  and  C_17
REMARK    5  A    between atoms: C_17  and  C_18
REMARK    6  A    between atoms: C_18  and  C_19
REMARK    7  A    between atoms: C_19  and  C_20
REMARK    8  A    between atoms: C_20  and  N_21
REMARK                            x       y       z     vdW  Elec       q    Type
REMARK                         _______ _______ _______ _____ _____    ______ ____
ROOT
ATOM      1  N   UNL     1      31.049 -22.374 -16.770  0.00  0.00    -0.311 NA
ATOM      2  N   UNL     1      32.503 -23.284 -15.077  0.00  0.00    -0.347 NA
ATOM      3  C   UNL     1      32.140 -22.142 -17.527  0.00  0.00    +0.270 C 
ATOM      4  C   UNL     1      33.427 -22.448 -17.134  0.00  0.00    +0.159 C 
ATOM      5  C   UNL     1      33.549 -23.023 -15.887  0.00  0.00    +0.132 C 
ATOM      6  C   UNL     1      31.300 -22.940 -15.573  0.00  0.00    +0.117 C 
ATOM      7  C   UNL     1      30.118 -23.213 -14.706  0.00  0.00    +0.143 C 
ENDROOT
BRANCH   5   9
ATOM      8  F   UNL     1      38.541 -24.445 -13.848  0.00  0.00    -0.204 F 
ATOM      9  C   UNL     1      34.841 -23.391 -15.359  0.00  0.00    +0.027 C 
ATOM     10  C   UNL     1      34.989 -24.571 -14.626  0.00  0.00    +0.005 C 
ATOM     11  C   UNL     1      35.949 -22.569 -15.579  0.00  0.00    +0.005 C 
ATOM     12  C   UNL     1      36.238 -24.926 -14.116  0.00  0.00    +0.030 C 
ATOM     13  C   UNL     1      37.198 -22.924 -15.069  0.00  0.00    +0.030 C 
ATOM     14  C   UNL     1      37.342 -24.102 -14.337  0.00  0.00    +0.140 C 
ENDBRANCH   5   9
BRANCH   3  15
ATOM     15  O   UNL     1      31.935 -21.566 -18.754  0.00  0.00    -0.454 OA
BRANCH  15  16
ATOM     16  C   UNL     1      33.069 -21.441 -19.602  0.00  0.00    +0.208 C 
BRANCH  16  17
ATOM     17  C   UNL     1      33.095 -20.056 -20.236  0.00  0.00    +0.047 C 
BRANCH  17  18
ATOM     18  C   UNL     1      34.494 -19.667 -20.719  0.00  0.00    +0.002 C 
BRANCH  18  19
ATOM     19  C   UNL     1      34.425 -18.641 -21.853  0.00  0.00    -0.023 C 
BRANCH  19  20
ATOM     20  C   UNL     1      35.315 -17.434 -21.562  0.00  0.00    -0.077 C 
BRANCH  20  21
ATOM     21  N   UNL     1      34.996 -16.335 -22.473  0.00  0.00    +0.387 N 
ATOM     22  C   UNL     1      34.238 -16.831 -23.632  0.00  0.00    -0.077 C 
ATOM     23  C   UNL     1      34.255 -15.281 -21.767  0.00  0.00    -0.077 C 
ATOM     24  C   UNL     1      33.939 -15.702 -24.619  0.00  0.00    -0.023 C 
ATOM     25  C   UNL     1      33.957 -14.101 -22.694  0.00  0.00    -0.023 C 
ATOM     26  C   UNL     1      33.204 -14.552 -23.940  0.00  0.00    -0.004 C 
ATOM     27  H   UNL     1      35.867 -15.932 -22.817  0.00  0.00    -0.080 HD
ENDBRANCH  20  21
ENDBRANCH  19  20
ENDBRANCH  18  19
ENDBRANCH  17  18
ENDBRANCH  16  17
ENDBRANCH  15  16
ENDBRANCH   3  15
TORSDOF 8
ENDMDL
MODEL 2
REMARK VINA RESULT:     -11.3      3.458      9.250
REMARK  Name = 6433114
REMARK  8 active torsions:
REMARK  status: ('A' for Active; 'I' for Inactive)
REMARK    1  A    between atoms: C_3  and  O_15
REMARK    2  A    between atoms: C_5  and  C_9
REMARK    3  A    between atoms: O_15  and  C_16
REMARK    4  A    between atoms: C_16  and  C_17
REMARK    5  A    between atoms: C_17  and  C_18
REMARK    6  A    between atoms: C_18  and  C_19
REMARK    7  A    between atoms: C_19  and  C_20
REMARK    8  A    between atoms: C_20  and  N_21
REMARK                            x       y       z     vdW  Elec       q    Type
REMARK                         _______ _______ _______ _____ _____    ______ ____
ROOT
ATOM      1  N   UNL     1      34.896 -22.388 -16.973  0.00  0.00    -0.311 NA
ATOM      2  N   UNL     1      36.002 -20.777 -18.383  0.00  0.00    -0.347 NA
ATOM      3  C   UNL     1      33.820 -22.299 -17.781  0.00  0.00    +0.270 C 
ATOM      4  C   UNL     1      33.760 -21.484 -18.893  0.00  0.00    +0.159 C 
ATOM      5  C   UNL     1      34.892 -20.738 -19.148  0.00  0.00    +0.132 C 
ATOM      6  C   UNL     1      35.937 -21.611 -17.328  0.00  0.00    +0.117 C 
ATOM      7  C   UNL     1      37.146 -21.681 -16.459  0.00  0.00    +0.143 C 
ENDROOT
BRANCH   5   9
ATOM      8  F   UNL     1      35.146 -17.291 -23.523  0.00  0.00    -0.204 F 
ATOM      9  C   UNL     1      34.957 -19.845 -20.279  0.00  0.00    +0.027 C 
ATOM     10  C   UNL     1      36.120 -19.111 -20.528  0.00  0.00    +0.005 C 
ATOM     11  C   UNL     1      33.860 -19.713 -21.133  0.00  0.00    +0.005 C 
ATOM     12  C   UNL     1      36.183 -18.249 -21.622  0.00  0.00    +0.030 C 
ATOM     13  C   UNL     1      33.923 -18.850 -22.228  0.00  0.00    +0.030 C 
ATOM     14  C   UNL     1      35.084 -18.118 -22.471  0.00  0.00    +0.140 C 
ENDBRANCH   5   9
BRANCH   3  15
ATOM     15  O   UNL     1      32.734 -23.071 -17.459  0.00  0.00    -0.454 OA
BRANCH  15  16
ATOM     16  C   UNL     1      31.612 -22.400 -16.904  0.00  0.00    +0.208 C 
BRANCH  16  17
ATOM     17  C   UNL     1      31.213 -23.055 -15.587  0.00  0.00    +0.047 C 
BRANCH  17  18
ATOM     18  C   UNL     1      32.219 -22.767 -14.469  0.00  0.00    +0.002 C 
BRANCH  18  19
ATOM     19  C   UNL     1      32.990 -24.029 -14.076  0.00  0.00    -0.023 C 
BRANCH  19  20
ATOM     20  C   UNL     1      34.215 -23.687 -13.230  0.00  0.00    -0.077 C 
BRANCH  20  21
ATOM     21  N   UNL     1      35.208 -24.757 -13.318  0.00  0.00    +0.387 N 
ATOM     22  C   UNL     1      35.526 -25.050 -14.723  0.00  0.00    -0.077 C 
ATOM     23  C   UNL     1      36.418 -24.399 -12.564  0.00  0.00    -0.077 C 
ATOM     24  C   UNL     1      36.527 -26.202 -14.833  0.00  0.00    -0.023 C 
ATOM     25  C   UNL     1      37.448 -25.529 -12.604  0.00  0.00    -0.023 C 
ATOM     26  C   UNL     1      37.794 -25.912 -14.038  0.00  0.00    -0.004 C 
ATOM     27  H   UNL     1      34.816 -25.601 -12.901  0.00  0.00    -0.080 HD
ENDBRANCH  20  21
ENDBRANCH  19  20
ENDBRANCH  18  19
ENDBRANCH  17  18
ENDBRANCH  16  17
ENDBRANCH  15  16
ENDBRANCH   3  15
TORSDOF 8
ENDMDL
MODEL 3
REMARK VINA RESULT:     -11.2      4.224      7.506
REMARK  Name = 6433114
REMARK  8 active torsions:
REMARK  status: ('A' for Active; 'I' for Inactive)
REMARK    1  A    between atoms: C_3  and  O_15
REMARK    2  A    between atoms: C_5  and  C_9
REMARK    3  A    between atoms: O_15  and  C_16
REMARK    4  A    between atoms: C_16  and  C_17
REMARK    5  A    between atoms: C_17  and  C_18
REMARK    6  A    between atoms: C_18  and  C_19
REMARK    7  A    between atoms: C_19  and  C_20
REMARK    8  A    between atoms: C_20  and  N_21
REMARK                            x       y       z     vdW  Elec       q    Type
REMARK                         _______ _______ _______ _____ _____    ______ ____
ROOT
ATOM      1  N   UNL     1      33.831 -16.965 -23.921  0.00  0.00    -0.311 NA
ATOM      2  N   UNL     1      33.598 -19.123 -22.874  0.00  0.00    -0.347 NA
ATOM      3  C   UNL     1      34.484 -16.544 -22.820  0.00  0.00    +0.270 C 
ATOM      4  C   UNL     1      34.730 -17.341 -21.720  0.00  0.00    +0.159 C 
ATOM      5  C   UNL     1      34.259 -18.634 -21.805  0.00  0.00    +0.132 C 
ATOM      6  C   UNL     1      33.422 -18.248 -23.882  0.00  0.00    +0.117 C 
ATOM      7  C   UNL     1      32.695 -18.751 -25.082  0.00  0.00    +0.143 C 
ENDROOT
BRANCH   5   9
ATOM      8  F   UNL     1      34.997 -22.243 -17.618  0.00  0.00    -0.204 F 
ATOM      9  C   UNL     1      34.450 -19.569 -20.722  0.00  0.00    +0.027 C 
ATOM     10  C   UNL     1      35.736 -19.840 -20.248  0.00  0.00    +0.005 C 
ATOM     11  C   UNL     1      33.350 -20.205 -20.141  0.00  0.00    +0.005 C 
ATOM     12  C   UNL     1      35.920 -20.744 -19.201  0.00  0.00    +0.030 C 
ATOM     13  C   UNL     1      33.534 -21.108 -19.094  0.00  0.00    +0.030 C 
ATOM     14  C   UNL     1      34.820 -21.377 -18.625  0.00  0.00    +0.140 C 
ENDBRANCH   5   9
BRANCH   3  15
ATOM     15  O   UNL     1      34.920 -15.244 -22.813  0.00  0.00    -0.454 OA
BRANCH  15  16
ATOM     16  C   UNL     1      34.019 -14.263 -23.309  0.00  0.00    +0.208 C 
BRANCH  16  17
ATOM     17  C   UNL     1      33.856 -13.143 -22.290  0.00  0.00    +0.047 C 
BRANCH  17  18
ATOM     18  C   UNL     1      33.353 -13.657 -20.939  0.00  0.00    +0.002 C 
BRANCH  18  19
ATOM     19  C   UNL     1      32.006 -13.029 -20.572  0.00  0.00    -0.023 C 
BRANCH  19  20
ATOM     20  C   UNL     1      31.490 -12.132 -21.696  0.00  0.00    -0.077 C 
BRANCH  20  21
ATOM     21  N   UNL     1      31.074 -10.836 -21.161  0.00  0.00    +0.387 N 
ATOM     22  C   UNL     1      31.536 -10.679 -19.775  0.00  0.00    -0.077 C 
ATOM     23  C   UNL     1      31.571  -9.746 -22.013  0.00  0.00    -0.077 C 
ATOM     24  C   UNL     1      31.067  -9.348 -19.185  0.00  0.00    -0.023 C 
ATOM     25  C   UNL     1      31.103  -8.384 -21.496  0.00  0.00    -0.023 C 
ATOM     26  C   UNL     1      31.516  -8.172 -20.044  0.00  0.00    -0.004 C 
ATOM     27  H   UNL     1      30.055 -10.794 -21.160  0.00  0.00    -0.080 HD
ENDBRANCH  20  21
ENDBRANCH  19  20
ENDBRANCH  18  19
ENDBRANCH  17  18
ENDBRANCH  16  17
ENDBRANCH  15  16
ENDBRANCH   3  15
TORSDOF 8
ENDMDL
MODEL 4
REMARK VINA RESULT:     -11.0      2.429      3.865
REMARK  Name = 6433114
REMARK  8 active torsions:
REMARK  status: ('A' for Active; 'I' for Inactive)
REMARK    1  A    between atoms: C_3  and  O_15
REMARK    2  A    between atoms: C_5  and  C_9
REMARK    3  A    between atoms: O_15  and  C_16
REMARK    4  A    between atoms: C_16  and  C_17
REMARK    5  A    between atoms: C_17  and  C_18
REMARK    6  A    between atoms: C_18  and  C_19
REMARK    7  A    between atoms: C_19  and  C_20
REMARK    8  A    between atoms: C_20  and  N_21
REMARK                            x       y       z     vdW  Elec       q    Type
REMARK                         _______ _______ _______ _____ _____    ______ ____
ROOT
ATOM      1  N   UNL     1      35.555 -21.638 -17.904  0.00  0.00    -0.311 NA
ATOM      2  N   UNL     1      34.803 -22.510 -15.787  0.00  0.00    -0.347 NA
ATOM      3  C   UNL     1      34.291 -21.756 -18.358  0.00  0.00    +0.270 C 
ATOM      4  C   UNL     1      33.244 -22.235 -17.598  0.00  0.00    +0.159 C 
ATOM      5  C   UNL     1      33.562 -22.601 -16.307  0.00  0.00    +0.132 C 
ATOM      6  C   UNL     1      35.738 -22.027 -16.627  0.00  0.00    +0.117 C 
ATOM      7  C   UNL     1      37.123 -21.912 -16.088  0.00  0.00    +0.143 C 
ENDROOT
BRANCH   5   9
ATOM      8  F   UNL     1      29.680 -24.596 -12.837  0.00  0.00    -0.204 F 
ATOM      9  C   UNL     1      32.557 -23.118 -15.409  0.00  0.00    +0.027 C 
ATOM     10  C   UNL     1      32.935 -23.752 -14.223  0.00  0.00    +0.005 C 
ATOM     11  C   UNL     1      31.202 -22.984 -15.721  0.00  0.00    +0.005 C 
ATOM     12  C   UNL     1      31.963 -24.252 -13.356  0.00  0.00    +0.030 C 
ATOM     13  C   UNL     1      30.230 -23.484 -14.854  0.00  0.00    +0.030 C 
ATOM     14  C   UNL     1      30.612 -24.118 -13.672  0.00  0.00    +0.140 C 
ENDBRANCH   5   9
BRANCH   3  15
ATOM     15  O   UNL     1      34.057 -21.373 -19.653  0.00  0.00    -0.454 OA
BRANCH  15  16
ATOM     16  C   UNL     1      34.936 -20.402 -20.204  0.00  0.00    +0.208 C 
BRANCH  16  17
ATOM     17  C   UNL     1      34.137 -19.336 -20.944  0.00  0.00    +0.047 C 
BRANCH  17  18
ATOM     18  C   UNL     1      34.853 -18.847 -22.205  0.00  0.00    +0.002 C 
BRANCH  18  19
ATOM     19  C   UNL     1      35.255 -17.375 -22.081  0.00  0.00    -0.023 C 
BRANCH  19  20
ATOM     20  C   UNL     1      34.554 -16.520 -23.135  0.00  0.00    -0.077 C 
BRANCH  20  21
ATOM     21  N   UNL     1      34.425 -15.140 -22.667  0.00  0.00    +0.387 N 
ATOM     22  C   UNL     1      33.532 -14.379 -23.552  0.00  0.00    -0.077 C 
ATOM     23  C   UNL     1      33.947 -15.111 -21.278  0.00  0.00    -0.077 C 
ATOM     24  C   UNL     1      33.426 -12.920 -23.105  0.00  0.00    -0.023 C 
ATOM     25  C   UNL     1      33.855 -13.676 -20.756  0.00  0.00    -0.023 C 
ATOM     26  C   UNL     1      32.971 -12.817 -21.653  0.00  0.00    -0.004 C 
ATOM     27  H   UNL     1      35.345 -14.699 -22.693  0.00  0.00    -0.080 HD
ENDBRANCH  20  21
ENDBRANCH  19  20
ENDBRANCH  18  19
ENDBRANCH  17  18
ENDBRANCH  16  17
ENDBRANCH  15  16
ENDBRANCH   3  15
TORSDOF 8
ENDMDL
MODEL 5
REMARK VINA RESULT:     -10.9      2.496      4.051
REMARK  Name = 6433114
REMARK  8 active torsions:
REMARK  status: ('A' for Active; 'I' for Inactive)
REMARK    1  A    between atoms: C_3  and  O_15
REMARK    2  A    between atoms: C_5  and  C_9
REMARK    3  A    between atoms: O_15  and  C_16
REMARK    4  A    between atoms: C_16  and  C_17
REMARK    5  A    between atoms: C_17  and  C_18
REMARK    6  A    between atoms: C_18  and  C_19
REMARK    7  A    between atoms: C_19  and  C_20
REMARK    8  A    between atoms: C_20  and  N_21
REMARK                            x       y       z     vdW  Elec       q    Type
REMARK                         _______ _______ _______ _____ _____    ______ ____
ROOT
ATOM      1  N   UNL     1      36.691 -22.417 -16.093  0.00  0.00    -0.311 NA
ATOM      2  N   UNL     1      35.007 -23.449 -14.713  0.00  0.00    -0.347 NA
ATOM      3  C   UNL     1      35.703 -21.953 -16.885  0.00  0.00    +0.270 C 
ATOM      4  C   UNL     1      34.363 -22.192 -16.660  0.00  0.00    +0.159 C 
ATOM      5  C   UNL     1      34.071 -22.953 -15.548  0.00  0.00    +0.132 C 
ATOM      6  C   UNL     1      36.277 -23.147 -15.040  0.00  0.00    +0.117 C 
ATOM      7  C   UNL     1      37.341 -23.678 -14.140  0.00  0.00    +0.143 C 
ENDROOT
BRANCH   5   9
ATOM      8  F   UNL     1      28.802 -24.199 -14.213  0.00  0.00    -0.204 F 
ATOM      9  C   UNL     1      32.707 -23.275 -15.202  0.00  0.00    +0.027 C 
ATOM     10  C   UNL     1      31.660 -22.882 -16.038  0.00  0.00    +0.005 C 
ATOM     11  C   UNL     1      32.429 -23.983 -14.030  0.00  0.00    +0.005 C 
ATOM     12  C   UNL     1      30.342 -23.194 -15.703  0.00  0.00    +0.030 C 
ATOM     13  C   UNL     1      31.111 -24.294 -13.695  0.00  0.00    +0.030 C 
ATOM     14  C   UNL     1      30.068 -23.899 -14.532  0.00  0.00    +0.140 C 
ENDBRANCH   5   9
BRANCH   3  15
ATOM     15  O   UNL     1      36.075 -21.204 -17.972  0.00  0.00    -0.454 OA
BRANCH  15  16
ATOM     16  C   UNL     1      35.294 -21.352 -19.150  0.00  0.00    +0.208 C 
BRANCH  16  17
ATOM     17  C   UNL     1      35.484 -20.141 -20.054  0.00  0.00    +0.047 C 
BRANCH  17  18
ATOM     18  C   UNL     1      34.160 -19.641 -20.638  0.00  0.00    +0.002 C 
BRANCH  18  19
ATOM     19  C   UNL     1      34.393 -18.726 -21.843  0.00  0.00    -0.023 C 
BRANCH  19  20
ATOM     20  C   UNL     1      35.225 -17.504 -21.456  0.00  0.00    -0.077 C 
BRANCH  20  21
ATOM     21  N   UNL     1      34.975 -16.404 -22.388  0.00  0.00    +0.387 N 
ATOM     22  C   UNL     1      34.233 -16.884 -23.563  0.00  0.00    -0.077 C 
ATOM     23  C   UNL     1      34.256 -15.314 -21.715  0.00  0.00    -0.077 C 
ATOM     24  C   UNL     1      34.008 -15.755 -24.570  0.00  0.00    -0.023 C 
ATOM     25  C   UNL     1      34.031 -14.134 -22.661  0.00  0.00    -0.023 C 
ATOM     26  C   UNL     1      33.299 -14.570 -23.925  0.00  0.00    -0.004 C 
ATOM     27  H   UNL     1      35.872 -16.039 -22.709  0.00  0.00    -0.080 HD
ENDBRANCH  20  21
ENDBRANCH  19  20
ENDBRANCH  18  19
ENDBRANCH  17  18
ENDBRANCH  16  17
ENDBRANCH  15  16
ENDBRANCH   3  15
TORSDOF 8
ENDMDL
MODEL 6
REMARK VINA RESULT:     -10.8      3.909     10.165
REMARK  Name = 6433114
REMARK  8 active torsions:
REMARK  status: ('A' for Active; 'I' for Inactive)
REMARK    1  A    between atoms: C_3  and  O_15
REMARK    2  A    between atoms: C_5  and  C_9
REMARK    3  A    between atoms: O_15  and  C_16
REMARK    4  A    between atoms: C_16  and  C_17
REMARK    5  A    between atoms: C_17  and  C_18
REMARK    6  A    between atoms: C_18  and  C_19
REMARK    7  A    between atoms: C_19  and  C_20
REMARK    8  A    between atoms: C_20  and  N_21
REMARK                            x       y       z     vdW  Elec       q    Type
REMARK                         _______ _______ _______ _____ _____    ______ ____
ROOT
ATOM      1  N   UNL     1      35.004 -19.368 -22.152  0.00  0.00    -0.311 NA
ATOM      2  N   UNL     1      34.138 -17.435 -23.300  0.00  0.00    -0.347 NA
ATOM      3  C   UNL     1      35.276 -18.573 -21.097  0.00  0.00    +0.270 C 
ATOM      4  C   UNL     1      35.012 -17.219 -21.068  0.00  0.00    +0.159 C 
ATOM      5  C   UNL     1      34.436 -16.699 -22.209  0.00  0.00    +0.132 C 
ATOM      6  C   UNL     1      34.444 -18.742 -23.204  0.00  0.00    +0.117 C 
ATOM      7  C   UNL     1      34.129 -19.588 -24.391  0.00  0.00    +0.143 C 
ENDROOT
BRANCH   5   9
ATOM      8  F   UNL     1      33.175 -11.281 -22.588  0.00  0.00    -0.204 F 
ATOM      9  C   UNL     1      34.111 -15.297 -22.307  0.00  0.00    +0.027 C 
ATOM     10  C   UNL     1      33.960 -14.698 -23.560  0.00  0.00    +0.005 C 
ATOM     11  C   UNL     1      33.943 -14.533 -21.150  0.00  0.00    +0.005 C 
ATOM     12  C   UNL     1      33.645 -13.342 -23.654  0.00  0.00    +0.030 C 
ATOM     13  C   UNL     1      33.628 -13.177 -21.244  0.00  0.00    +0.030 C 
ATOM     14  C   UNL     1      33.480 -12.582 -22.497  0.00  0.00    +0.140 C 
ENDBRANCH   5   9
BRANCH   3  15
ATOM     15  O   UNL     1      35.848 -19.166 -20.002  0.00  0.00    -0.454 OA
BRANCH  15  16
ATOM     16  C   UNL     1      35.856 -20.586 -19.972  0.00  0.00    +0.208 C 
BRANCH  16  17
ATOM     17  C   UNL     1      34.881 -21.090 -18.916  0.00  0.00    +0.047 C 
BRANCH  17  18
ATOM     18  C   UNL     1      33.435 -21.095 -19.418  0.00  0.00    +0.002 C 
BRANCH  18  19
ATOM     19  C   UNL     1      32.486 -21.690 -18.374  0.00  0.00    -0.023 C 
BRANCH  19  20
ATOM     20  C   UNL     1      33.195 -22.734 -17.514  0.00  0.00    -0.077 C 
BRANCH  20  21
ATOM     21  N   UNL     1      32.361 -23.102 -16.370  0.00  0.00    +0.387 N 
ATOM     22  C   UNL     1      33.046 -22.781 -15.110  0.00  0.00    -0.077 C 
ATOM     23  C   UNL     1      31.056 -22.433 -16.450  0.00  0.00    -0.077 C 
ATOM     24  C   UNL     1      32.208 -23.205 -13.903  0.00  0.00    -0.023 C 
ATOM     25  C   UNL     1      30.152 -22.846 -15.287  0.00  0.00    -0.023 C 
ATOM     26  C   UNL     1      30.820 -22.576 -13.944  0.00  0.00    -0.004 C 
ATOM     27  H   UNL     1      32.201 -24.109 -16.393  0.00  0.00    -0.080 HD
ENDBRANCH  20  21
ENDBRANCH  19  20
ENDBRANCH  18  19
ENDBRANCH  17  18
ENDBRANCH  16  17
ENDBRANCH  15  16
ENDBRANCH   3  15
TORSDOF 8
ENDMDL
MODEL 7
REMARK VINA RESULT:     -10.8      4.344     10.778
REMARK  Name = 6433114
REMARK  8 active torsions:
REMARK  status: ('A' for Active; 'I' for Inactive)
REMARK    1  A    between atoms: C_3  and  O_15
REMARK    2  A    between atoms: C_5  and  C_9
REMARK    3  A    between atoms: O_15  and  C_16
REMARK    4  A    between atoms: C_16  and  C_17
REMARK    5  A    between atoms: C_17  and  C_18
REMARK    6  A    between atoms: C_18  and  C_19
REMARK    7  A    between atoms: C_19  and  C_20
REMARK    8  A    between atoms: C_20  and  N_21
REMARK                            x       y       z     vdW  Elec       q    Type
REMARK                         _______ _______ _______ _____ _____    ______ ____
ROOT
ATOM      1  N   UNL     1      34.973 -19.535 -22.121  0.00  0.00    -0.311 NA
ATOM      2  N   UNL     1      34.181 -17.568 -23.266  0.00  0.00    -0.347 NA
ATOM      3  C   UNL     1      35.211 -18.763 -21.041  0.00  0.00    +0.270 C 
ATOM      4  C   UNL     1      34.965 -17.407 -20.997  0.00  0.00    +0.159 C 
ATOM      5  C   UNL     1      34.444 -16.857 -22.150  0.00  0.00    +0.132 C 
ATOM      6  C   UNL     1      34.465 -18.881 -23.183  0.00  0.00    +0.117 C 
ATOM      7  C   UNL     1      34.187 -19.701 -24.397  0.00  0.00    +0.143 C 
ENDROOT
BRANCH   5   9
ATOM      8  F   UNL     1      33.274 -11.415 -22.476  0.00  0.00    -0.204 F 
ATOM      9  C   UNL     1      34.142 -15.449 -22.234  0.00  0.00    +0.027 C 
ATOM     10  C   UNL     1      33.997 -14.836 -23.481  0.00  0.00    +0.005 C 
ATOM     11  C   UNL     1      33.991 -14.692 -21.069  0.00  0.00    +0.005 C 
ATOM     12  C   UNL     1      33.705 -13.474 -23.562  0.00  0.00    +0.030 C 
ATOM     13  C   UNL     1      33.699 -13.330 -21.150  0.00  0.00    +0.030 C 
ATOM     14  C   UNL     1      33.556 -12.722 -22.397  0.00  0.00    +0.140 C 
ENDBRANCH   5   9
BRANCH   3  15
ATOM     15  O   UNL     1      35.730 -19.384 -19.934  0.00  0.00    -0.454 OA
BRANCH  15  16
ATOM     16  C   UNL     1      35.668 -20.804 -19.907  0.00  0.00    +0.208 C 
BRANCH  16  17
ATOM     17  C   UNL     1      35.288 -21.282 -18.512  0.00  0.00    +0.047 C 
BRANCH  17  18
ATOM     18  C   UNL     1      36.397 -21.024 -17.489  0.00  0.00    +0.002 C 
BRANCH  18  19
ATOM     19  C   UNL     1      36.197 -21.869 -16.228  0.00  0.00    -0.023 C 
BRANCH  19  20
ATOM     20  C   UNL     1      37.524 -22.441 -15.731  0.00  0.00    -0.077 C 
BRANCH  20  21
ATOM     21  N   UNL     1      37.301 -23.702 -15.023  0.00  0.00    +0.387 N 
ATOM     22  C   UNL     1      38.582 -24.303 -14.628  0.00  0.00    -0.077 C 
ATOM     23  C   UNL     1      36.432 -23.490 -13.857  0.00  0.00    -0.077 C 
ATOM     24  C   UNL     1      38.368 -25.648 -13.930  0.00  0.00    -0.023 C 
ATOM     25  C   UNL     1      36.147 -24.808 -13.135  0.00  0.00    -0.023 C 
ATOM     26  C   UNL     1      37.439 -25.507 -12.729  0.00  0.00    -0.004 C 
ATOM     27  H   UNL     1      36.830 -24.351 -15.653  0.00  0.00    -0.080 HD
ENDBRANCH  20  21
ENDBRANCH  19  20
ENDBRANCH  18  19
ENDBRANCH  17  18
ENDBRANCH  16  17
ENDBRANCH  15  16
ENDBRANCH   3  15
TORSDOF 8
ENDMDL
MODEL 8
REMARK VINA RESULT:     -10.6      5.425      9.034
REMARK  Name = 6433114
REMARK  8 active torsions:
REMARK  status: ('A' for Active; 'I' for Inactive)
REMARK    1  A    between atoms: C_3  and  O_15
REMARK    2  A    between atoms: C_5  and  C_9
REMARK    3  A    between atoms: O_15  and  C_16
REMARK    4  A    between atoms: C_16  and  C_17
REMARK    5  A    between atoms: C_17  and  C_18
REMARK    6  A    between atoms: C_18  and  C_19
REMARK    7  A    between atoms: C_19  and  C_20
REMARK    8  A    between atoms: C_20  and  N_21
REMARK                            x       y       z     vdW  Elec       q    Type
REMARK                         _______ _______ _______ _____ _____    ______ ____
ROOT
ATOM      1  N   UNL     1      33.594 -14.194 -23.007  0.00  0.00    -0.311 NA
ATOM      2  N   UNL     1      34.261 -16.504 -23.166  0.00  0.00    -0.347 NA
ATOM      3  C   UNL     1      33.734 -14.286 -21.669  0.00  0.00    +0.270 C 
ATOM      4  C   UNL     1      34.127 -15.435 -21.015  0.00  0.00    +0.159 C 
ATOM      5  C   UNL     1      34.380 -16.524 -21.822  0.00  0.00    +0.132 C 
ATOM      6  C   UNL     1      33.870 -15.325 -23.684  0.00  0.00    +0.117 C 
ATOM      7  C   UNL     1      33.726 -15.264 -25.167  0.00  0.00    +0.143 C 
ENDROOT
BRANCH   5   9
ATOM      8  F   UNL     1      35.997 -21.403 -19.660  0.00  0.00    -0.204 F 
ATOM      9  C   UNL     1      34.799 -17.786 -21.262  0.00  0.00    +0.027 C 
ATOM     10  C   UNL     1      33.850 -18.758 -20.936  0.00  0.00    +0.005 C 
ATOM     11  C   UNL     1      36.155 -18.042 -21.044  0.00  0.00    +0.005 C 
ATOM     12  C   UNL     1      34.255 -19.979 -20.395  0.00  0.00    +0.030 C 
ATOM     13  C   UNL     1      36.560 -19.263 -20.503  0.00  0.00    +0.030 C 
ATOM     14  C   UNL     1      35.609 -20.230 -20.178  0.00  0.00    +0.140 C 
ENDBRANCH   5   9
BRANCH   3  15
ATOM     15  O   UNL     1      33.462 -13.159 -20.936  0.00  0.00    -0.454 OA
BRANCH  15  16
ATOM     16  C   UNL     1      32.128 -13.001 -20.474  0.00  0.00    +0.208 C 
BRANCH  16  17
ATOM     17  C   UNL     1      31.538 -11.708 -21.022  0.00  0.00    +0.047 C 
BRANCH  17  18
ATOM     18  C   UNL     1      31.448 -10.614 -19.955  0.00  0.00    +0.002 C 
BRANCH  18  19
ATOM     19  C   UNL     1      30.853  -9.325 -20.529  0.00  0.00    -0.023 C 
BRANCH  19  20
ATOM     20  C   UNL     1      30.930  -9.312 -22.054  0.00  0.00    -0.077 C 
BRANCH  20  21
ATOM     21  N   UNL     1      31.710  -8.164 -22.514  0.00  0.00    +0.387 N 
ATOM     22  C   UNL     1      31.865  -7.180 -21.432  0.00  0.00    -0.077 C 
ATOM     23  C   UNL     1      33.017  -8.601 -23.024  0.00  0.00    -0.077 C 
ATOM     24  C   UNL     1      32.637  -5.950 -21.912  0.00  0.00    -0.023 C 
ATOM     25  C   UNL     1      33.826  -7.418 -23.556  0.00  0.00    -0.023 C 
ATOM     26  C   UNL     1      33.992  -6.338 -22.493  0.00  0.00    -0.004 C 
ATOM     27  H   UNL     1      31.208  -7.713 -23.280  0.00  0.00    -0.080 HD
ENDBRANCH  20  21
ENDBRANCH  19  20
ENDBRANCH  18  19
ENDBRANCH  17  18
ENDBRANCH  16  17
ENDBRANCH  15  16
ENDBRANCH   3  15
TORSDOF 8
ENDMDL
MODEL 9
REMARK VINA RESULT:     -10.6      4.206     10.830
REMARK  Name = 6433114
REMARK  8 active torsions:
REMARK  status: ('A' for Active; 'I' for Inactive)
REMARK    1  A    between atoms: C_3  and  O_15
REMARK    2  A    between atoms: C_5  and  C_9
REMARK    3  A    between atoms: O_15  and  C_16
REMARK    4  A    between atoms: C_16  and  C_17
REMARK    5  A    between atoms: C_17  and  C_18
REMARK    6  A    between atoms: C_18  and  C_19
REMARK    7  A    between atoms: C_19  and  C_20
REMARK    8  A    between atoms: C_20  and  N_21
REMARK                            x       y       z     vdW  Elec       q    Type
REMARK                         _______ _______ _______ _____ _____    ______ ____
ROOT
ATOM      1  N   UNL     1      34.534 -16.956 -22.874  0.00  0.00    -0.311 NA
ATOM      2  N   UNL     1      33.262 -15.022 -23.542  0.00  0.00    -0.347 NA
ATOM      3  C   UNL     1      34.686 -16.390 -21.660  0.00  0.00    +0.270 C 
ATOM      4  C   UNL     1      34.164 -15.160 -21.315  0.00  0.00    +0.159 C 
ATOM      5  C   UNL     1      33.453 -14.515 -22.306  0.00  0.00    +0.132 C 
ATOM      6  C   UNL     1      33.821 -16.228 -23.754  0.00  0.00    +0.117 C 
ATOM      7  C   UNL     1      33.631 -16.821 -25.109  0.00  0.00    +0.143 C 
ENDROOT
BRANCH   5   9
ATOM      8  F   UNL     1      31.149  -9.518 -21.406  0.00  0.00    -0.204 F 
ATOM      9  C   UNL     1      32.856 -13.222 -22.074  0.00  0.00    +0.027 C 
ATOM     10  C   UNL     1      32.149 -12.978 -20.894  0.00  0.00    +0.005 C 
ATOM     11  C   UNL     1      32.985 -12.208 -23.026  0.00  0.00    +0.005 C 
ATOM     12  C   UNL     1      31.572 -11.728 -20.670  0.00  0.00    +0.030 C 
ATOM     13  C   UNL     1      32.408 -10.958 -22.802  0.00  0.00    +0.030 C 
ATOM     14  C   UNL     1      31.701 -10.719 -21.623  0.00  0.00    +0.140 C 
ENDBRANCH   5   9
BRANCH   3  15
ATOM     15  O   UNL     1      35.407 -17.094 -20.730  0.00  0.00    -0.454 OA
BRANCH  15  16
ATOM     16  C   UNL     1      36.083 -18.257 -21.189  0.00  0.00    +0.208 C 
BRANCH  16  17
ATOM     17  C   UNL     1      36.050 -19.336 -20.114  0.00  0.00    +0.047 C 
BRANCH  17  18
ATOM     18  C   UNL     1      34.804 -20.219 -20.217  0.00  0.00    +0.002 C 
BRANCH  18  19
ATOM     19  C   UNL     1      34.780 -21.278 -19.112  0.00  0.00    -0.023 C 
BRANCH  19  20
ATOM     20  C   UNL     1      33.466 -22.057 -19.122  0.00  0.00    -0.077 C 
BRANCH  20  21
ATOM     21  N   UNL     1      33.230 -22.672 -17.816  0.00  0.00    +0.387 N 
ATOM     22  C   UNL     1      34.331 -22.359 -16.893  0.00  0.00    -0.077 C 
ATOM     23  C   UNL     1      31.939 -22.235 -17.267  0.00  0.00    -0.077 C 
ATOM     24  C   UNL     1      34.125 -23.036 -15.538  0.00  0.00    -0.023 C 
ATOM     25  C   UNL     1      31.653 -22.909 -15.924  0.00  0.00    -0.023 C 
ATOM     26  C   UNL     1      32.780 -22.657 -14.928  0.00  0.00    -0.004 C 
ATOM     27  H   UNL     1      33.197 -23.685 -17.933  0.00  0.00    -0.080 HD
ENDBRANCH  20  21
ENDBRANCH  19  20
ENDBRANCH  18  19
ENDBRANCH  17  18
ENDBRANCH  16  17
ENDBRANCH  15  16
ENDBRANCH   3  15
TORSDOF 8
ENDMDL
