MODEL 1
REMARK VINA RESULT:     -11.8      0.000      0.000
REMARK  Name = 25147644
REMARK  4 active torsions:
REMARK  status: ('A' for Active; 'I' for Inactive)
REMARK    1  A    between atoms: C_3  and  N_11
REMARK    2  A    between atoms: C_4  and  C_23
REMARK    3  A    between atoms: C_12  and  C_15
REMARK    4  A    between atoms: C_23  and  C_25
REMARK                            x       y       z     vdW  Elec       q    Type
REMARK                         _______ _______ _______ _____ _____    ______ ____
ROOT
ATOM      1  N   UNL     1      32.065 -23.471 -13.324  0.00  0.00    +0.390 N 
ATOM      2  C   UNL     1      30.716 -23.340 -15.546  0.00  0.00    +0.012 C 
ATOM      3  C   UNL     1      32.233 -23.426 -15.820  0.00  0.00    +0.053 C 
ATOM      4  C   UNL     1      32.993 -23.290 -14.475  0.00  0.00    -0.035 C 
ATOM      5  C   UNL     1      30.430 -22.125 -14.646  0.00  0.00    -0.021 C 
ATOM      6  C   UNL     1      30.341 -24.598 -14.744  0.00  0.00    -0.021 C 
ATOM      7  C   UNL     1      31.151 -22.304 -13.297  0.00  0.00    -0.077 C 
ATOM      8  C   UNL     1      31.239 -24.688 -13.498  0.00  0.00    -0.077 C 
ATOM      9  H   UNL     1      32.608 -23.556 -12.463  0.00  0.00    -0.080 HD
ENDROOT
BRANCH   3  11
ATOM     10  O   UNL     1      33.151 -23.932 -18.493  0.00  0.00    -0.267 OA
ATOM     11  N   UNL     1      32.673 -22.443 -16.780  0.00  0.00    -0.302 N 
ATOM     12  C   UNL     1      33.101 -22.786 -18.054  0.00  0.00    +0.280 C 
ATOM     13  H   UNL     1      32.669 -21.494 -16.520  0.00  0.00    +0.150 HD
BRANCH  12  15
ATOM     14  O   UNL     1      34.872 -21.363 -18.934  0.00  0.00    -0.449 OA
ATOM     15  C   UNL     1      33.546 -21.659 -18.915  0.00  0.00    +0.198 C 
ATOM     16  C   UNL     1      32.845 -20.811 -19.739  0.00  0.00    +0.045 C 
ATOM     17  C   UNL     1      33.798 -19.928 -20.310  0.00  0.00    +0.038 C 
ATOM     18  C   UNL     1      35.029 -20.309 -19.784  0.00  0.00    +0.146 C 
ATOM     19  C   UNL     1      33.759 -18.850 -21.212  0.00  0.00    +0.003 C 
ATOM     20  C   UNL     1      36.237 -19.688 -20.092  0.00  0.00    +0.037 C 
ATOM     21  C   UNL     1      34.959 -18.205 -21.542  0.00  0.00    +0.000 C 
ATOM     22  C   UNL     1      36.175 -18.619 -20.991  0.00  0.00    +0.003 C 
ENDBRANCH  12  15
ENDBRANCH   3  11
BRANCH   4  23
ATOM     23  C   UNL     1      34.185 -24.247 -14.398  0.00  0.00    +0.009 C 
BRANCH  23  25
ATOM     24  N   UNL     1      37.131 -22.372 -12.945  0.00  0.00    -0.243 NA
ATOM     25  C   UNL     1      35.214 -23.769 -13.413  0.00  0.00    -0.005 C 
ATOM     26  C   UNL     1      35.229 -24.243 -12.106  0.00  0.00    -0.001 C 
ATOM     27  C   UNL     1      36.177 -22.842 -13.780  0.00  0.00    +0.095 C 
ATOM     28  C   UNL     1      36.195 -23.782 -11.217  0.00  0.00    +0.020 C 
ATOM     29  C   UNL     1      37.115 -22.856 -11.681  0.00  0.00    +0.099 C 
ENDBRANCH  23  25
ENDBRANCH   4  23
TORSDOF 4
ENDMDL
MODEL 2
REMARK VINA RESULT:     -11.7      1.394      1.892
REMARK  Name = 25147644
REMARK  4 active torsions:
REMARK  status: ('A' for Active; 'I' for Inactive)
REMARK    1  A    between atoms: C_3  and  N_11
REMARK    2  A    between atoms: C_4  and  C_23
REMARK    3  A    between atoms: C_12  and  C_15
REMARK    4  A    between atoms: C_23  and  C_25
REMARK                            x       y       z     vdW  Elec       q    Type
REMARK                         _______ _______ _______ _____ _____    ______ ____
ROOT
ATOM      1  N   UNL     1      32.230 -23.648 -13.488  0.00  0.00    +0.390 N 
ATOM      2  C   UNL     1      30.956 -23.127 -15.697  0.00  0.00    +0.012 C 
ATOM      3  C   UNL     1      32.441 -23.447 -15.974  0.00  0.00    +0.053 C 
ATOM      4  C   UNL     1      33.192 -23.540 -14.621  0.00  0.00    -0.035 C 
ATOM      5  C   UNL     1      30.864 -21.951 -14.709  0.00  0.00    -0.021 C 
ATOM      6  C   UNL     1      30.363 -24.360 -14.995  0.00  0.00    -0.021 C 
ATOM      7  C   UNL     1      31.523 -22.349 -13.376  0.00  0.00    -0.077 C 
ATOM      8  C   UNL     1      31.214 -24.692 -13.757  0.00  0.00    -0.077 C 
ATOM      9  H   UNL     1      32.738 -23.887 -12.636  0.00  0.00    -0.080 HD
ENDROOT
BRANCH   3  11
ATOM     10  O   UNL     1      33.184 -23.862 -18.716  0.00  0.00    -0.267 OA
ATOM     11  N   UNL     1      33.053 -22.483 -16.856  0.00  0.00    -0.302 N 
ATOM     12  C   UNL     1      33.377 -22.778 -18.172  0.00  0.00    +0.280 C 
ATOM     13  H   UNL     1      33.248 -21.583 -16.509  0.00  0.00    +0.150 HD
BRANCH  12  15
ATOM     14  O   UNL     1      33.262 -20.989 -19.821  0.00  0.00    -0.449 OA
ATOM     15  C   UNL     1      34.027 -21.685 -18.941  0.00  0.00    +0.198 C 
ATOM     16  C   UNL     1      35.318 -21.213 -18.938  0.00  0.00    +0.045 C 
ATOM     17  C   UNL     1      35.359 -20.152 -19.880  0.00  0.00    +0.038 C 
ATOM     18  C   UNL     1      34.070 -20.054 -20.395  0.00  0.00    +0.146 C 
ATOM     19  C   UNL     1      36.341 -19.265 -20.355  0.00  0.00    +0.003 C 
ATOM     20  C   UNL     1      33.682 -19.127 -21.360  0.00  0.00    +0.037 C 
ATOM     21  C   UNL     1      35.980 -18.320 -21.326  0.00  0.00    +0.000 C 
ATOM     22  C   UNL     1      34.674 -18.254 -21.818  0.00  0.00    +0.003 C 
ENDBRANCH  12  15
ENDBRANCH   3  11
BRANCH   4  23
ATOM     23  C   UNL     1      34.205 -24.688 -14.614  0.00  0.00    +0.009 C 
BRANCH  23  25
ATOM     24  N   UNL     1      37.985 -24.573 -14.522  0.00  0.00    -0.243 NA
ATOM     25  C   UNL     1      35.612 -24.182 -14.768  0.00  0.00    -0.005 C 
ATOM     26  C   UNL     1      35.864 -22.911 -15.270  0.00  0.00    -0.001 C 
ATOM     27  C   UNL     1      36.697 -24.968 -14.411  0.00  0.00    +0.095 C 
ATOM     28  C   UNL     1      37.177 -22.469 -15.400  0.00  0.00    +0.020 C 
ATOM     29  C   UNL     1      38.193 -23.330 -15.015  0.00  0.00    +0.099 C 
ENDBRANCH  23  25
ENDBRANCH   4  23
TORSDOF 4
ENDMDL
MODEL 3
REMARK VINA RESULT:     -11.4      1.676      4.576
REMARK  Name = 25147644
REMARK  4 active torsions:
REMARK  status: ('A' for Active; 'I' for Inactive)
REMARK    1  A    between atoms: C_3  and  N_11
REMARK    2  A    between atoms: C_4  and  C_23
REMARK    3  A    between atoms: C_12  and  C_15
REMARK    4  A    between atoms: C_23  and  C_25
REMARK                            x       y       z     vdW  Elec       q    Type
REMARK                         _______ _______ _______ _____ _____    ______ ____
ROOT
ATOM      1  N   UNL     1      35.570 -25.243 -12.989  0.00  0.00    +0.390 N 
ATOM      2  C   UNL     1      37.405 -23.548 -13.718  0.00  0.00    +0.012 C 
ATOM      3  C   UNL     1      35.999 -22.918 -13.809  0.00  0.00    +0.053 C 
ATOM      4  C   UNL     1      34.940 -24.024 -13.569  0.00  0.00    -0.035 C 
ATOM      5  C   UNL     1      37.448 -24.823 -14.579  0.00  0.00    -0.021 C 
ATOM      6  C   UNL     1      37.601 -23.980 -12.255  0.00  0.00    -0.021 C 
ATOM      7  C   UNL     1      36.431 -25.844 -14.036  0.00  0.00    -0.077 C 
ATOM      8  C   UNL     1      36.435 -24.892 -11.839  0.00  0.00    -0.077 C 
ATOM      9  H   UNL     1      34.839 -25.884 -12.676  0.00  0.00    -0.080 HD
ENDROOT
BRANCH   3  11
ATOM     10  O   UNL     1      34.506 -23.902 -16.056  0.00  0.00    -0.267 OA
ATOM     11  N   UNL     1      35.783 -22.239 -15.063  0.00  0.00    -0.302 N 
ATOM     12  C   UNL     1      35.044 -22.798 -16.095  0.00  0.00    +0.280 C 
ATOM     13  H   UNL     1      36.176 -21.346 -15.191  0.00  0.00    +0.150 HD
BRANCH  12  15
ATOM     14  O   UNL     1      33.698 -21.784 -17.855  0.00  0.00    -0.449 OA
ATOM     15  C   UNL     1      34.937 -21.982 -17.333  0.00  0.00    +0.198 C 
ATOM     16  C   UNL     1      35.893 -21.355 -18.096  0.00  0.00    +0.045 C 
ATOM     17  C   UNL     1      35.204 -20.724 -19.164  0.00  0.00    +0.038 C 
ATOM     18  C   UNL     1      33.857 -21.017 -18.970  0.00  0.00    +0.146 C 
ATOM     19  C   UNL     1      35.566 -19.938 -20.272  0.00  0.00    +0.003 C 
ATOM     20  C   UNL     1      32.834 -20.582 -19.809  0.00  0.00    +0.037 C 
ATOM     21  C   UNL     1      34.559 -19.485 -21.134  0.00  0.00    +0.000 C 
ATOM     22  C   UNL     1      33.218 -19.802 -20.904  0.00  0.00    +0.003 C 
ENDBRANCH  12  15
ENDBRANCH   3  11
BRANCH   4  23
ATOM     23  C   UNL     1      33.780 -23.521 -12.705  0.00  0.00    +0.009 C 
BRANCH  23  25
ATOM     24  N   UNL     1      30.501 -24.866 -14.028  0.00  0.00    -0.243 NA
ATOM     25  C   UNL     1      32.472 -23.594 -13.442  0.00  0.00    -0.005 C 
ATOM     26  C   UNL     1      32.015 -22.521 -14.198  0.00  0.00    -0.001 C 
ATOM     27  C   UNL     1      31.685 -24.734 -13.388  0.00  0.00    +0.095 C 
ATOM     28  C   UNL     1      30.801 -22.619 -14.870  0.00  0.00    +0.020 C 
ATOM     29  C   UNL     1      30.088 -23.802 -14.754  0.00  0.00    +0.099 C 
ENDBRANCH  23  25
ENDBRANCH   4  23
TORSDOF 4
ENDMDL
MODEL 4
REMARK VINA RESULT:      -9.5     11.629     16.470
REMARK  Name = 25147644
REMARK  4 active torsions:
REMARK  status: ('A' for Active; 'I' for Inactive)
REMARK    1  A    between atoms: C_3  and  N_11
REMARK    2  A    between atoms: C_4  and  C_23
REMARK    3  A    between atoms: C_12  and  C_15
REMARK    4  A    between atoms: C_23  and  C_25
REMARK                            x       y       z     vdW  Elec       q    Type
REMARK                         _______ _______ _______ _____ _____    ______ ____
ROOT
ATOM      1  N   UNL     1      32.644  -5.268 -25.182  0.00  0.00    +0.390 N 
ATOM      2  C   UNL     1      30.803  -7.069 -24.809  0.00  0.00    +0.012 C 
ATOM      3  C   UNL     1      31.939  -7.212 -23.773  0.00  0.00    +0.053 C 
ATOM      4  C   UNL     1      33.097  -6.261 -24.168  0.00  0.00    -0.035 C 
ATOM      5  C   UNL     1      31.393  -7.159 -26.227  0.00  0.00    -0.021 C 
ATOM      6  C   UNL     1      30.231  -5.651 -24.642  0.00  0.00    -0.021 C 
ATOM      7  C   UNL     1      32.386  -6.003 -26.444  0.00  0.00    -0.077 C 
ATOM      8  C   UNL     1      31.375  -4.629 -24.763  0.00  0.00    -0.077 C 
ATOM      9  H   UNL     1      33.360  -4.549 -25.293  0.00  0.00    -0.080 HD
ENDROOT
BRANCH   3  11
ATOM     10  O   UNL     1      30.724  -9.279 -22.192  0.00  0.00    -0.267 OA
ATOM     11  N   UNL     1      32.392  -8.576 -23.642  0.00  0.00    -0.302 N 
ATOM     12  C   UNL     1      31.736  -9.506 -22.851  0.00  0.00    +0.280 C 
ATOM     13  H   UNL     1      33.198  -8.855 -24.134  0.00  0.00    +0.150 HD
BRANCH  12  15
ATOM     14  O   UNL     1      32.385 -11.494 -21.600  0.00  0.00    -0.449 OA
ATOM     15  C   UNL     1      32.344 -10.862 -22.802  0.00  0.00    +0.198 C 
ATOM     16  C   UNL     1      32.903 -11.644 -23.784  0.00  0.00    +0.045 C 
ATOM     17  C   UNL     1      33.320 -12.844 -23.151  0.00  0.00    +0.038 C 
ATOM     18  C   UNL     1      32.979 -12.702 -21.810  0.00  0.00    +0.146 C 
ATOM     19  C   UNL     1      33.947 -14.034 -23.562  0.00  0.00    +0.003 C 
ATOM     20  C   UNL     1      33.220 -13.668 -20.835  0.00  0.00    +0.037 C 
ATOM     21  C   UNL     1      34.203 -15.024 -22.604  0.00  0.00    +0.000 C 
ATOM     22  C   UNL     1      33.845 -14.843 -21.266  0.00  0.00    +0.003 C 
ENDBRANCH  12  15
ENDBRANCH   3  11
BRANCH   4  23
ATOM     23  C   UNL     1      33.713  -5.579 -22.943  0.00  0.00    +0.009 C 
BRANCH  23  25
ATOM     24  N   UNL     1      32.325  -6.984 -19.717  0.00  0.00    -0.243 NA
ATOM     25  C   UNL     1      32.846  -5.745 -21.726  0.00  0.00    -0.005 C 
ATOM     26  C   UNL     1      31.797  -4.870 -21.469  0.00  0.00    -0.001 C 
ATOM     27  C   UNL     1      33.067  -6.777 -20.827  0.00  0.00    +0.095 C 
ATOM     28  C   UNL     1      31.011  -5.050 -20.336  0.00  0.00    +0.020 C 
ATOM     29  C   UNL     1      31.313  -6.112 -19.499  0.00  0.00    +0.099 C 
ENDBRANCH  23  25
ENDBRANCH   4  23
TORSDOF 4
ENDMDL
MODEL 5
REMARK VINA RESULT:      -9.3      2.596      6.395
REMARK  Name = 25147644
REMARK  4 active torsions:
REMARK  status: ('A' for Active; 'I' for Inactive)
REMARK    1  A    between atoms: C_3  and  N_11
REMARK    2  A    between atoms: C_4  and  C_23
REMARK    3  A    between atoms: C_12  and  C_15
REMARK    4  A    between atoms: C_23  and  C_25
REMARK                            x       y       z     vdW  Elec       q    Type
REMARK                         _______ _______ _______ _____ _____    ______ ____
ROOT
ATOM      1  N   UNL     1      29.706 -23.690 -15.830  0.00  0.00    +0.390 N 
ATOM      2  C   UNL     1      31.063 -23.452 -13.622  0.00  0.00    +0.012 C 
ATOM      3  C   UNL     1      31.782 -22.752 -14.796  0.00  0.00    +0.053 C 
ATOM      4  C   UNL     1      31.044 -23.102 -16.114  0.00  0.00    -0.035 C 
ATOM      5  C   UNL     1      30.830 -24.931 -13.978  0.00  0.00    -0.021 C 
ATOM      6  C   UNL     1      29.680 -22.791 -13.495  0.00  0.00    -0.021 C 
ATOM      7  C   UNL     1      29.922 -25.024 -15.219  0.00  0.00    -0.077 C 
ATOM      8  C   UNL     1      28.962 -22.861 -14.854  0.00  0.00    -0.077 C 
ATOM      9  H   UNL     1      29.171 -23.745 -16.698  0.00  0.00    -0.080 HD
ENDROOT
BRANCH   3  11
ATOM     10  O   UNL     1      33.526 -23.281 -12.577  0.00  0.00    -0.267 OA
ATOM     11  N   UNL     1      33.182 -23.095 -14.863  0.00  0.00    -0.302 N 
ATOM     12  C   UNL     1      33.946 -23.334 -13.731  0.00  0.00    +0.280 C 
ATOM     13  H   UNL     1      33.610 -23.161 -15.747  0.00  0.00    +0.150 HD
BRANCH  12  15
ATOM     14  O   UNL     1      35.979 -24.534 -13.130  0.00  0.00    -0.449 OA
ATOM     15  C   UNL     1      35.378 -23.650 -13.968  0.00  0.00    +0.198 C 
ATOM     16  C   UNL     1      36.264 -23.202 -14.920  0.00  0.00    +0.045 C 
ATOM     17  C   UNL     1      37.498 -23.851 -14.656  0.00  0.00    +0.038 C 
ATOM     18  C   UNL     1      37.271 -24.659 -13.546  0.00  0.00    +0.146 C 
ATOM     19  C   UNL     1      38.782 -23.845 -15.229  0.00  0.00    +0.003 C 
ATOM     20  C   UNL     1      38.238 -25.470 -12.958  0.00  0.00    +0.037 C 
ATOM     21  C   UNL     1      39.776 -24.652 -14.660  0.00  0.00    +0.000 C 
ATOM     22  C   UNL     1      39.507 -25.449 -13.545  0.00  0.00    +0.003 C 
ENDBRANCH  12  15
ENDBRANCH   3  11
BRANCH   4  23
ATOM     23  C   UNL     1      30.945 -21.891 -17.046  0.00  0.00    +0.009 C 
BRANCH  23  25
ATOM     24  N   UNL     1      34.441 -22.433 -18.383  0.00  0.00    -0.243 NA
ATOM     25  C   UNL     1      32.172 -21.753 -17.902  0.00  0.00    -0.005 C 
ATOM     26  C   UNL     1      32.205 -20.860 -18.967  0.00  0.00    -0.001 C 
ATOM     27  C   UNL     1      33.306 -22.510 -17.653  0.00  0.00    +0.095 C 
ATOM     28  C   UNL     1      33.356 -20.753 -19.742  0.00  0.00    +0.020 C 
ATOM     29  C   UNL     1      34.437 -21.554 -19.411  0.00  0.00    +0.099 C 
ENDBRANCH  23  25
ENDBRANCH   4  23
TORSDOF 4
ENDMDL
MODEL 6
REMARK VINA RESULT:      -9.0     12.734     17.613
REMARK  Name = 25147644
REMARK  4 active torsions:
REMARK  status: ('A' for Active; 'I' for Inactive)
REMARK    1  A    between atoms: C_3  and  N_11
REMARK    2  A    between atoms: C_4  and  C_23
REMARK    3  A    between atoms: C_12  and  C_15
REMARK    4  A    between atoms: C_23  and  C_25
REMARK                            x       y       z     vdW  Elec       q    Type
REMARK                         _______ _______ _______ _____ _____    ______ ____
ROOT
ATOM      1  N   UNL     1      33.799  -3.940 -24.913  0.00  0.00    +0.390 N 
ATOM      2  C   UNL     1      32.707  -5.895 -26.240  0.00  0.00    +0.012 C 
ATOM      3  C   UNL     1      32.263  -5.910 -24.762  0.00  0.00    +0.053 C 
ATOM      4  C   UNL     1      33.098  -4.865 -23.979  0.00  0.00    -0.035 C 
ATOM      5  C   UNL     1      34.244  -5.961 -26.311  0.00  0.00    -0.021 C 
ATOM      6  C   UNL     1      32.283  -4.533 -26.814  0.00  0.00    -0.021 C 
ATOM      7  C   UNL     1      34.843  -4.723 -25.619  0.00  0.00    -0.077 C 
ATOM      8  C   UNL     1      32.863  -3.413 -25.933  0.00  0.00    -0.077 C 
ATOM      9  H   UNL     1      34.192  -3.161 -24.385  0.00  0.00    -0.080 HD
ENDROOT
BRANCH   3  11
ATOM     10  O   UNL     1      30.164  -7.379 -23.465  0.00  0.00    -0.267 OA
ATOM     11  N   UNL     1      32.368  -7.223 -24.172  0.00  0.00    -0.302 N 
ATOM     12  C   UNL     1      31.292  -7.854 -23.565  0.00  0.00    +0.280 C 
ATOM     13  H   UNL     1      33.235  -7.687 -24.202  0.00  0.00    +0.150 HD
BRANCH  12  15
ATOM     14  O   UNL     1      32.513  -9.963 -23.585  0.00  0.00    -0.449 OA
ATOM     15  C   UNL     1      31.570  -9.193 -22.982  0.00  0.00    +0.198 C 
ATOM     16  C   UNL     1      31.033  -9.842 -21.895  0.00  0.00    +0.045 C 
ATOM     17  C   UNL     1      31.686 -11.099 -21.816  0.00  0.00    +0.038 C 
ATOM     18  C   UNL     1      32.586 -11.125 -22.877  0.00  0.00    +0.146 C 
ATOM     19  C   UNL     1      31.617 -12.219 -20.969  0.00  0.00    +0.003 C 
ATOM     20  C   UNL     1      33.432 -12.196 -23.159  0.00  0.00    +0.037 C 
ATOM     21  C   UNL     1      32.456 -13.312 -21.227  0.00  0.00    +0.000 C 
ATOM     22  C   UNL     1      33.347 -13.298 -22.303  0.00  0.00    +0.003 C 
ENDBRANCH  12  15
ENDBRANCH   3  11
BRANCH   4  23
ATOM     23  C   UNL     1      32.243  -4.102 -22.963  0.00  0.00    +0.009 C 
BRANCH  23  25
ATOM     24  N   UNL     1      30.411  -5.558 -19.991  0.00  0.00    -0.243 NA
ATOM     25  C   UNL     1      31.950  -4.940 -21.751  0.00  0.00    -0.005 C 
ATOM     26  C   UNL     1      32.887  -5.841 -21.259  0.00  0.00    -0.001 C 
ATOM     27  C   UNL     1      30.737  -4.836 -21.087  0.00  0.00    +0.095 C 
ATOM     28  C   UNL     1      32.588  -6.602 -20.133  0.00  0.00    +0.020 C 
ATOM     29  C   UNL     1      31.347  -6.424 -19.541  0.00  0.00    +0.099 C 
ENDBRANCH  23  25
ENDBRANCH   4  23
TORSDOF 4
ENDMDL
MODEL 7
REMARK VINA RESULT:      -9.0     11.646     16.820
REMARK  Name = 25147644
REMARK  4 active torsions:
REMARK  status: ('A' for Active; 'I' for Inactive)
REMARK    1  A    between atoms: C_3  and  N_11
REMARK    2  A    between atoms: C_4  and  C_23
REMARK    3  A    between atoms: C_12  and  C_15
REMARK    4  A    between atoms: C_23  and  C_25
REMARK                            x       y       z     vdW  Elec       q    Type
REMARK                         _______ _______ _______ _____ _____    ______ ____
ROOT
ATOM      1  N   UNL     1      31.566  -5.994 -24.059  0.00  0.00    +0.390 N 
ATOM      2  C   UNL     1      31.153  -7.785 -22.216  0.00  0.00    +0.012 C 
ATOM      3  C   UNL     1      32.543  -7.963 -22.863  0.00  0.00    +0.053 C 
ATOM      4  C   UNL     1      32.650  -7.015 -24.085  0.00  0.00    -0.035 C 
ATOM      5  C   UNL     1      30.070  -7.847 -23.308  0.00  0.00    -0.021 C 
ATOM      6  C   UNL     1      31.122  -6.365 -21.624  0.00  0.00    -0.021 C 
ATOM      7  C   UNL     1      30.284  -6.696 -24.308  0.00  0.00    -0.077 C 
ATOM      8  C   UNL     1      31.478  -5.352 -22.727  0.00  0.00    -0.077 C 
ATOM      9  H   UNL     1      31.758  -5.280 -24.763  0.00  0.00    -0.080 HD
ENDROOT
BRANCH   3  11
ATOM     10  O   UNL     1      31.673 -10.310 -21.456  0.00  0.00    -0.267 OA
ATOM     11  N   UNL     1      32.804  -9.334 -23.231  0.00  0.00    -0.302 N 
ATOM     12  C   UNL     1      32.339 -10.406 -22.484  0.00  0.00    +0.280 C 
ATOM     13  H   UNL     1      33.332  -9.514 -24.042  0.00  0.00    +0.150 HD
BRANCH  12  15
ATOM     14  O   UNL     1      33.327 -12.602 -22.113  0.00  0.00    -0.449 OA
ATOM     15  C   UNL     1      32.715 -11.756 -22.981  0.00  0.00    +0.198 C 
ATOM     16  C   UNL     1      32.557 -12.349 -24.211  0.00  0.00    +0.045 C 
ATOM     17  C   UNL     1      33.108 -13.652 -24.101  0.00  0.00    +0.038 C 
ATOM     18  C   UNL     1      33.568 -13.759 -22.793  0.00  0.00    +0.146 C 
ATOM     19  C   UNL     1      33.270 -14.753 -24.961  0.00  0.00    +0.003 C 
ATOM     20  C   UNL     1      34.185 -14.894 -22.271  0.00  0.00    +0.037 C 
ATOM     21  C   UNL     1      33.887 -15.909 -24.464  0.00  0.00    +0.000 C 
ATOM     22  C   UNL     1      34.336 -15.976 -23.143  0.00  0.00    +0.003 C 
ENDBRANCH  12  15
ENDBRANCH   3  11
BRANCH   4  23
ATOM     23  C   UNL     1      34.035  -6.368 -24.180  0.00  0.00    +0.009 C 
BRANCH  23  25
ATOM     24  N   UNL     1      33.582  -5.107 -27.717  0.00  0.00    -0.243 NA
ATOM     25  C   UNL     1      34.157  -5.503 -25.402  0.00  0.00    -0.005 C 
ATOM     26  C   UNL     1      34.921  -4.342 -25.385  0.00  0.00    -0.001 C 
ATOM     27  C   UNL     1      33.512  -5.839 -26.582  0.00  0.00    +0.095 C 
ATOM     28  C   UNL     1      35.017  -3.562 -26.533  0.00  0.00    +0.020 C 
ATOM     29  C   UNL     1      34.334  -3.984 -27.662  0.00  0.00    +0.099 C 
ENDBRANCH  23  25
ENDBRANCH   4  23
TORSDOF 4
ENDMDL
MODEL 8
REMARK VINA RESULT:      -8.9      1.508      1.953
REMARK  Name = 25147644
REMARK  4 active torsions:
REMARK  status: ('A' for Active; 'I' for Inactive)
REMARK    1  A    between atoms: C_3  and  N_11
REMARK    2  A    between atoms: C_4  and  C_23
REMARK    3  A    between atoms: C_12  and  C_15
REMARK    4  A    between atoms: C_23  and  C_25
REMARK                            x       y       z     vdW  Elec       q    Type
REMARK                         _______ _______ _______ _____ _____    ______ ____
ROOT
ATOM      1  N   UNL     1      33.286 -22.760 -13.408  0.00  0.00    +0.390 N 
ATOM      2  C   UNL     1      32.686 -23.620 -15.790  0.00  0.00    +0.012 C 
ATOM      3  C   UNL     1      34.079 -22.955 -15.773  0.00  0.00    +0.053 C 
ATOM      4  C   UNL     1      34.294 -22.280 -14.394  0.00  0.00    -0.035 C 
ATOM      5  C   UNL     1      31.637 -22.618 -15.277  0.00  0.00    -0.021 C 
ATOM      6  C   UNL     1      32.739 -24.780 -14.780  0.00  0.00    -0.021 C 
ATOM      7  C   UNL     1      31.964 -22.230 -13.823  0.00  0.00    -0.077 C 
ATOM      8  C   UNL     1      33.203 -24.239 -13.416  0.00  0.00    -0.077 C 
ATOM      9  H   UNL     1      33.551 -22.445 -12.474  0.00  0.00    -0.080 HD
ENDROOT
BRANCH   3  11
ATOM     10  O   UNL     1      33.265 -23.321 -18.502  0.00  0.00    -0.267 OA
ATOM     11  N   UNL     1      34.251 -22.018 -16.856  0.00  0.00    -0.302 N 
ATOM     12  C   UNL     1      33.823 -22.285 -18.147  0.00  0.00    +0.280 C 
ATOM     13  H   UNL     1      34.690 -21.156 -16.670  0.00  0.00    +0.150 HD
BRANCH  12  15
ATOM     14  O   UNL     1      35.353 -20.711 -19.204  0.00  0.00    -0.449 OA
ATOM     15  C   UNL     1      34.098 -21.227 -19.155  0.00  0.00    +0.198 C 
ATOM     16  C   UNL     1      33.290 -20.637 -20.098  0.00  0.00    +0.045 C 
ATOM     17  C   UNL     1      34.097 -19.689 -20.779  0.00  0.00    +0.038 C 
ATOM     18  C   UNL     1      35.356 -19.773 -20.193  0.00  0.00    +0.146 C 
ATOM     19  C   UNL     1      33.904 -18.769 -21.825  0.00  0.00    +0.003 C 
ATOM     20  C   UNL     1      36.450 -19.000 -20.576  0.00  0.00    +0.037 C 
ATOM     21  C   UNL     1      34.987 -17.977 -22.232  0.00  0.00    +0.000 C 
ATOM     22  C   UNL     1      36.236 -18.093 -21.618  0.00  0.00    +0.003 C 
ENDBRANCH  12  15
ENDBRANCH   3  11
BRANCH   4  23
ATOM     23  C   UNL     1      35.724 -22.477 -13.883  0.00  0.00    +0.009 C 
BRANCH  23  25
ATOM     24  N   UNL     1      36.525 -25.863 -12.401  0.00  0.00    -0.243 NA
ATOM     25  C   UNL     1      36.080 -23.933 -13.788  0.00  0.00    -0.005 C 
ATOM     26  C   UNL     1      36.294 -24.695 -14.931  0.00  0.00    -0.001 C 
ATOM     27  C   UNL     1      36.206 -24.559 -12.557  0.00  0.00    +0.095 C 
ATOM     28  C   UNL     1      36.623 -26.041 -14.811  0.00  0.00    +0.020 C 
ATOM     29  C   UNL     1      36.725 -26.573 -13.536  0.00  0.00    +0.099 C 
ENDBRANCH  23  25
ENDBRANCH   4  23
TORSDOF 4
ENDMDL
