MODEL 1
REMARK VINA RESULT:     -13.9      0.000      0.000
REMARK  Name = 446345
REMARK  6 active torsions:
REMARK  status: ('A' for Active; 'I' for Inactive)
REMARK    1  A    between atoms: N_2  and  C_20
REMARK    2  A    between atoms: N_3  and  S_8
REMARK    3  A    between atoms: S_8  and  C_11
REMARK    4  A    between atoms: C_12  and  C_14
REMARK    5  A    between atoms: C_20  and  C_22
REMARK    6  A    between atoms: N_21  and  C_28
REMARK                            x       y       z     vdW  Elec       q    Type
REMARK                         _______ _______ _______ _____ _____    ______ ____
ROOT
ATOM      1  O   UNL     1      31.720 -20.764 -19.515  0.00  0.00    -0.273 OA
ATOM      2  N   UNL     1      33.807 -21.583 -18.924  0.00  0.00    -0.277 N 
ATOM      3  N   UNL     1      35.004 -19.489 -20.344  0.00  0.00    -0.144 NA
ATOM      4  C   UNL     1      35.255 -21.404 -18.910  0.00  0.00    +0.113 C 
ATOM      5  C   UNL     1      35.770 -20.742 -20.171  0.00  0.00    +0.118 C 
ATOM      6  C   UNL     1      32.950 -20.727 -19.611  0.00  0.00    +0.244 C 
ATOM      7  C   UNL     1      33.573 -19.760 -20.586  0.00  0.00    +0.181 C 
ENDROOT
BRANCH   3   8
ATOM      8  S   UNL     1      35.717 -18.313 -21.363  0.00  0.00    +0.065 S 
ATOM      9  O   UNL     1      35.502 -18.730 -22.739  0.00  0.00    -0.153 OA
ATOM     10  O   UNL     1      37.066 -18.067 -20.885  0.00  0.00    -0.153 OA
BRANCH   8  11
ATOM     11  C   UNL     1      34.779 -16.884 -21.084  0.00  0.00    +0.141 C 
ATOM     12  C   UNL     1      34.667 -16.019 -22.100  0.00  0.00    +0.021 C 
BRANCH  12  14
ATOM     13 CL   UNL     1      31.578 -10.919 -21.896  0.00  0.00    -0.082 Cl
ATOM     14  C   UNL     1      33.905 -14.759 -22.050  0.00  0.00    +0.001 C 
ATOM     15  C   UNL     1      33.520 -14.247 -20.821  0.00  0.00    +0.001 C 
ATOM     16  C   UNL     1      33.586 -14.110 -23.232  0.00  0.00    +0.001 C 
ATOM     17  C   UNL     1      32.798 -13.055 -20.773  0.00  0.00    +0.011 C 
ATOM     18  C   UNL     1      32.864 -12.918 -23.184  0.00  0.00    +0.011 C 
ATOM     19  C   UNL     1      32.470 -12.391 -21.954  0.00  0.00    +0.058 C 
ENDBRANCH  12  14
ENDBRANCH   8  11
ENDBRANCH   3   8
BRANCH   2  20
ATOM     20  C   UNL     1      33.270 -22.564 -17.992  0.00  0.00    +0.094 C 
BRANCH  20  22
ATOM     21  N   UNL     1      34.975 -23.093 -14.072  0.00  0.00    -0.307 N 
ATOM     22  C   UNL     1      33.737 -22.295 -16.564  0.00  0.00    +0.023 C 
ATOM     23  C   UNL     1      35.254 -22.482 -16.441  0.00  0.00    +0.023 C 
ATOM     24  C   UNL     1      33.027 -23.221 -15.572  0.00  0.00    +0.023 C 
ATOM     25  C   UNL     1      35.731 -22.252 -15.009  0.00  0.00    +0.091 C 
ATOM     26  C   UNL     1      33.513 -22.994 -14.141  0.00  0.00    +0.091 C 
BRANCH  21  28
ATOM     27  N   UNL     1      36.818 -24.052 -10.398  0.00  0.00    -0.242 NA
ATOM     28  C   UNL     1      35.587 -23.412 -12.853  0.00  0.00    +0.051 C 
ATOM     29  C   UNL     1      36.981 -23.537 -12.754  0.00  0.00    +0.035 C 
ATOM     30  C   UNL     1      34.824 -23.616 -11.692  0.00  0.00    +0.035 C 
ATOM     31  C   UNL     1      37.538 -23.853 -11.525  0.00  0.00    +0.100 C 
ATOM     32  C   UNL     1      35.477 -23.928 -10.511  0.00  0.00    +0.100 C 
ENDBRANCH  21  28
ENDBRANCH  20  22
ENDBRANCH   2  20
TORSDOF 6
ENDMDL
MODEL 2
REMARK VINA RESULT:     -12.7      4.059     11.348
REMARK  Name = 446345
REMARK  6 active torsions:
REMARK  status: ('A' for Active; 'I' for Inactive)
REMARK    1  A    between atoms: N_2  and  C_20
REMARK    2  A    between atoms: N_3  and  S_8
REMARK    3  A    between atoms: S_8  and  C_11
REMARK    4  A    between atoms: C_12  and  C_14
REMARK    5  A    between atoms: C_20  and  C_22
REMARK    6  A    between atoms: N_21  and  C_28
REMARK                            x       y       z     vdW  Elec       q    Type
REMARK                         _______ _______ _______ _____ _____    ______ ____
ROOT
ATOM      1  O   UNL     1      37.027 -18.675 -20.041  0.00  0.00    -0.273 OA
ATOM      2  N   UNL     1      35.013 -18.452 -21.166  0.00  0.00    -0.277 N 
ATOM      3  N   UNL     1      33.947 -20.531 -19.624  0.00  0.00    -0.144 NA
ATOM      4  C   UNL     1      33.609 -18.830 -21.291  0.00  0.00    +0.113 C 
ATOM      5  C   UNL     1      33.369 -20.288 -20.964  0.00  0.00    +0.118 C 
ATOM      6  C   UNL     1      35.882 -19.074 -20.275  0.00  0.00    +0.244 C 
ATOM      7  C   UNL     1      35.413 -20.354 -19.629  0.00  0.00    +0.181 C 
ENDROOT
BRANCH   3   8
ATOM      8  S   UNL     1      33.372 -21.917 -18.803  0.00  0.00    +0.065 S 
ATOM      9  O   UNL     1      33.671 -23.076 -19.627  0.00  0.00    -0.153 OA
ATOM     10  O   UNL     1      32.004 -21.657 -18.390  0.00  0.00    -0.153 OA
BRANCH   8  11
ATOM     11  C   UNL     1      34.354 -22.005 -17.378  0.00  0.00    +0.141 C 
ATOM     12  C   UNL     1      33.870 -22.704 -16.345  0.00  0.00    +0.021 C 
BRANCH  12  14
ATOM     13 CL   UNL     1      36.689 -23.481 -11.145  0.00  0.00    -0.082 Cl
ATOM     14  C   UNL     1      34.565 -22.895 -15.061  0.00  0.00    +0.001 C 
ATOM     15  C   UNL     1      35.890 -22.507 -14.941  0.00  0.00    +0.001 C 
ATOM     16  C   UNL     1      33.883 -23.462 -13.995  0.00  0.00    +0.001 C 
ATOM     17  C   UNL     1      36.549 -22.688 -13.726  0.00  0.00    +0.011 C 
ATOM     18  C   UNL     1      34.542 -23.643 -12.780  0.00  0.00    +0.011 C 
ATOM     19  C   UNL     1      35.876 -23.256 -12.645  0.00  0.00    +0.058 C 
ENDBRANCH  12  14
ENDBRANCH   8  11
ENDBRANCH   3   8
BRANCH   2  20
ATOM     20  C   UNL     1      35.415 -17.232 -21.851  0.00  0.00    +0.094 C 
BRANCH  20  22
ATOM     21  N   UNL     1      33.173 -13.561 -22.093  0.00  0.00    -0.307 N 
ATOM     22  C   UNL     1      34.258 -16.242 -21.958  0.00  0.00    +0.023 C 
ATOM     23  C   UNL     1      34.390 -15.383 -23.220  0.00  0.00    +0.023 C 
ATOM     24  C   UNL     1      34.198 -15.334 -20.726  0.00  0.00    +0.023 C 
ATOM     25  C   UNL     1      33.258 -14.361 -23.322  0.00  0.00    +0.091 C 
ATOM     26  C   UNL     1      33.070 -14.308 -20.836  0.00  0.00    +0.091 C 
BRANCH  21  28
ATOM     27  N   UNL     1      31.420  -9.733 -22.387  0.00  0.00    -0.242 NA
ATOM     28  C   UNL     1      32.591 -12.291 -22.190  0.00  0.00    +0.051 C 
ATOM     29  C   UNL     1      31.583 -11.887 -21.302  0.00  0.00    +0.035 C 
ATOM     30  C   UNL     1      32.998 -11.383 -23.180  0.00  0.00    +0.035 C 
ATOM     31  C   UNL     1      31.040 -10.620 -21.439  0.00  0.00    +0.100 C 
ATOM     32  C   UNL     1      32.392 -10.139 -23.235  0.00  0.00    +0.100 C 
ENDBRANCH  21  28
ENDBRANCH  20  22
ENDBRANCH   2  20
TORSDOF 6
ENDMDL
MODEL 3
REMARK VINA RESULT:     -12.6      5.125     12.031
REMARK  Name = 446345
REMARK  6 active torsions:
REMARK  status: ('A' for Active; 'I' for Inactive)
REMARK    1  A    between atoms: N_2  and  C_20
REMARK    2  A    between atoms: N_3  and  S_8
REMARK    3  A    between atoms: S_8  and  C_11
REMARK    4  A    between atoms: C_12  and  C_14
REMARK    5  A    between atoms: C_20  and  C_22
REMARK    6  A    between atoms: N_21  and  C_28
REMARK                            x       y       z     vdW  Elec       q    Type
REMARK                         _______ _______ _______ _____ _____    ______ ____
ROOT
ATOM      1  O   UNL     1      32.735 -16.039 -25.493  0.00  0.00    -0.273 OA
ATOM      2  N   UNL     1      33.337 -14.742 -23.668  0.00  0.00    -0.277 N 
ATOM      3  N   UNL     1      34.910 -16.852 -22.716  0.00  0.00    -0.144 NA
ATOM      4  C   UNL     1      34.161 -14.579 -22.475  0.00  0.00    +0.113 C 
ATOM      5  C   UNL     1      34.376 -15.882 -21.735  0.00  0.00    +0.118 C 
ATOM      6  C   UNL     1      33.302 -15.925 -24.402  0.00  0.00    +0.244 C 
ATOM      7  C   UNL     1      33.925 -17.147 -23.775  0.00  0.00    +0.181 C 
ENDROOT
BRANCH   3   8
ATOM      8  S   UNL     1      35.718 -18.210 -22.059  0.00  0.00    +0.065 S 
ATOM      9  O   UNL     1      36.877 -17.726 -21.330  0.00  0.00    -0.153 OA
ATOM     10  O   UNL     1      35.888 -19.186 -23.122  0.00  0.00    -0.153 OA
BRANCH   8  11
ATOM     11  C   UNL     1      34.595 -18.859 -20.911  0.00  0.00    +0.141 C 
ATOM     12  C   UNL     1      34.838 -20.091 -20.448  0.00  0.00    +0.021 C 
BRANCH  12  14
ATOM     13 CL   UNL     1      31.448 -22.958 -16.463  0.00  0.00    -0.082 Cl
ATOM     14  C   UNL     1      34.001 -20.798 -19.463  0.00  0.00    +0.001 C 
ATOM     15  C   UNL     1      34.601 -21.647 -18.546  0.00  0.00    +0.001 C 
ATOM     16  C   UNL     1      32.629 -20.604 -19.473  0.00  0.00    +0.001 C 
ATOM     17  C   UNL     1      33.809 -22.317 -17.615  0.00  0.00    +0.011 C 
ATOM     18  C   UNL     1      31.837 -21.274 -18.541  0.00  0.00    +0.011 C 
ATOM     19  C   UNL     1      32.427 -22.131 -17.612  0.00  0.00    +0.058 C 
ENDBRANCH  12  14
ENDBRANCH   8  11
ENDBRANCH   3   8
BRANCH   2  20
ATOM     20  C   UNL     1      32.724 -13.532 -24.198  0.00  0.00    +0.094 C 
BRANCH  20  22
ATOM     21  N   UNL     1      32.052  -9.764 -22.224  0.00  0.00    -0.307 N 
ATOM     22  C   UNL     1      32.823 -12.374 -23.209  0.00  0.00    +0.023 C 
ATOM     23  C   UNL     1      31.483 -12.144 -22.502  0.00  0.00    +0.023 C 
ATOM     24  C   UNL     1      33.256 -11.086 -23.917  0.00  0.00    +0.023 C 
ATOM     25  C   UNL     1      31.557 -10.963 -21.536  0.00  0.00    +0.091 C 
ATOM     26  C   UNL     1      33.320  -9.905 -22.948  0.00  0.00    +0.091 C 
BRANCH  21  28
ATOM     27  N   UNL     1      30.999  -6.015 -20.595  0.00  0.00    -0.242 NA
ATOM     28  C   UNL     1      31.703  -8.520 -21.683  0.00  0.00    +0.051 C 
ATOM     29  C   UNL     1      31.863  -8.255 -20.314  0.00  0.00    +0.035 C 
ATOM     30  C   UNL     1      31.180  -7.500 -22.493  0.00  0.00    +0.035 C 
ATOM     31  C   UNL     1      31.503  -7.008 -19.829  0.00  0.00    +0.100 C 
ATOM     32  C   UNL     1      30.849  -6.288 -21.911  0.00  0.00    +0.100 C 
ENDBRANCH  21  28
ENDBRANCH  20  22
ENDBRANCH   2  20
TORSDOF 6
ENDMDL
MODEL 4
REMARK VINA RESULT:     -12.5      2.555      4.203
REMARK  Name = 446345
REMARK  6 active torsions:
REMARK  status: ('A' for Active; 'I' for Inactive)
REMARK    1  A    between atoms: N_2  and  C_20
REMARK    2  A    between atoms: N_3  and  S_8
REMARK    3  A    between atoms: S_8  and  C_11
REMARK    4  A    between atoms: C_12  and  C_14
REMARK    5  A    between atoms: C_20  and  C_22
REMARK    6  A    between atoms: N_21  and  C_28
REMARK                            x       y       z     vdW  Elec       q    Type
REMARK                         _______ _______ _______ _____ _____    ______ ____
ROOT
ATOM      1  O   UNL     1      36.074 -17.729 -20.357  0.00  0.00    -0.273 OA
ATOM      2  N   UNL     1      35.006 -19.191 -21.804  0.00  0.00    -0.277 N 
ATOM      3  N   UNL     1      34.372 -17.038 -23.475  0.00  0.00    -0.144 NA
ATOM      4  C   UNL     1      34.340 -19.411 -23.084  0.00  0.00    +0.113 C 
ATOM      5  C   UNL     1      33.495 -18.229 -23.509  0.00  0.00    +0.118 C 
ATOM      6  C   UNL     1      35.379 -17.926 -21.357  0.00  0.00    +0.244 C 
ATOM      7  C   UNL     1      34.824 -16.738 -22.103  0.00  0.00    +0.181 C 
ENDROOT
BRANCH   3   8
ATOM      8  S   UNL     1      33.838 -15.692 -24.389  0.00  0.00    +0.065 S 
ATOM      9  O   UNL     1      32.634 -16.089 -25.099  0.00  0.00    -0.153 OA
ATOM     10  O   UNL     1      34.976 -15.175 -25.127  0.00  0.00    -0.153 OA
BRANCH   8  11
ATOM     11  C   UNL     1      33.394 -14.518 -23.196  0.00  0.00    +0.141 C 
ATOM     12  C   UNL     1      32.791 -13.404 -23.630  0.00  0.00    +0.021 C 
BRANCH  12  14
ATOM     13 CL   UNL     1      30.949  -8.947 -20.119  0.00  0.00    -0.082 Cl
ATOM     14  C   UNL     1      32.335 -12.304 -22.763  0.00  0.00    +0.001 C 
ATOM     15  C   UNL     1      32.322 -11.010 -23.259  0.00  0.00    +0.001 C 
ATOM     16  C   UNL     1      31.929 -12.582 -21.468  0.00  0.00    +0.001 C 
ATOM     17  C   UNL     1      31.892  -9.967 -22.438  0.00  0.00    +0.011 C 
ATOM     18  C   UNL     1      31.499 -11.540 -20.647  0.00  0.00    +0.011 C 
ATOM     19  C   UNL     1      31.480 -10.232 -21.133  0.00  0.00    +0.058 C 
ENDBRANCH  12  14
ENDBRANCH   8  11
ENDBRANCH   3   8
BRANCH   2  20
ATOM     20  C   UNL     1      35.478 -20.382 -21.111  0.00  0.00    +0.094 C 
BRANCH  20  22
ATOM     21  N   UNL     1      33.806 -22.065 -17.516  0.00  0.00    -0.307 N 
ATOM     22  C   UNL     1      34.845 -20.514 -19.729  0.00  0.00    +0.023 C 
ATOM     23  C   UNL     1      35.771 -21.276 -18.775  0.00  0.00    +0.023 C 
ATOM     24  C   UNL     1      33.494 -21.232 -19.812  0.00  0.00    +0.023 C 
ATOM     25  C   UNL     1      35.134 -21.449 -17.397  0.00  0.00    +0.091 C 
ATOM     26  C   UNL     1      32.864 -21.411 -18.431  0.00  0.00    +0.091 C 
BRANCH  21  28
ATOM     27  N   UNL     1      32.326 -24.159 -14.164  0.00  0.00    -0.242 NA
ATOM     28  C   UNL     1      33.315 -22.760 -16.404  0.00  0.00    +0.051 C 
ATOM     29  C   UNL     1      34.187 -23.356 -15.480  0.00  0.00    +0.035 C 
ATOM     30  C   UNL     1      31.935 -22.883 -16.179  0.00  0.00    +0.035 C 
ATOM     31  C   UNL     1      33.653 -24.032 -14.396  0.00  0.00    +0.100 C 
ATOM     32  C   UNL     1      31.500 -23.580 -15.064  0.00  0.00    +0.100 C 
ENDBRANCH  21  28
ENDBRANCH  20  22
ENDBRANCH   2  20
TORSDOF 6
ENDMDL
MODEL 5
REMARK VINA RESULT:     -12.2      6.564     13.773
REMARK  Name = 446345
REMARK  6 active torsions:
REMARK  status: ('A' for Active; 'I' for Inactive)
REMARK    1  A    between atoms: N_2  and  C_20
REMARK    2  A    between atoms: N_3  and  S_8
REMARK    3  A    between atoms: S_8  and  C_11
REMARK    4  A    between atoms: C_12  and  C_14
REMARK    5  A    between atoms: C_20  and  C_22
REMARK    6  A    between atoms: N_21  and  C_28
REMARK                            x       y       z     vdW  Elec       q    Type
REMARK                         _______ _______ _______ _____ _____    ______ ____
ROOT
ATOM      1  O   UNL     1      31.948 -13.176 -19.991  0.00  0.00    -0.273 OA
ATOM      2  N   UNL     1      31.865 -11.917 -21.936  0.00  0.00    -0.277 N 
ATOM      3  N   UNL     1      32.998 -14.056 -23.341  0.00  0.00    -0.144 NA
ATOM      4  C   UNL     1      32.038 -11.851 -23.383  0.00  0.00    +0.113 C 
ATOM      5  C   UNL     1      33.202 -12.689 -23.868  0.00  0.00    +0.118 C 
ATOM      6  C   UNL     1      32.223 -13.035 -21.186  0.00  0.00    +0.244 C 
ATOM      7  C   UNL     1      33.066 -14.084 -21.867  0.00  0.00    +0.181 C 
ENDROOT
BRANCH   3   8
ATOM      8  S   UNL     1      33.854 -15.301 -24.145  0.00  0.00    +0.065 S 
ATOM      9  O   UNL     1      34.938 -14.683 -24.890  0.00  0.00    -0.153 OA
ATOM     10  O   UNL     1      32.886 -16.135 -24.836  0.00  0.00    -0.153 OA
BRANCH   8  11
ATOM     11  C   UNL     1      34.549 -16.236 -22.863  0.00  0.00    +0.141 C 
ATOM     12  C   UNL     1      34.116 -17.494 -22.720  0.00  0.00    +0.021 C 
BRANCH  12  14
ATOM     13 CL   UNL     1      36.066 -21.314 -18.573  0.00  0.00    -0.082 Cl
ATOM     14  C   UNL     1      34.597 -18.437 -21.696  0.00  0.00    +0.001 C 
ATOM     15  C   UNL     1      35.910 -18.354 -21.259  0.00  0.00    +0.001 C 
ATOM     16  C   UNL     1      33.729 -19.390 -21.188  0.00  0.00    +0.001 C 
ATOM     17  C   UNL     1      36.366 -19.247 -20.290  0.00  0.00    +0.011 C 
ATOM     18  C   UNL     1      34.185 -20.283 -20.219  0.00  0.00    +0.011 C 
ATOM     19  C   UNL     1      35.504 -20.211 -19.770  0.00  0.00    +0.058 C 
ENDBRANCH  12  14
ENDBRANCH   8  11
ENDBRANCH   3   8
BRANCH   2  20
ATOM     20  C   UNL     1      31.080 -10.850 -21.332  0.00  0.00    +0.094 C 
BRANCH  20  22
ATOM     21  N   UNL     1      31.174  -6.631 -22.195  0.00  0.00    -0.307 N 
ATOM     22  C   UNL     1      31.545  -9.476 -21.804  0.00  0.00    +0.023 C 
ATOM     23  C   UNL     1      31.604  -8.487 -20.634  0.00  0.00    +0.023 C 
ATOM     24  C   UNL     1      30.616  -8.926 -22.890  0.00  0.00    +0.023 C 
ATOM     25  C   UNL     1      32.033  -7.097 -21.098  0.00  0.00    +0.091 C 
ATOM     26  C   UNL     1      31.043  -7.531 -23.346  0.00  0.00    +0.091 C 
BRANCH  21  28
ATOM     27  N   UNL     1      30.844  -2.463 -22.769  0.00  0.00    -0.242 NA
ATOM     28  C   UNL     1      31.065  -5.248 -22.386  0.00  0.00    +0.051 C 
ATOM     29  C   UNL     1      31.800  -4.595 -23.387  0.00  0.00    +0.035 C 
ATOM     30  C   UNL     1      30.218  -4.472 -21.580  0.00  0.00    +0.035 C 
ATOM     31  C   UNL     1      31.657  -3.225 -23.536  0.00  0.00    +0.100 C 
ATOM     32  C   UNL     1      30.145  -3.108 -21.809  0.00  0.00    +0.100 C 
ENDBRANCH  21  28
ENDBRANCH  20  22
ENDBRANCH   2  20
TORSDOF 6
ENDMDL
MODEL 6
REMARK VINA RESULT:     -11.6      7.714     11.939
REMARK  Name = 446345
REMARK  6 active torsions:
REMARK  status: ('A' for Active; 'I' for Inactive)
REMARK    1  A    between atoms: N_2  and  C_20
REMARK    2  A    between atoms: N_3  and  S_8
REMARK    3  A    between atoms: S_8  and  C_11
REMARK    4  A    between atoms: C_12  and  C_14
REMARK    5  A    between atoms: C_20  and  C_22
REMARK    6  A    between atoms: N_21  and  C_28
REMARK                            x       y       z     vdW  Elec       q    Type
REMARK                         _______ _______ _______ _____ _____    ______ ____
ROOT
ATOM      1  O   UNL     1      31.957  -9.646 -23.537  0.00  0.00    -0.273 OA
ATOM      2  N   UNL     1      31.284 -10.084 -21.362  0.00  0.00    -0.277 N 
ATOM      3  N   UNL     1      31.467  -7.352 -20.781  0.00  0.00    -0.144 NA
ATOM      4  C   UNL     1      30.879  -9.570 -20.058  0.00  0.00    +0.113 C 
ATOM      5  C   UNL     1      31.631  -8.314 -19.669  0.00  0.00    +0.118 C 
ATOM      6  C   UNL     1      31.754  -9.261 -22.382  0.00  0.00    +0.244 C 
ATOM      7  C   UNL     1      32.108  -7.840 -22.017  0.00  0.00    +0.181 C 
ENDROOT
BRANCH   3   8
ATOM      8  S   UNL     1      31.759  -5.710 -20.395  0.00  0.00    +0.065 S 
ATOM      9  O   UNL     1      32.553  -5.675 -19.179  0.00  0.00    -0.153 OA
ATOM     10  O   UNL     1      30.489  -5.007 -20.450  0.00  0.00    -0.153 OA
BRANCH   8  11
ATOM     11  C   UNL     1      32.746  -5.137 -21.698  0.00  0.00    +0.141 C 
ATOM     12  C   UNL     1      32.117  -4.725 -22.806  0.00  0.00    +0.021 C 
BRANCH  12  14
ATOM     13 CL   UNL     1      34.841  -2.592 -27.665  0.00  0.00    -0.082 Cl
ATOM     14  C   UNL     1      32.789  -4.199 -24.006  0.00  0.00    +0.001 C 
ATOM     15  C   UNL     1      33.966  -4.789 -24.439  0.00  0.00    +0.001 C 
ATOM     16  C   UNL     1      32.233  -3.123 -24.679  0.00  0.00    +0.001 C 
ATOM     17  C   UNL     1      34.603  -4.290 -25.575  0.00  0.00    +0.011 C 
ATOM     18  C   UNL     1      32.870  -2.624 -25.816  0.00  0.00    +0.011 C 
ATOM     19  C   UNL     1      34.056  -3.208 -26.263  0.00  0.00    +0.058 C 
ENDBRANCH  12  14
ENDBRANCH   8  11
ENDBRANCH   3   8
BRANCH   2  20
ATOM     20  C   UNL     1      30.955 -11.475 -21.636  0.00  0.00    +0.094 C 
BRANCH  20  22
ATOM     21  N   UNL     1      33.546 -14.907 -21.898  0.00  0.00    -0.307 N 
ATOM     22  C   UNL     1      32.204 -12.353 -21.655  0.00  0.00    +0.023 C 
ATOM     23  C   UNL     1      32.355 -13.058 -23.008  0.00  0.00    +0.023 C 
ATOM     24  C   UNL     1      32.154 -13.399 -20.537  0.00  0.00    +0.023 C 
ATOM     25  C   UNL     1      33.580 -13.970 -23.029  0.00  0.00    +0.091 C 
ATOM     26  C   UNL     1      33.378 -14.315 -20.567  0.00  0.00    +0.091 C 
BRANCH  21  28
ATOM     27  N   UNL     1      35.680 -18.525 -22.309  0.00  0.00    -0.242 NA
ATOM     28  C   UNL     1      34.254 -16.108 -22.034  0.00  0.00    +0.051 C 
ATOM     29  C   UNL     1      34.882 -16.706 -20.932  0.00  0.00    +0.035 C 
ATOM     30  C   UNL     1      34.358 -16.748 -23.278  0.00  0.00    +0.035 C 
ATOM     31  C   UNL     1      35.570 -17.894 -21.118  0.00  0.00    +0.100 C 
ATOM     32  C   UNL     1      35.070 -17.934 -23.361  0.00  0.00    +0.100 C 
ENDBRANCH  21  28
ENDBRANCH  20  22
ENDBRANCH   2  20
TORSDOF 6
ENDMDL
MODEL 7
REMARK VINA RESULT:     -11.6      6.507     13.764
REMARK  Name = 446345
REMARK  6 active torsions:
REMARK  status: ('A' for Active; 'I' for Inactive)
REMARK    1  A    between atoms: N_2  and  C_20
REMARK    2  A    between atoms: N_3  and  S_8
REMARK    3  A    between atoms: S_8  and  C_11
REMARK    4  A    between atoms: C_12  and  C_14
REMARK    5  A    between atoms: C_20  and  C_22
REMARK    6  A    between atoms: N_21  and  C_28
REMARK                            x       y       z     vdW  Elec       q    Type
REMARK                         _______ _______ _______ _____ _____    ______ ____
ROOT
ATOM      1  O   UNL     1      32.536 -12.853 -20.268  0.00  0.00    -0.273 OA
ATOM      2  N   UNL     1      31.835 -12.072 -22.335  0.00  0.00    -0.277 N 
ATOM      3  N   UNL     1      32.986 -14.316 -23.548  0.00  0.00    -0.144 NA
ATOM      4  C   UNL     1      31.685 -12.305 -23.768  0.00  0.00    +0.113 C 
ATOM      5  C   UNL     1      32.844 -13.084 -24.353  0.00  0.00    +0.118 C 
ATOM      6  C   UNL     1      32.524 -12.946 -21.499  0.00  0.00    +0.244 C 
ATOM      7  C   UNL     1      33.367 -14.011 -22.155  0.00  0.00    +0.181 C 
ENDROOT
BRANCH   3   8
ATOM      8  S   UNL     1      33.849 -15.596 -24.287  0.00  0.00    +0.065 S 
ATOM      9  O   UNL     1      34.932 -15.012 -25.059  0.00  0.00    -0.153 OA
ATOM     10  O   UNL     1      32.885 -16.467 -24.937  0.00  0.00    -0.153 OA
BRANCH   8  11
ATOM     11  C   UNL     1      34.544 -16.463 -22.959  0.00  0.00    +0.141 C 
ATOM     12  C   UNL     1      34.124 -17.719 -22.761  0.00  0.00    +0.021 C 
BRANCH  12  14
ATOM     13 CL   UNL     1      36.083 -21.318 -18.426  0.00  0.00    -0.082 Cl
ATOM     14  C   UNL     1      34.608 -18.608 -21.692  0.00  0.00    +0.001 C 
ATOM     15  C   UNL     1      33.737 -19.526 -21.126  0.00  0.00    +0.001 C 
ATOM     16  C   UNL     1      35.924 -18.509 -21.269  0.00  0.00    +0.001 C 
ATOM     17  C   UNL     1      34.195 -20.368 -20.112  0.00  0.00    +0.011 C 
ATOM     18  C   UNL     1      36.382 -19.351 -20.256  0.00  0.00    +0.011 C 
ATOM     19  C   UNL     1      35.517 -20.280 -19.678  0.00  0.00    +0.058 C 
ENDBRANCH  12  14
ENDBRANCH   8  11
ENDBRANCH   3   8
BRANCH   2  20
ATOM     20  C   UNL     1      31.028 -10.999 -21.770  0.00  0.00    +0.094 C 
BRANCH  20  22
ATOM     21  N   UNL     1      32.364  -7.382 -23.689  0.00  0.00    -0.307 N 
ATOM     22  C   UNL     1      31.665  -9.633 -22.009  0.00  0.00    +0.023 C 
ATOM     23  C   UNL     1      30.616  -8.614 -22.467  0.00  0.00    +0.023 C 
ATOM     24  C   UNL     1      32.780  -9.725 -23.055  0.00  0.00    +0.023 C 
ATOM     25  C   UNL     1      31.246  -7.251 -22.746  0.00  0.00    +0.091 C 
ATOM     26  C   UNL     1      33.402  -8.357 -23.337  0.00  0.00    +0.091 C 
BRANCH  21  28
ATOM     27  N   UNL     1      33.395  -3.980 -25.965  0.00  0.00    -0.242 NA
ATOM     28  C   UNL     1      32.706  -6.253 -24.444  0.00  0.00    +0.051 C 
ATOM     29  C   UNL     1      33.796  -5.446 -24.085  0.00  0.00    +0.035 C 
ATOM     30  C   UNL     1      31.969  -5.894 -25.583  0.00  0.00    +0.035 C 
ATOM     31  C   UNL     1      34.094  -4.340 -24.865  0.00  0.00    +0.100 C 
ATOM     32  C   UNL     1      32.347  -4.769 -26.296  0.00  0.00    +0.100 C 
ENDBRANCH  21  28
ENDBRANCH  20  22
ENDBRANCH   2  20
TORSDOF 6
ENDMDL
MODEL 8
REMARK VINA RESULT:     -11.5      4.098     10.823
REMARK  Name = 446345
REMARK  6 active torsions:
REMARK  status: ('A' for Active; 'I' for Inactive)
REMARK    1  A    between atoms: N_2  and  C_20
REMARK    2  A    between atoms: N_3  and  S_8
REMARK    3  A    between atoms: S_8  and  C_11
REMARK    4  A    between atoms: C_12  and  C_14
REMARK    5  A    between atoms: C_20  and  C_22
REMARK    6  A    between atoms: N_21  and  C_28
REMARK                            x       y       z     vdW  Elec       q    Type
REMARK                         _______ _______ _______ _____ _____    ______ ____
ROOT
ATOM      1  O   UNL     1      32.772 -19.134 -22.314  0.00  0.00    -0.273 OA
ATOM      2  N   UNL     1      34.861 -19.396 -21.343  0.00  0.00    -0.277 N 
ATOM      3  N   UNL     1      33.779 -21.278 -19.577  0.00  0.00    -0.144 NA
ATOM      4  C   UNL     1      35.715 -20.116 -20.404  0.00  0.00    +0.113 C 
ATOM      5  C   UNL     1      34.979 -20.528 -19.148  0.00  0.00    +0.118 C 
ATOM      6  C   UNL     1      33.488 -19.614 -21.431  0.00  0.00    +0.244 C 
ATOM      7  C   UNL     1      32.844 -20.418 -20.329  0.00  0.00    +0.181 C 
ENDROOT
BRANCH   3   8
ATOM      8  S   UNL     1      33.065 -22.287 -18.393  0.00  0.00    +0.065 S 
ATOM      9  O   UNL     1      33.078 -23.647 -18.904  0.00  0.00    -0.153 OA
ATOM     10  O   UNL     1      31.810 -21.679 -17.986  0.00  0.00    -0.153 OA
BRANCH   8  11
ATOM     11  C   UNL     1      34.159 -22.208 -17.052  0.00  0.00    +0.141 C 
ATOM     12  C   UNL     1      34.082 -23.187 -16.142  0.00  0.00    +0.021 C 
BRANCH  12  14
ATOM     13 CL   UNL     1      37.533 -23.600 -11.294  0.00  0.00    -0.082 Cl
ATOM     14  C   UNL     1      34.934 -23.289 -14.945  0.00  0.00    +0.001 C 
ATOM     15  C   UNL     1      34.342 -23.434 -13.700  0.00  0.00    +0.001 C 
ATOM     16  C   UNL     1      36.312 -23.237 -15.085  0.00  0.00    +0.001 C 
ATOM     17  C   UNL     1      35.149 -23.531 -12.567  0.00  0.00    +0.011 C 
ATOM     18  C   UNL     1      37.118 -23.334 -13.952  0.00  0.00    +0.011 C 
ATOM     19  C   UNL     1      36.536 -23.481 -12.692  0.00  0.00    +0.058 C 
ENDBRANCH  12  14
ENDBRANCH   8  11
ENDBRANCH   3   8
BRANCH   2  20
ATOM     20  C   UNL     1      35.542 -18.600 -22.354  0.00  0.00    +0.094 C 
BRANCH  20  22
ATOM     21  N   UNL     1      33.687 -14.742 -21.880  0.00  0.00    -0.307 N 
ATOM     22  C   UNL     1      35.341 -17.105 -22.121  0.00  0.00    +0.023 C 
ATOM     23  C   UNL     1      34.465 -16.858 -20.888  0.00  0.00    +0.023 C 
ATOM     24  C   UNL     1      34.701 -16.442 -23.344  0.00  0.00    +0.023 C 
ATOM     25  C   UNL     1      34.224 -15.367 -20.663  0.00  0.00    +0.091 C 
ATOM     26  C   UNL     1      34.453 -14.951 -23.112  0.00  0.00    +0.091 C 
BRANCH  21  28
ATOM     27  N   UNL     1      31.430 -11.206 -21.411  0.00  0.00    -0.242 NA
ATOM     28  C   UNL     1      32.938 -13.568 -21.725  0.00  0.00    +0.051 C 
ATOM     29  C   UNL     1      32.839 -12.630 -22.763  0.00  0.00    +0.035 C 
ATOM     30  C   UNL     1      32.264 -13.294 -20.525  0.00  0.00    +0.035 C 
ATOM     31  C   UNL     1      32.086 -11.485 -22.560  0.00  0.00    +0.100 C 
ATOM     32  C   UNL     1      31.536 -12.120 -20.421  0.00  0.00    +0.100 C 
ENDBRANCH  21  28
ENDBRANCH  20  22
ENDBRANCH   2  20
TORSDOF 6
ENDMDL
MODEL 9
REMARK VINA RESULT:     -11.3      4.301     10.825
REMARK  Name = 446345
REMARK  6 active torsions:
REMARK  status: ('A' for Active; 'I' for Inactive)
REMARK    1  A    between atoms: N_2  and  C_20
REMARK    2  A    between atoms: N_3  and  S_8
REMARK    3  A    between atoms: S_8  and  C_11
REMARK    4  A    between atoms: C_12  and  C_14
REMARK    5  A    between atoms: C_20  and  C_22
REMARK    6  A    between atoms: N_21  and  C_28
REMARK                            x       y       z     vdW  Elec       q    Type
REMARK                         _______ _______ _______ _____ _____    ______ ____
ROOT
ATOM      1  O   UNL     1      32.668 -19.085 -22.475  0.00  0.00    -0.273 OA
ATOM      2  N   UNL     1      34.774 -18.117 -22.404  0.00  0.00    -0.277 N 
ATOM      3  N   UNL     1      35.501 -19.902 -20.375  0.00  0.00    -0.144 NA
ATOM      4  C   UNL     1      36.137 -18.140 -21.884  0.00  0.00    +0.113 C 
ATOM      5  C   UNL     1      36.200 -18.601 -20.443  0.00  0.00    +0.118 C 
ATOM      6  C   UNL     1      33.780 -18.980 -21.949  0.00  0.00    +0.244 C 
ATOM      7  C   UNL     1      34.066 -19.762 -20.691  0.00  0.00    +0.181 C 
ENDROOT
BRANCH   3   8
ATOM      8  S   UNL     1      35.867 -20.876 -19.016  0.00  0.00    +0.065 S 
ATOM      9  O   UNL     1      36.562 -20.044 -18.049  0.00  0.00    -0.153 OA
ATOM     10  O   UNL     1      36.488 -22.098 -19.497  0.00  0.00    -0.153 OA
BRANCH   8  11
ATOM     11  C   UNL     1      34.318 -21.285 -18.357  0.00  0.00    +0.141 C 
ATOM     12  C   UNL     1      34.304 -22.064 -17.268  0.00  0.00    +0.021 C 
BRANCH  12  14
ATOM     13 CL   UNL     1      29.372 -23.848 -14.427  0.00  0.00    -0.082 Cl
ATOM     14  C   UNL     1      33.087 -22.506 -16.567  0.00  0.00    +0.001 C 
ATOM     15  C   UNL     1      31.850 -22.294 -17.155  0.00  0.00    +0.001 C 
ATOM     16  C   UNL     1      33.200 -23.123 -15.331  0.00  0.00    +0.001 C 
ATOM     17  C   UNL     1      30.696 -22.711 -16.491  0.00  0.00    +0.011 C 
ATOM     18  C   UNL     1      32.047 -23.540 -14.667  0.00  0.00    +0.011 C 
ATOM     19  C   UNL     1      30.795 -23.334 -15.248  0.00  0.00    +0.058 C 
ENDBRANCH  12  14
ENDBRANCH   8  11
ENDBRANCH   3   8
BRANCH   2  20
ATOM     20  C   UNL     1      34.552 -17.307 -23.593  0.00  0.00    +0.094 C 
BRANCH  20  22
ATOM     21  N   UNL     1      33.043 -13.440 -22.440  0.00  0.00    -0.307 N 
ATOM     22  C   UNL     1      34.476 -15.821 -23.253  0.00  0.00    +0.023 C 
ATOM     23  C   UNL     1      34.013 -15.615 -21.807  0.00  0.00    +0.023 C 
ATOM     24  C   UNL     1      33.524 -15.089 -24.205  0.00  0.00    +0.023 C 
ATOM     25  C   UNL     1      33.896 -14.131 -21.464  0.00  0.00    +0.091 C 
ATOM     26  C   UNL     1      33.404 -13.607 -23.852  0.00  0.00    +0.091 C 
BRANCH  21  28
ATOM     27  N   UNL     1      31.139  -9.888 -21.187  0.00  0.00    -0.242 NA
ATOM     28  C   UNL     1      32.412 -12.261 -22.025  0.00  0.00    +0.051 C 
ATOM     29  C   UNL     1      32.316 -11.152 -22.878  0.00  0.00    +0.035 C 
ATOM     30  C   UNL     1      31.856 -12.153 -20.741  0.00  0.00    +0.035 C 
ATOM     31  C   UNL     1      31.680 -10.009 -22.420  0.00  0.00    +0.100 C 
ATOM     32  C   UNL     1      31.242 -10.966 -20.377  0.00  0.00    +0.100 C 
ENDBRANCH  21  28
ENDBRANCH  20  22
ENDBRANCH   2  20
TORSDOF 6
ENDMDL
