MODEL 1
REMARK VINA RESULT:     -12.8      0.000      0.000
REMARK  Name = 66645351
REMARK  11 active torsions:
REMARK  status: ('A' for Active; 'I' for Inactive)
REMARK    1  A    between atoms: C_2  and  C_4
REMARK    2  A    between atoms: C_2  and  C_18
REMARK    3  A    between atoms: C_3  and  C_5
REMARK    4  A    between atoms: C_6  and  O_11
REMARK    5  A    between atoms: C_8  and  O_13
REMARK    6  A    between atoms: O_13  and  S_14
REMARK    7  A    between atoms: C_18  and  C_20
REMARK    8  A    between atoms: C_20  and  C_22
REMARK    9  A    between atoms: C_21  and  C_23
REMARK   10  A    between atoms: C_25  and  O_29
REMARK   11  A    between atoms: C_27  and  O_31
REMARK                            x       y       z     vdW  Elec       q    Type
REMARK                         _______ _______ _______ _____ _____    ______ ____
ROOT
ATOM      1  O   UNL     1      32.054 -21.374 -19.681  0.00  0.00    -0.291 OA
ATOM      2  C   UNL     1      33.040 -21.804 -19.088  0.00  0.00    +0.181 C 
ENDROOT
BRANCH   2   4
ATOM      3  C   UNL     1      34.060 -22.477 -16.953  0.00  0.00    +0.003 C 
ATOM      4  C   UNL     1      32.952 -22.317 -17.688  0.00  0.00    +0.038 C 
BRANCH   3   5
ATOM      5  C   UNL     1      34.080 -22.967 -15.562  0.00  0.00    +0.003 C 
ATOM      6  C   UNL     1      32.951 -23.337 -13.458  0.00  0.00    +0.175 C 
ATOM      7  C   UNL     1      32.934 -22.873 -14.774  0.00  0.00    +0.040 C 
ATOM      8  C   UNL     1      34.117 -23.895 -12.931  0.00  0.00    +0.209 C 
ATOM      9  C   UNL     1      35.245 -23.525 -15.036  0.00  0.00    +0.003 C 
ATOM     10  C   UNL     1      35.264 -23.989 -13.720  0.00  0.00    +0.043 C 
BRANCH   6  11
ATOM     11  O   UNL     1      31.825 -23.240 -12.698  0.00  0.00    -0.468 OA
ATOM     12  C   UNL     1      30.685 -23.979 -13.133  0.00  0.00    +0.253 C 
ENDBRANCH   6  11
BRANCH   8  13
ATOM     13  O   UNL     1      34.147 -24.351 -11.648  0.00  0.00    -0.319 OA
BRANCH  13  14
ATOM     14  S   UNL     1      35.520 -24.152 -10.767  0.00  0.00    +0.282 S 
ATOM     15  O   UNL     1      34.999 -24.183  -9.220  0.00  0.00    -0.012 OA
ATOM     16  O   UNL     1      36.382 -25.302 -10.969  0.00  0.00    -0.105 OA
ATOM     17  O   UNL     1      36.022 -22.815 -11.028  0.00  0.00    -0.105 OA
ENDBRANCH  13  14
ENDBRANCH   8  13
ENDBRANCH   3   5
ENDBRANCH   2   4
BRANCH   2  18
ATOM     18  C   UNL     1      34.425 -21.807 -19.703  0.00  0.00    +0.138 C 
BRANCH  18  20
ATOM     19  O   UNL     1      35.958 -20.018 -19.196  0.00  0.00    -0.291 OA
ATOM     20  C   UNL     1      35.050 -20.440 -19.906  0.00  0.00    +0.181 C 
BRANCH  20  22
ATOM     21  C   UNL     1      35.051 -18.474 -21.385  0.00  0.00    +0.003 C 
ATOM     22  C   UNL     1      34.459 -19.614 -21.001  0.00  0.00    +0.038 C 
BRANCH  21  23
ATOM     23  C   UNL     1      34.548 -17.586 -22.446  0.00  0.00    +0.003 C 
ATOM     24  C   UNL     1      34.690 -16.203 -22.325  0.00  0.00    +0.040 C 
ATOM     25  C   UNL     1      34.213 -15.361 -23.329  0.00  0.00    +0.172 C 
ATOM     26  C   UNL     1      33.926 -18.126 -23.573  0.00  0.00    +0.003 C 
ATOM     27  C   UNL     1      33.592 -15.902 -24.455  0.00  0.00    +0.168 C 
ATOM     28  C   UNL     1      33.448 -17.284 -24.577  0.00  0.00    +0.040 C 
BRANCH  25  29
ATOM     29  O   UNL     1      34.358 -14.013 -23.199  0.00  0.00    -0.468 OA
ATOM     30  C   UNL     1      33.355 -13.322 -22.457  0.00  0.00    +0.253 C 
ENDBRANCH  25  29
BRANCH  27  31
ATOM     31  O   UNL     1      33.121 -15.091 -25.443  0.00  0.00    -0.503 OA
ATOM     32  H   UNL     1      32.393 -15.364 -25.967  0.00  0.00    +0.292 HD
ENDBRANCH  27  31
ENDBRANCH  21  23
ENDBRANCH  20  22
ENDBRANCH  18  20
ENDBRANCH   2  18
TORSDOF 11
ENDMDL
MODEL 2
REMARK VINA RESULT:     -12.6      1.547      2.489
REMARK  Name = 66645351
REMARK  11 active torsions:
REMARK  status: ('A' for Active; 'I' for Inactive)
REMARK    1  A    between atoms: C_2  and  C_4
REMARK    2  A    between atoms: C_2  and  C_18
REMARK    3  A    between atoms: C_3  and  C_5
REMARK    4  A    between atoms: C_6  and  O_11
REMARK    5  A    between atoms: C_8  and  O_13
REMARK    6  A    between atoms: O_13  and  S_14
REMARK    7  A    between atoms: C_18  and  C_20
REMARK    8  A    between atoms: C_20  and  C_22
REMARK    9  A    between atoms: C_21  and  C_23
REMARK   10  A    between atoms: C_25  and  O_29
REMARK   11  A    between atoms: C_27  and  O_31
REMARK                            x       y       z     vdW  Elec       q    Type
REMARK                         _______ _______ _______ _____ _____    ______ ____
ROOT
ATOM      1  O   UNL     1      33.068 -20.405 -19.791  0.00  0.00    -0.291 OA
ATOM      2  C   UNL     1      34.121 -20.959 -19.483  0.00  0.00    +0.181 C 
ENDROOT
BRANCH   2   4
ATOM      3  C   UNL     1      35.229 -21.680 -17.408  0.00  0.00    +0.003 C 
ATOM      4  C   UNL     1      34.223 -21.837 -18.280  0.00  0.00    +0.038 C 
BRANCH   3   5
ATOM      5  C   UNL     1      35.414 -22.488 -16.189  0.00  0.00    +0.003 C 
ATOM      6  C   UNL     1      36.867 -23.425 -14.501  0.00  0.00    +0.175 C 
ATOM      7  C   UNL     1      36.690 -22.660 -15.655  0.00  0.00    +0.040 C 
ATOM      8  C   UNL     1      35.766 -24.017 -13.882  0.00  0.00    +0.209 C 
ATOM      9  C   UNL     1      34.313 -23.080 -15.570  0.00  0.00    +0.003 C 
ATOM     10  C   UNL     1      34.489 -23.844 -14.416  0.00  0.00    +0.043 C 
BRANCH   6  11
ATOM     11  O   UNL     1      38.119 -23.585 -13.988  0.00  0.00    -0.468 OA
ATOM     12  C   UNL     1      38.868 -24.708 -14.447  0.00  0.00    +0.253 C 
ENDBRANCH   6  11
BRANCH   8  13
ATOM     13  O   UNL     1      35.925 -24.765 -12.755  0.00  0.00    -0.319 OA
BRANCH  13  14
ATOM     14  S   UNL     1      36.110 -24.000 -11.312  0.00  0.00    +0.282 S 
ATOM     15  O   UNL     1      35.024 -24.735 -10.339  0.00  0.00    -0.012 OA
ATOM     16  O   UNL     1      37.436 -24.283 -10.794  0.00  0.00    -0.105 OA
ATOM     17  O   UNL     1      35.677 -22.626 -11.483  0.00  0.00    -0.105 OA
ENDBRANCH  13  14
ENDBRANCH   8  13
ENDBRANCH   3   5
ENDBRANCH   2   4
BRANCH   2  18
ATOM     18  C   UNL     1      35.404 -20.763 -20.264  0.00  0.00    +0.138 C 
BRANCH  18  20
ATOM     19  O   UNL     1      36.694 -18.793 -19.748  0.00  0.00    -0.291 OA
ATOM     20  C   UNL     1      35.838 -19.322 -20.452  0.00  0.00    +0.181 C 
BRANCH  20  22
ATOM     21  C   UNL     1      35.194 -17.227 -21.569  0.00  0.00    +0.003 C 
ATOM     22  C   UNL     1      35.126 -18.565 -21.524  0.00  0.00    +0.038 C 
BRANCH  21  23
ATOM     23  C   UNL     1      34.523 -16.388 -22.578  0.00  0.00    +0.003 C 
ATOM     24  C   UNL     1      34.281 -15.040 -22.315  0.00  0.00    +0.040 C 
ATOM     25  C   UNL     1      33.647 -14.245 -23.269  0.00  0.00    +0.172 C 
ATOM     26  C   UNL     1      34.129 -16.942 -23.796  0.00  0.00    +0.003 C 
ATOM     27  C   UNL     1      33.253 -14.800 -24.487  0.00  0.00    +0.168 C 
ATOM     28  C   UNL     1      33.493 -16.148 -24.750  0.00  0.00    +0.040 C 
BRANCH  25  29
ATOM     29  O   UNL     1      33.416 -12.930 -23.001  0.00  0.00    -0.468 OA
ATOM     30  C   UNL     1      32.566 -12.634 -21.895  0.00  0.00    +0.253 C 
ENDBRANCH  25  29
BRANCH  27  31
ATOM     31  O   UNL     1      32.631 -14.035 -25.428  0.00  0.00    -0.503 OA
ATOM     32  H   UNL     1      32.937 -14.042 -26.314  0.00  0.00    +0.292 HD
ENDBRANCH  27  31
ENDBRANCH  21  23
ENDBRANCH  20  22
ENDBRANCH  18  20
ENDBRANCH   2  18
TORSDOF 11
ENDMDL
MODEL 3
REMARK VINA RESULT:     -12.3      1.705      2.317
REMARK  Name = 66645351
REMARK  11 active torsions:
REMARK  status: ('A' for Active; 'I' for Inactive)
REMARK    1  A    between atoms: C_2  and  C_4
REMARK    2  A    between atoms: C_2  and  C_18
REMARK    3  A    between atoms: C_3  and  C_5
REMARK    4  A    between atoms: C_6  and  O_11
REMARK    5  A    between atoms: C_8  and  O_13
REMARK    6  A    between atoms: O_13  and  S_14
REMARK    7  A    between atoms: C_18  and  C_20
REMARK    8  A    between atoms: C_20  and  C_22
REMARK    9  A    between atoms: C_21  and  C_23
REMARK   10  A    between atoms: C_25  and  O_29
REMARK   11  A    between atoms: C_27  and  O_31
REMARK                            x       y       z     vdW  Elec       q    Type
REMARK                         _______ _______ _______ _____ _____    ______ ____
ROOT
ATOM      1  O   UNL     1      33.003 -20.553 -19.845  0.00  0.00    -0.291 OA
ATOM      2  C   UNL     1      34.138 -20.930 -19.564  0.00  0.00    +0.181 C 
ENDROOT
BRANCH   2   4
ATOM      3  C   UNL     1      35.494 -21.380 -17.561  0.00  0.00    +0.003 C 
ATOM      4  C   UNL     1      34.426 -21.687 -18.310  0.00  0.00    +0.038 C 
BRANCH   3   5
ATOM      5  C   UNL     1      35.860 -22.060 -16.305  0.00  0.00    +0.003 C 
ATOM      6  C   UNL     1      35.210 -23.103 -14.225  0.00  0.00    +0.175 C 
ATOM      7  C   UNL     1      34.865 -22.461 -15.415  0.00  0.00    +0.040 C 
ATOM      8  C   UNL     1      36.551 -23.345 -13.927  0.00  0.00    +0.209 C 
ATOM      9  C   UNL     1      37.201 -22.300 -16.008  0.00  0.00    +0.003 C 
ATOM     10  C   UNL     1      37.547 -22.943 -14.819  0.00  0.00    +0.043 C 
BRANCH   6  11
ATOM     11  O   UNL     1      34.229 -23.492 -13.364  0.00  0.00    -0.468 OA
ATOM     12  C   UNL     1      32.884 -23.399 -13.829  0.00  0.00    +0.253 C 
ENDBRANCH   6  11
BRANCH   8  13
ATOM     13  O   UNL     1      36.902 -23.971 -12.770  0.00  0.00    -0.319 OA
BRANCH  13  14
ATOM     14  S   UNL     1      37.103 -25.602 -12.778  0.00  0.00    +0.282 S 
ATOM     15  O   UNL     1      38.717 -25.796 -12.927  0.00  0.00    -0.012 OA
ATOM     16  O   UNL     1      36.708 -26.134 -11.486  0.00  0.00    -0.105 OA
ATOM     17  O   UNL     1      36.491 -26.116 -13.990  0.00  0.00    -0.105 OA
ENDBRANCH  13  14
ENDBRANCH   8  13
ENDBRANCH   3   5
ENDBRANCH   2   4
BRANCH   2  18
ATOM     18  C   UNL     1      35.339 -20.621 -20.436  0.00  0.00    +0.138 C 
BRANCH  18  20
ATOM     19  O   UNL     1      36.676 -18.704 -19.847  0.00  0.00    -0.291 OA
ATOM     20  C   UNL     1      35.740 -19.161 -20.498  0.00  0.00    +0.181 C 
BRANCH  20  22
ATOM     21  C   UNL     1      35.286 -17.047 -21.672  0.00  0.00    +0.003 C 
ATOM     22  C   UNL     1      34.894 -18.293 -21.371  0.00  0.00    +0.038 C 
BRANCH  21  23
ATOM     23  C   UNL     1      34.523 -16.111 -22.516  0.00  0.00    +0.003 C 
ATOM     24  C   UNL     1      34.068 -14.904 -21.984  0.00  0.00    +0.040 C 
ATOM     25  C   UNL     1      33.346 -14.017 -22.782  0.00  0.00    +0.172 C 
ATOM     26  C   UNL     1      34.254 -16.431 -23.847  0.00  0.00    +0.003 C 
ATOM     27  C   UNL     1      33.077 -14.338 -24.113  0.00  0.00    +0.168 C 
ATOM     28  C   UNL     1      33.531 -15.545 -24.645  0.00  0.00    +0.040 C 
BRANCH  25  29
ATOM     29  O   UNL     1      32.908 -12.841 -22.252  0.00  0.00    -0.468 OA
ATOM     30  C   UNL     1      32.191 -12.914 -21.022  0.00  0.00    +0.253 C 
ENDBRANCH  25  29
BRANCH  27  31
ATOM     31  O   UNL     1      32.372 -13.481 -24.904  0.00  0.00    -0.503 OA
ATOM     32  H   UNL     1      32.279 -12.582 -24.654  0.00  0.00    +0.292 HD
ENDBRANCH  27  31
ENDBRANCH  21  23
ENDBRANCH  20  22
ENDBRANCH  18  20
ENDBRANCH   2  18
TORSDOF 11
ENDMDL
MODEL 4
REMARK VINA RESULT:     -12.2      5.074     12.562
REMARK  Name = 66645351
REMARK  11 active torsions:
REMARK  status: ('A' for Active; 'I' for Inactive)
REMARK    1  A    between atoms: C_2  and  C_4
REMARK    2  A    between atoms: C_2  and  C_18
REMARK    3  A    between atoms: C_3  and  C_5
REMARK    4  A    between atoms: C_6  and  O_11
REMARK    5  A    between atoms: C_8  and  O_13
REMARK    6  A    between atoms: O_13  and  S_14
REMARK    7  A    between atoms: C_18  and  C_20
REMARK    8  A    between atoms: C_20  and  C_22
REMARK    9  A    between atoms: C_21  and  C_23
REMARK   10  A    between atoms: C_25  and  O_29
REMARK   11  A    between atoms: C_27  and  O_31
REMARK                            x       y       z     vdW  Elec       q    Type
REMARK                         _______ _______ _______ _____ _____    ______ ____
ROOT
ATOM      1  O   UNL     1      34.634 -16.375 -20.517  0.00  0.00    -0.291 OA
ATOM      2  C   UNL     1      34.599 -16.119 -21.718  0.00  0.00    +0.181 C 
ENDROOT
BRANCH   2   4
ATOM      3  C   UNL     1      33.413 -13.987 -21.402  0.00  0.00    +0.003 C 
ATOM      4  C   UNL     1      34.051 -14.827 -22.228  0.00  0.00    +0.038 C 
BRANCH   3   5
ATOM      5  C   UNL     1      32.845 -12.687 -21.805  0.00  0.00    +0.003 C 
ATOM      6  C   UNL     1      31.404 -10.802 -21.346  0.00  0.00    +0.175 C 
ATOM      7  C   UNL     1      31.944 -12.032 -20.966  0.00  0.00    +0.040 C 
ATOM      8  C   UNL     1      31.767 -10.229 -22.565  0.00  0.00    +0.209 C 
ATOM      9  C   UNL     1      33.207 -12.114 -23.023  0.00  0.00    +0.003 C 
ATOM     10  C   UNL     1      32.669 -10.885 -23.404  0.00  0.00    +0.043 C 
BRANCH   6  11
ATOM     11  O   UNL     1      30.526 -10.170 -20.518  0.00  0.00    -0.468 OA
ATOM     12  C   UNL     1      31.037  -9.691 -19.276  0.00  0.00    +0.253 C 
ENDBRANCH   6  11
BRANCH   8  13
ATOM     13  O   UNL     1      31.248  -9.029 -22.948  0.00  0.00    -0.319 OA
BRANCH  13  14
ATOM     14  S   UNL     1      32.136  -7.667 -22.710  0.00  0.00    +0.282 S 
ATOM     15  O   UNL     1      31.479  -6.587 -23.744  0.00  0.00    -0.012 OA
ATOM     16  O   UNL     1      31.910  -7.184 -21.360  0.00  0.00    -0.105 OA
ATOM     17  O   UNL     1      33.487  -7.936 -23.167  0.00  0.00    -0.105 OA
ENDBRANCH  13  14
ENDBRANCH   8  13
ENDBRANCH   3   5
ENDBRANCH   2   4
BRANCH   2  18
ATOM     18  C   UNL     1      35.062 -17.100 -22.775  0.00  0.00    +0.138 C 
BRANCH  18  20
ATOM     19  O   UNL     1      33.475 -18.639 -23.737  0.00  0.00    -0.291 OA
ATOM     20  C   UNL     1      34.283 -18.399 -22.843  0.00  0.00    +0.181 C 
BRANCH  20  22
ATOM     21  C   UNL     1      33.554 -19.630 -20.841  0.00  0.00    +0.003 C 
ATOM     22  C   UNL     1      34.525 -19.359 -21.725  0.00  0.00    +0.038 C 
BRANCH  21  23
ATOM     23  C   UNL     1      33.693 -20.553 -19.701  0.00  0.00    +0.003 C 
ATOM     24  C   UNL     1      34.955 -20.820 -19.170  0.00  0.00    +0.040 C 
ATOM     25  C   UNL     1      35.088 -21.694 -18.091  0.00  0.00    +0.172 C 
ATOM     26  C   UNL     1      32.563 -21.161 -19.154  0.00  0.00    +0.003 C 
ATOM     27  C   UNL     1      33.957 -22.302 -17.544  0.00  0.00    +0.168 C 
ATOM     28  C   UNL     1      32.695 -22.036 -18.076  0.00  0.00    +0.040 C 
BRANCH  25  29
ATOM     29  O   UNL     1      36.325 -21.947 -17.580  0.00  0.00    -0.468 OA
ATOM     30  C   UNL     1      36.804 -21.056 -16.575  0.00  0.00    +0.253 C 
ENDBRANCH  25  29
BRANCH  27  31
ATOM     31  O   UNL     1      34.073 -23.158 -16.491  0.00  0.00    -0.503 OA
ATOM     32  H   UNL     1      33.450 -23.850 -16.379  0.00  0.00    +0.292 HD
ENDBRANCH  27  31
ENDBRANCH  21  23
ENDBRANCH  20  22
ENDBRANCH  18  20
ENDBRANCH   2  18
TORSDOF 11
ENDMDL
MODEL 5
REMARK VINA RESULT:     -12.1      2.046      3.554
REMARK  Name = 66645351
REMARK  11 active torsions:
REMARK  status: ('A' for Active; 'I' for Inactive)
REMARK    1  A    between atoms: C_2  and  C_4
REMARK    2  A    between atoms: C_2  and  C_18
REMARK    3  A    between atoms: C_3  and  C_5
REMARK    4  A    between atoms: C_6  and  O_11
REMARK    5  A    between atoms: C_8  and  O_13
REMARK    6  A    between atoms: O_13  and  S_14
REMARK    7  A    between atoms: C_18  and  C_20
REMARK    8  A    between atoms: C_20  and  C_22
REMARK    9  A    between atoms: C_21  and  C_23
REMARK   10  A    between atoms: C_25  and  O_29
REMARK   11  A    between atoms: C_27  and  O_31
REMARK                            x       y       z     vdW  Elec       q    Type
REMARK                         _______ _______ _______ _____ _____    ______ ____
ROOT
ATOM      1  O   UNL     1      34.043 -20.412 -20.739  0.00  0.00    -0.291 OA
ATOM      2  C   UNL     1      34.994 -20.416 -19.962  0.00  0.00    +0.181 C 
ENDROOT
BRANCH   2   4
ATOM      3  C   UNL     1      35.731 -21.074 -17.709  0.00  0.00    +0.003 C 
ATOM      4  C   UNL     1      35.084 -21.394 -18.837  0.00  0.00    +0.038 C 
BRANCH   3   5
ATOM      5  C   UNL     1      35.870 -21.963 -16.541  0.00  0.00    +0.003 C 
ATOM      6  C   UNL     1      37.269 -23.118 -14.945  0.00  0.00    +0.175 C 
ATOM      7  C   UNL     1      37.137 -22.276 -16.050  0.00  0.00    +0.040 C 
ATOM      8  C   UNL     1      36.133 -23.646 -14.331  0.00  0.00    +0.209 C 
ATOM      9  C   UNL     1      34.734 -22.491 -15.928  0.00  0.00    +0.003 C 
ATOM     10  C   UNL     1      34.865 -23.333 -14.823  0.00  0.00    +0.043 C 
BRANCH   6  11
ATOM     11  O   UNL     1      38.512 -23.416 -14.474  0.00  0.00    -0.468 OA
ATOM     12  C   UNL     1      39.098 -24.637 -14.919  0.00  0.00    +0.253 C 
ENDBRANCH   6  11
BRANCH   8  13
ATOM     13  O   UNL     1      36.248 -24.469 -13.252  0.00  0.00    -0.319 OA
BRANCH  13  14
ATOM     14  S   UNL     1      35.961 -23.859 -11.753  0.00  0.00    +0.282 S 
ATOM     15  O   UNL     1      37.207 -24.419 -10.859  0.00  0.00    -0.012 OA
ATOM     16  O   UNL     1      36.064 -22.412 -11.804  0.00  0.00    -0.105 OA
ATOM     17  O   UNL     1      34.751 -24.482 -11.248  0.00  0.00    -0.105 OA
ENDBRANCH  13  14
ENDBRANCH   8  13
ENDBRANCH   3   5
ENDBRANCH   2   4
BRANCH   2  18
ATOM     18  C   UNL     1      36.122 -19.408 -20.048  0.00  0.00    +0.138 C 
BRANCH  18  20
ATOM     19  O   UNL     1      36.715 -18.638 -22.253  0.00  0.00    -0.291 OA
ATOM     20  C   UNL     1      36.059 -18.461 -21.230  0.00  0.00    +0.181 C 
BRANCH  20  22
ATOM     21  C   UNL     1      35.015 -16.395 -22.063  0.00  0.00    +0.003 C 
ATOM     22  C   UNL     1      35.180 -17.267 -21.058  0.00  0.00    +0.038 C 
BRANCH  21  23
ATOM     23  C   UNL     1      34.178 -15.185 -21.993  0.00  0.00    +0.003 C 
ATOM     24  C   UNL     1      33.897 -14.463 -23.153  0.00  0.00    +0.040 C 
ATOM     25  C   UNL     1      33.104 -13.317 -23.087  0.00  0.00    +0.172 C 
ATOM     26  C   UNL     1      33.667 -14.759 -20.766  0.00  0.00    +0.003 C 
ATOM     27  C   UNL     1      32.594 -12.892 -21.860  0.00  0.00    +0.168 C 
ATOM     28  C   UNL     1      32.876 -13.612 -20.700  0.00  0.00    +0.040 C 
BRANCH  25  29
ATOM     29  O   UNL     1      32.836 -12.620 -24.227  0.00  0.00    -0.468 OA
ATOM     30  C   UNL     1      32.710 -13.374 -25.431  0.00  0.00    +0.253 C 
ENDBRANCH  25  29
BRANCH  27  31
ATOM     31  O   UNL     1      31.819 -11.774 -21.782  0.00  0.00    -0.503 OA
ATOM     32  H   UNL     1      32.000 -11.123 -21.132  0.00  0.00    +0.292 HD
ENDBRANCH  27  31
ENDBRANCH  21  23
ENDBRANCH  20  22
ENDBRANCH  18  20
ENDBRANCH   2  18
TORSDOF 11
ENDMDL
MODEL 6
REMARK VINA RESULT:     -12.0      2.283      3.356
REMARK  Name = 66645351
REMARK  11 active torsions:
REMARK  status: ('A' for Active; 'I' for Inactive)
REMARK    1  A    between atoms: C_2  and  C_4
REMARK    2  A    between atoms: C_2  and  C_18
REMARK    3  A    between atoms: C_3  and  C_5
REMARK    4  A    between atoms: C_6  and  O_11
REMARK    5  A    between atoms: C_8  and  O_13
REMARK    6  A    between atoms: O_13  and  S_14
REMARK    7  A    between atoms: C_18  and  C_20
REMARK    8  A    between atoms: C_20  and  C_22
REMARK    9  A    between atoms: C_21  and  C_23
REMARK   10  A    between atoms: C_25  and  O_29
REMARK   11  A    between atoms: C_27  and  O_31
REMARK                            x       y       z     vdW  Elec       q    Type
REMARK                         _______ _______ _______ _____ _____    ______ ____
ROOT
ATOM      1  O   UNL     1      33.955 -20.180 -20.873  0.00  0.00    -0.291 OA
ATOM      2  C   UNL     1      34.927 -20.186 -20.123  0.00  0.00    +0.181 C 
ENDROOT
BRANCH   2   4
ATOM      3  C   UNL     1      35.935 -20.942 -18.010  0.00  0.00    +0.003 C 
ATOM      4  C   UNL     1      35.026 -21.136 -18.975  0.00  0.00    +0.038 C 
BRANCH   3   5
ATOM      5  C   UNL     1      36.108 -21.814 -16.834  0.00  0.00    +0.003 C 
ATOM      6  C   UNL     1      35.168 -23.294 -15.171  0.00  0.00    +0.175 C 
ATOM      7  C   UNL     1      35.006 -22.468 -16.284  0.00  0.00    +0.040 C 
ATOM      8  C   UNL     1      36.434 -23.464 -14.608  0.00  0.00    +0.209 C 
ATOM      9  C   UNL     1      37.373 -21.985 -16.271  0.00  0.00    +0.003 C 
ATOM     10  C   UNL     1      37.536 -22.810 -15.158  0.00  0.00    +0.043 C 
BRANCH   6  11
ATOM     11  O   UNL     1      34.085 -23.928 -14.643  0.00  0.00    -0.468 OA
ATOM     12  C   UNL     1      32.897 -23.156 -14.482  0.00  0.00    +0.253 C 
ENDBRANCH   6  11
BRANCH   8  13
ATOM     13  O   UNL     1      36.606 -24.267 -13.521  0.00  0.00    -0.319 OA
BRANCH  13  14
ATOM     14  S   UNL     1      37.198 -25.785 -13.739  0.00  0.00    +0.282 S 
ATOM     15  O   UNL     1      36.766 -26.573 -12.376  0.00  0.00    -0.012 OA
ATOM     16  O   UNL     1      36.504 -26.407 -14.852  0.00  0.00    -0.105 OA
ATOM     17  O   UNL     1      38.646 -25.696 -13.748  0.00  0.00    -0.105 OA
ENDBRANCH  13  14
ENDBRANCH   8  13
ENDBRANCH   3   5
ENDBRANCH   2   4
BRANCH   2  18
ATOM     18  C   UNL     1      36.076 -19.209 -20.268  0.00  0.00    +0.138 C 
BRANCH  18  20
ATOM     19  O   UNL     1      36.654 -18.386 -22.458  0.00  0.00    -0.291 OA
ATOM     20  C   UNL     1      35.975 -18.257 -21.444  0.00  0.00    +0.181 C 
BRANCH  20  22
ATOM     21  C   UNL     1      34.979 -16.132 -22.183  0.00  0.00    +0.003 C 
ATOM     22  C   UNL     1      35.026 -17.117 -21.274  0.00  0.00    +0.038 C 
BRANCH  21  23
ATOM     23  C   UNL     1      34.086 -14.963 -22.105  0.00  0.00    +0.003 C 
ATOM     24  C   UNL     1      33.677 -14.319 -23.273  0.00  0.00    +0.040 C 
ATOM     25  C   UNL     1      32.832 -13.212 -23.201  0.00  0.00    +0.172 C 
ATOM     26  C   UNL     1      33.651 -14.497 -20.864  0.00  0.00    +0.003 C 
ATOM     27  C   UNL     1      32.397 -12.747 -21.959  0.00  0.00    +0.168 C 
ATOM     28  C   UNL     1      32.807 -13.390 -20.791  0.00  0.00    +0.040 C 
BRANCH  25  29
ATOM     29  O   UNL     1      32.438 -12.592 -24.348  0.00  0.00    -0.468 OA
ATOM     30  C   UNL     1      32.702 -13.271 -25.574  0.00  0.00    +0.253 C 
ENDBRANCH  25  29
BRANCH  27  31
ATOM     31  O   UNL     1      31.572 -11.666 -21.874  0.00  0.00    -0.503 OA
ATOM     32  H   UNL     1      30.860 -11.571 -22.476  0.00  0.00    +0.292 HD
ENDBRANCH  27  31
ENDBRANCH  21  23
ENDBRANCH  20  22
ENDBRANCH  18  20
ENDBRANCH   2  18
TORSDOF 11
ENDMDL
MODEL 7
REMARK VINA RESULT:     -11.6      5.412     13.136
REMARK  Name = 66645351
REMARK  11 active torsions:
REMARK  status: ('A' for Active; 'I' for Inactive)
REMARK    1  A    between atoms: C_2  and  C_4
REMARK    2  A    between atoms: C_2  and  C_18
REMARK    3  A    between atoms: C_3  and  C_5
REMARK    4  A    between atoms: C_6  and  O_11
REMARK    5  A    between atoms: C_8  and  O_13
REMARK    6  A    between atoms: O_13  and  S_14
REMARK    7  A    between atoms: C_18  and  C_20
REMARK    8  A    between atoms: C_20  and  C_22
REMARK    9  A    between atoms: C_21  and  C_23
REMARK   10  A    between atoms: C_25  and  O_29
REMARK   11  A    between atoms: C_27  and  O_31
REMARK                            x       y       z     vdW  Elec       q    Type
REMARK                         _______ _______ _______ _____ _____    ______ ____
ROOT
ATOM      1  O   UNL     1      33.361 -15.131 -24.182  0.00  0.00    -0.291 OA
ATOM      2  C   UNL     1      33.760 -14.714 -23.098  0.00  0.00    +0.181 C 
ENDROOT
BRANCH   2   4
ATOM      3  C   UNL     1      32.337 -12.715 -22.923  0.00  0.00    +0.003 C 
ATOM      4  C   UNL     1      33.507 -13.311 -22.655  0.00  0.00    +0.038 C 
BRANCH   3   5
ATOM      5  C   UNL     1      31.985 -11.340 -22.523  0.00  0.00    +0.003 C 
ATOM      6  C   UNL     1      32.173  -8.954 -22.852  0.00  0.00    +0.175 C 
ATOM      7  C   UNL     1      32.504 -10.256 -23.229  0.00  0.00    +0.040 C 
ATOM      8  C   UNL     1      31.322  -8.738 -21.767  0.00  0.00    +0.209 C 
ATOM      9  C   UNL     1      31.135 -11.125 -21.439  0.00  0.00    +0.003 C 
ATOM     10  C   UNL     1      30.803  -9.824 -21.061  0.00  0.00    +0.043 C 
BRANCH   6  11
ATOM     11  O   UNL     1      32.686  -7.902 -23.550  0.00  0.00    -0.468 OA
ATOM     12  C   UNL     1      34.106  -7.776 -23.581  0.00  0.00    +0.253 C 
ENDBRANCH   6  11
BRANCH   8  13
ATOM     13  O   UNL     1      30.991  -7.472 -21.389  0.00  0.00    -0.319 OA
BRANCH  13  14
ATOM     14  S   UNL     1      31.861  -6.746 -20.198  0.00  0.00    +0.282 S 
ATOM     15  O   UNL     1      31.299  -5.213 -20.182  0.00  0.00    -0.012 OA
ATOM     16  O   UNL     1      31.522  -7.357 -18.926  0.00  0.00    -0.105 OA
ATOM     17  O   UNL     1      33.245  -6.695 -20.631  0.00  0.00    -0.105 OA
ENDBRANCH  13  14
ENDBRANCH   8  13
ENDBRANCH   3   5
ENDBRANCH   2   4
BRANCH   2  18
ATOM     18  C   UNL     1      34.577 -15.566 -22.147  0.00  0.00    +0.138 C 
BRANCH  18  20
ATOM     19  O   UNL     1      34.550 -17.495 -23.591  0.00  0.00    -0.291 OA
ATOM     20  C   UNL     1      34.583 -17.052 -22.447  0.00  0.00    +0.181 C 
BRANCH  20  22
ATOM     21  C   UNL     1      34.053 -19.180 -21.332  0.00  0.00    +0.003 C 
ATOM     22  C   UNL     1      34.586 -17.953 -21.256  0.00  0.00    +0.038 C 
BRANCH  21  23
ATOM     23  C   UNL     1      33.999 -20.141 -20.217  0.00  0.00    +0.003 C 
ATOM     24  C   UNL     1      35.174 -20.525 -19.570  0.00  0.00    +0.040 C 
ATOM     25  C   UNL     1      35.124 -21.435 -18.514  0.00  0.00    +0.172 C 
ATOM     26  C   UNL     1      32.774 -20.669 -19.808  0.00  0.00    +0.003 C 
ATOM     27  C   UNL     1      33.898 -21.962 -18.105  0.00  0.00    +0.168 C 
ATOM     28  C   UNL     1      32.723 -21.579 -18.753  0.00  0.00    +0.040 C 
BRANCH  25  29
ATOM     29  O   UNL     1      36.277 -21.802 -17.889  0.00  0.00    -0.468 OA
ATOM     30  C   UNL     1      36.763 -20.935 -16.865  0.00  0.00    +0.253 C 
ENDBRANCH  25  29
BRANCH  27  31
ATOM     31  O   UNL     1      33.835 -22.852 -17.075  0.00  0.00    -0.503 OA
ATOM     32  H   UNL     1      33.520 -22.576 -16.237  0.00  0.00    +0.292 HD
ENDBRANCH  27  31
ENDBRANCH  21  23
ENDBRANCH  20  22
ENDBRANCH  18  20
ENDBRANCH   2  18
TORSDOF 11
ENDMDL
MODEL 8
REMARK VINA RESULT:     -11.1      2.313      3.844
REMARK  Name = 66645351
REMARK  11 active torsions:
REMARK  status: ('A' for Active; 'I' for Inactive)
REMARK    1  A    between atoms: C_2  and  C_4
REMARK    2  A    between atoms: C_2  and  C_18
REMARK    3  A    between atoms: C_3  and  C_5
REMARK    4  A    between atoms: C_6  and  O_11
REMARK    5  A    between atoms: C_8  and  O_13
REMARK    6  A    between atoms: O_13  and  S_14
REMARK    7  A    between atoms: C_18  and  C_20
REMARK    8  A    between atoms: C_20  and  C_22
REMARK    9  A    between atoms: C_21  and  C_23
REMARK   10  A    between atoms: C_25  and  O_29
REMARK   11  A    between atoms: C_27  and  O_31
REMARK                            x       y       z     vdW  Elec       q    Type
REMARK                         _______ _______ _______ _____ _____    ______ ____
ROOT
ATOM      1  O   UNL     1      36.414 -20.754 -20.111  0.00  0.00    -0.291 OA
ATOM      2  C   UNL     1      35.234 -20.416 -20.053  0.00  0.00    +0.181 C 
ENDROOT
BRANCH   2   4
ATOM      3  C   UNL     1      34.747 -21.732 -18.031  0.00  0.00    +0.003 C 
ATOM      4  C   UNL     1      34.286 -21.041 -19.083  0.00  0.00    +0.038 C 
BRANCH   3   5
ATOM      5  C   UNL     1      33.897 -22.377 -17.015  0.00  0.00    +0.003 C 
ATOM      6  C   UNL     1      33.660 -23.457 -14.866  0.00  0.00    +0.175 C 
ATOM      7  C   UNL     1      34.463 -22.845 -15.829  0.00  0.00    +0.040 C 
ATOM      8  C   UNL     1      32.290 -23.601 -15.090  0.00  0.00    +0.209 C 
ATOM      9  C   UNL     1      32.528 -22.521 -17.239  0.00  0.00    +0.003 C 
ATOM     10  C   UNL     1      31.724 -23.133 -16.277  0.00  0.00    +0.043 C 
BRANCH   6  11
ATOM     11  O   UNL     1      34.223 -23.909 -13.711  0.00  0.00    -0.468 OA
ATOM     12  C   UNL     1      35.355 -23.195 -13.220  0.00  0.00    +0.253 C 
ENDBRANCH   6  11
BRANCH   8  13
ATOM     13  O   UNL     1      31.494 -24.196 -14.159  0.00  0.00    -0.319 OA
BRANCH  13  14
ATOM     14  S   UNL     1      30.638 -23.250 -13.123  0.00  0.00    +0.282 S 
ATOM     15  O   UNL     1      29.816 -24.321 -12.204  0.00  0.00    -0.012 OA
ATOM     16  O   UNL     1      31.562 -22.539 -12.259  0.00  0.00    -0.105 OA
ATOM     17  O   UNL     1      29.663 -22.512 -13.904  0.00  0.00    -0.105 OA
ENDBRANCH  13  14
ENDBRANCH   8  13
ENDBRANCH   3   5
ENDBRANCH   2   4
BRANCH   2  18
ATOM     18  C   UNL     1      34.635 -19.381 -20.983  0.00  0.00    +0.138 C 
BRANCH  18  20
ATOM     19  O   UNL     1      36.650 -18.086 -21.250  0.00  0.00    -0.291 OA
ATOM     20  C   UNL     1      35.429 -18.097 -21.124  0.00  0.00    +0.181 C 
BRANCH  20  22
ATOM     21  C   UNL     1      34.636 -15.976 -22.086  0.00  0.00    +0.003 C 
ATOM     22  C   UNL     1      34.635 -16.834 -21.056  0.00  0.00    +0.038 C 
BRANCH  21  23
ATOM     23  C   UNL     1      33.895 -14.703 -22.116  0.00  0.00    +0.003 C 
ATOM     24  C   UNL     1      33.648 -14.068 -23.333  0.00  0.00    +0.040 C 
ATOM     25  C   UNL     1      32.947 -12.862 -23.363  0.00  0.00    +0.172 C 
ATOM     26  C   UNL     1      33.440 -14.131 -20.927  0.00  0.00    +0.003 C 
ATOM     27  C   UNL     1      32.493 -12.292 -22.173  0.00  0.00    +0.168 C 
ATOM     28  C   UNL     1      32.740 -12.926 -20.956  0.00  0.00    +0.040 C 
BRANCH  25  29
ATOM     29  O   UNL     1      32.712 -12.252 -24.558  0.00  0.00    -0.468 OA
ATOM     30  C   UNL     1      32.715 -13.079 -25.719  0.00  0.00    +0.253 C 
ENDBRANCH  25  29
BRANCH  27  31
ATOM     31  O   UNL     1      31.807 -11.114 -22.188  0.00  0.00    -0.503 OA
ATOM     32  H   UNL     1      31.919 -10.516 -22.900  0.00  0.00    +0.292 HD
ENDBRANCH  27  31
ENDBRANCH  21  23
ENDBRANCH  20  22
ENDBRANCH  18  20
ENDBRANCH   2  18
TORSDOF 11
ENDMDL
MODEL 9
REMARK VINA RESULT:     -11.1      4.900     12.395
REMARK  Name = 66645351
REMARK  11 active torsions:
REMARK  status: ('A' for Active; 'I' for Inactive)
REMARK    1  A    between atoms: C_2  and  C_4
REMARK    2  A    between atoms: C_2  and  C_18
REMARK    3  A    between atoms: C_3  and  C_5
REMARK    4  A    between atoms: C_6  and  O_11
REMARK    5  A    between atoms: C_8  and  O_13
REMARK    6  A    between atoms: O_13  and  S_14
REMARK    7  A    between atoms: C_18  and  C_20
REMARK    8  A    between atoms: C_20  and  C_22
REMARK    9  A    between atoms: C_21  and  C_23
REMARK   10  A    between atoms: C_25  and  O_29
REMARK   11  A    between atoms: C_27  and  O_31
REMARK                            x       y       z     vdW  Elec       q    Type
REMARK                         _______ _______ _______ _____ _____    ______ ____
ROOT
ATOM      1  O   UNL     1      35.027 -16.656 -20.346  0.00  0.00    -0.291 OA
ATOM      2  C   UNL     1      34.782 -16.431 -21.529  0.00  0.00    +0.181 C 
ENDROOT
BRANCH   2   4
ATOM      3  C   UNL     1      33.626 -14.312 -21.051  0.00  0.00    +0.003 C 
ATOM      4  C   UNL     1      34.073 -15.190 -21.960  0.00  0.00    +0.038 C 
BRANCH   3   5
ATOM      5  C   UNL     1      32.923 -13.057 -21.374  0.00  0.00    +0.003 C 
ATOM      6  C   UNL     1      32.574 -11.173 -22.846  0.00  0.00    +0.175 C 
ATOM      7  C   UNL     1      33.238 -12.362 -22.540  0.00  0.00    +0.040 C 
ATOM      8  C   UNL     1      31.594 -10.681 -21.983  0.00  0.00    +0.209 C 
ATOM      9  C   UNL     1      31.943 -12.565 -20.511  0.00  0.00    +0.003 C 
ATOM     10  C   UNL     1      31.279 -11.377 -20.816  0.00  0.00    +0.043 C 
BRANCH   6  11
ATOM     11  O   UNL     1      32.890 -10.503 -23.989  0.00  0.00    -0.468 OA
ATOM     12  C   UNL     1      34.170  -9.876 -24.040  0.00  0.00    +0.253 C 
ENDBRANCH   6  11
BRANCH   8  13
ATOM     13  O   UNL     1      30.938  -9.522 -22.270  0.00  0.00    -0.319 OA
BRANCH  13  14
ATOM     14  S   UNL     1      31.431  -8.131 -21.547  0.00  0.00    +0.282 S 
ATOM     15  O   UNL     1      30.416  -7.000 -22.143  0.00  0.00    -0.012 OA
ATOM     16  O   UNL     1      31.196  -8.231 -20.119  0.00  0.00    -0.105 OA
ATOM     17  O   UNL     1      32.760  -7.823 -22.042  0.00  0.00    -0.105 OA
ENDBRANCH  13  14
ENDBRANCH   8  13
ENDBRANCH   3   5
ENDBRANCH   2   4
BRANCH   2  18
ATOM     18  C   UNL     1      35.135 -17.404 -22.635  0.00  0.00    +0.138 C 
BRANCH  18  20
ATOM     19  O   UNL     1      33.683 -18.802 -23.957  0.00  0.00    -0.291 OA
ATOM     20  C   UNL     1      34.143 -18.530 -22.851  0.00  0.00    +0.181 C 
BRANCH  20  22
ATOM     21  C   UNL     1      34.607 -20.004 -20.937  0.00  0.00    +0.003 C 
ATOM     22  C   UNL     1      33.722 -19.267 -21.623  0.00  0.00    +0.038 C 
BRANCH  21  23
ATOM     23  C   UNL     1      34.292 -20.773 -19.720  0.00  0.00    +0.003 C 
ATOM     24  C   UNL     1      35.316 -21.169 -18.860  0.00  0.00    +0.040 C 
ATOM     25  C   UNL     1      35.019 -21.897 -17.708  0.00  0.00    +0.172 C 
ATOM     26  C   UNL     1      32.969 -21.107 -19.429  0.00  0.00    +0.003 C 
ATOM     27  C   UNL     1      33.696 -22.231 -17.417  0.00  0.00    +0.168 C 
ATOM     28  C   UNL     1      32.671 -21.837 -18.278  0.00  0.00    +0.040 C 
BRANCH  25  29
ATOM     29  O   UNL     1      36.028 -22.277 -16.876  0.00  0.00    -0.468 OA
ATOM     30  C   UNL     1      36.518 -21.297 -15.963  0.00  0.00    +0.253 C 
ENDBRANCH  25  29
BRANCH  27  31
ATOM     31  O   UNL     1      33.392 -22.943 -16.296  0.00  0.00    -0.503 OA
ATOM     32  H   UNL     1      32.654 -23.521 -16.294  0.00  0.00    +0.292 HD
ENDBRANCH  27  31
ENDBRANCH  21  23
ENDBRANCH  20  22
ENDBRANCH  18  20
ENDBRANCH   2  18
TORSDOF 11
ENDMDL
