MODEL 1
REMARK VINA RESULT:     -13.1      0.000      0.000
REMARK  Name = 657077
REMARK  7 active torsions:
REMARK  status: ('A' for Active; 'I' for Inactive)
REMARK    1  A    between atoms: C_3  and  C_23
REMARK    2  A    between atoms: C_8  and  C_10
REMARK    3  A    between atoms: C_12  and  C_15
REMARK    4  A    between atoms: C_15  and  C_16
REMARK    5  A    between atoms: C_16  and  C_17
REMARK    6  A    between atoms: C_26  and  C_29
REMARK    7  A    between atoms: C_29  and  N_30
REMARK                            x       y       z     vdW  Elec       q    Type
REMARK                         _______ _______ _______ _____ _____    ______ ____
ROOT
ATOM      1  O   UNL     1      32.720 -16.074 -25.435  0.00  0.00    -0.270 OA
ATOM      2  N   UNL     1      34.198 -16.684 -23.728  0.00  0.00    -0.276 N 
ATOM      3  C   UNL     1      34.789 -18.754 -21.795  0.00  0.00    +0.026 C 
ATOM      4  C   UNL     1      34.651 -17.276 -21.383  0.00  0.00    +0.026 C 
ATOM      5  C   UNL     1      33.969 -19.040 -23.068  0.00  0.00    +0.026 C 
ATOM      6  C   UNL     1      35.003 -16.349 -22.547  0.00  0.00    +0.094 C 
ATOM      7  C   UNL     1      34.334 -18.066 -24.188  0.00  0.00    +0.094 C 
ATOM      8  C   UNL     1      33.374 -15.800 -24.429  0.00  0.00    +0.251 C 
ENDROOT
BRANCH   8  10
ATOM      9  N   UNL     1      33.317 -12.057 -24.386  0.00  0.00    -0.242 NA
ATOM     10  C   UNL     1      33.252 -14.425 -23.931  0.00  0.00    +0.072 C 
ATOM     11  C   UNL     1      32.969 -14.175 -22.596  0.00  0.00    +0.003 C 
ATOM     12  C   UNL     1      32.859 -12.862 -22.152  0.00  0.00    -0.003 C 
ATOM     13  C   UNL     1      33.416 -13.348 -24.779  0.00  0.00    +0.103 C 
ATOM     14  C   UNL     1      33.040 -11.848 -23.080  0.00  0.00    +0.095 C 
BRANCH  12  15
ATOM     15  C   UNL     1      32.556 -12.555 -20.729  0.00  0.00    +0.033 C 
BRANCH  15  16
ATOM     16  C   UNL     1      31.188 -11.877 -20.508  0.00  0.00    +0.031 C 
BRANCH  16  17
ATOM     17  C   UNL     1      31.282 -10.373 -20.395  0.00  0.00    -0.022 C 
ATOM     18  C   UNL     1      31.498  -9.797 -19.154  0.00  0.00    -0.004 C 
ATOM     19  C   UNL     1      31.150  -9.599 -21.536  0.00  0.00    -0.004 C 
ATOM     20  C   UNL     1      31.585  -8.409 -19.050  0.00  0.00    -0.000 C 
ATOM     21  C   UNL     1      31.238  -8.210 -21.433  0.00  0.00    -0.000 C 
ATOM     22  C   UNL     1      31.455  -7.615 -20.189  0.00  0.00    -0.000 C 
ENDBRANCH  16  17
ENDBRANCH  15  16
ENDBRANCH  12  15
ENDBRANCH   8  10
BRANCH   3  23
ATOM     23  C   UNL     1      34.427 -19.696 -20.662  0.00  0.00    -0.023 C 
ATOM     24  C   UNL     1      35.419 -20.154 -19.796  0.00  0.00    -0.011 C 
ATOM     25  C   UNL     1      33.104 -20.099 -20.489  0.00  0.00    -0.004 C 
ATOM     26  C   UNL     1      35.087 -21.019 -18.755  0.00  0.00    -0.045 C 
ATOM     27  C   UNL     1      32.773 -20.965 -19.446  0.00  0.00    -0.001 C 
ATOM     28  C   UNL     1      33.763 -21.424 -18.579  0.00  0.00    -0.006 C 
BRANCH  26  29
ATOM     29  C   UNL     1      36.146 -21.511 -17.825  0.00  0.00    -0.059 C 
BRANCH  29  30
ATOM     30  N   UNL     1      36.758 -20.426 -17.055  0.00  0.00    +0.383 N 
ATOM     31  H   UNL     1      37.551 -20.048 -17.572  0.00  0.00    -0.089 HD
ATOM     32  H   UNL     1      37.078 -20.786 -16.156  0.00  0.00    -0.089 HD
ATOM     33  H   UNL     1      36.070 -19.689 -16.901  0.00  0.00    -0.089 HD
ENDBRANCH  29  30
ENDBRANCH  26  29
ENDBRANCH   3  23
TORSDOF 7
ENDMDL
MODEL 2
REMARK VINA RESULT:     -12.3      2.211     10.254
REMARK  Name = 657077
REMARK  7 active torsions:
REMARK  status: ('A' for Active; 'I' for Inactive)
REMARK    1  A    between atoms: C_3  and  C_23
REMARK    2  A    between atoms: C_8  and  C_10
REMARK    3  A    between atoms: C_12  and  C_15
REMARK    4  A    between atoms: C_15  and  C_16
REMARK    5  A    between atoms: C_16  and  C_17
REMARK    6  A    between atoms: C_26  and  C_29
REMARK    7  A    between atoms: C_29  and  N_30
REMARK                            x       y       z     vdW  Elec       q    Type
REMARK                         _______ _______ _______ _____ _____    ______ ____
ROOT
ATOM      1  O   UNL     1      33.965 -13.427 -24.465  0.00  0.00    -0.270 OA
ATOM      2  N   UNL     1      32.385 -12.514 -23.003  0.00  0.00    -0.276 N 
ATOM      3  C   UNL     1      31.371 -10.020 -21.940  0.00  0.00    +0.026 C 
ATOM      4  C   UNL     1      31.809 -11.176 -21.019  0.00  0.00    +0.026 C 
ATOM      5  C   UNL     1      32.120 -10.086 -23.285  0.00  0.00    +0.026 C 
ATOM      6  C   UNL     1      31.661 -12.523 -21.726  0.00  0.00    +0.094 C 
ATOM      7  C   UNL     1      31.969 -11.462 -23.933  0.00  0.00    +0.094 C 
ATOM      8  C   UNL     1      33.377 -13.420 -23.384  0.00  0.00    +0.251 C 
ENDROOT
BRANCH   8  10
ATOM      9  N   UNL     1      34.082 -15.115 -20.122  0.00  0.00    -0.242 NA
ATOM     10  C   UNL     1      33.778 -14.452 -22.421  0.00  0.00    +0.072 C 
ATOM     11  C   UNL     1      34.216 -15.695 -22.853  0.00  0.00    +0.003 C 
ATOM     12  C   UNL     1      34.589 -16.654 -21.917  0.00  0.00    -0.003 C 
ATOM     13  C   UNL     1      33.728 -14.209 -21.062  0.00  0.00    +0.103 C 
ATOM     14  C   UNL     1      34.504 -16.317 -20.575  0.00  0.00    +0.095 C 
BRANCH  12  15
ATOM     15  C   UNL     1      35.062 -17.998 -22.342  0.00  0.00    +0.033 C 
BRANCH  15  16
ATOM     16  C   UNL     1      35.817 -18.778 -21.244  0.00  0.00    +0.031 C 
BRANCH  16  17
ATOM     17  C   UNL     1      34.930 -19.730 -20.478  0.00  0.00    -0.022 C 
ATOM     18  C   UNL     1      33.557 -19.677 -20.661  0.00  0.00    -0.004 C 
ATOM     19  C   UNL     1      35.505 -20.639 -19.605  0.00  0.00    -0.004 C 
ATOM     20  C   UNL     1      32.738 -20.556 -19.953  0.00  0.00    -0.000 C 
ATOM     21  C   UNL     1      34.685 -21.520 -18.897  0.00  0.00    -0.000 C 
ATOM     22  C   UNL     1      33.302 -21.477 -19.071  0.00  0.00    -0.000 C 
ENDBRANCH  16  17
ENDBRANCH  15  16
ENDBRANCH  12  15
ENDBRANCH   8  10
BRANCH   3  23
ATOM     23  C   UNL     1      31.525  -8.669 -21.268  0.00  0.00    -0.023 C 
ATOM     24  C   UNL     1      31.834  -7.545 -22.032  0.00  0.00    -0.011 C 
ATOM     25  C   UNL     1      31.354  -8.555 -19.889  0.00  0.00    -0.004 C 
ATOM     26  C   UNL     1      31.974  -6.303 -21.415  0.00  0.00    -0.045 C 
ATOM     27  C   UNL     1      31.495  -7.312 -19.272  0.00  0.00    -0.001 C 
ATOM     28  C   UNL     1      31.804  -6.186 -20.035  0.00  0.00    -0.006 C 
BRANCH  26  29
ATOM     29  C   UNL     1      32.304  -5.097 -22.230  0.00  0.00    -0.059 C 
BRANCH  29  30
ATOM     30  N   UNL     1      31.577  -3.907 -21.783  0.00  0.00    +0.383 N 
ATOM     31  H   UNL     1      32.086  -3.467 -21.015  0.00  0.00    -0.089 HD
ATOM     32  H   UNL     1      30.647  -4.176 -21.464  0.00  0.00    -0.089 HD
ATOM     33  H   UNL     1      31.495  -3.248 -22.557  0.00  0.00    -0.089 HD
ENDBRANCH  29  30
ENDBRANCH  26  29
ENDBRANCH   3  23
TORSDOF 7
ENDMDL
MODEL 3
REMARK VINA RESULT:     -12.1      3.727     11.212
REMARK  Name = 657077
REMARK  7 active torsions:
REMARK  status: ('A' for Active; 'I' for Inactive)
REMARK    1  A    between atoms: C_3  and  C_23
REMARK    2  A    between atoms: C_8  and  C_10
REMARK    3  A    between atoms: C_12  and  C_15
REMARK    4  A    between atoms: C_15  and  C_16
REMARK    5  A    between atoms: C_16  and  C_17
REMARK    6  A    between atoms: C_26  and  C_29
REMARK    7  A    between atoms: C_29  and  N_30
REMARK                            x       y       z     vdW  Elec       q    Type
REMARK                         _______ _______ _______ _____ _____    ______ ____
ROOT
ATOM      1  O   UNL     1      36.525 -21.135 -17.970  0.00  0.00    -0.270 OA
ATOM      2  N   UNL     1      35.278 -20.518 -19.849  0.00  0.00    -0.276 N 
ATOM      3  C   UNL     1      34.771 -18.343 -21.690  0.00  0.00    +0.026 C 
ATOM      4  C   UNL     1      33.626 -19.065 -20.953  0.00  0.00    +0.026 C 
ATOM      5  C   UNL     1      36.079 -18.435 -20.880  0.00  0.00    +0.026 C 
ATOM      6  C   UNL     1      34.020 -20.501 -20.606  0.00  0.00    +0.094 C 
ATOM      7  C   UNL     1      36.409 -19.886 -20.530  0.00  0.00    +0.094 C 
ATOM      8  C   UNL     1      35.465 -21.099 -18.592  0.00  0.00    +0.251 C 
ENDROOT
BRANCH   8  10
ATOM      9  N   UNL     1      31.936 -22.166 -17.942  0.00  0.00    -0.242 NA
ATOM     10  C   UNL     1      34.305 -21.711 -17.934  0.00  0.00    +0.072 C 
ATOM     11  C   UNL     1      34.446 -22.391 -16.733  0.00  0.00    +0.003 C 
ATOM     12  C   UNL     1      33.329 -22.962 -16.133  0.00  0.00    -0.003 C 
ATOM     13  C   UNL     1      33.045 -21.625 -18.495  0.00  0.00    +0.103 C 
ATOM     14  C   UNL     1      32.107 -22.822 -16.773  0.00  0.00    +0.095 C 
BRANCH  12  15
ATOM     15  C   UNL     1      33.441 -23.699 -14.846  0.00  0.00    +0.033 C 
BRANCH  15  16
ATOM     16  C   UNL     1      34.582 -23.203 -13.932  0.00  0.00    +0.031 C 
BRANCH  16  17
ATOM     17  C   UNL     1      35.789 -24.111 -13.946  0.00  0.00    -0.022 C 
ATOM     18  C   UNL     1      36.919 -23.749 -13.229  0.00  0.00    -0.004 C 
ATOM     19  C   UNL     1      35.744 -25.288 -14.675  0.00  0.00    -0.004 C 
ATOM     20  C   UNL     1      38.033 -24.587 -13.242  0.00  0.00    -0.000 C 
ATOM     21  C   UNL     1      36.859 -26.127 -14.687  0.00  0.00    -0.000 C 
ATOM     22  C   UNL     1      38.004 -25.775 -13.971  0.00  0.00    -0.000 C 
ENDBRANCH  16  17
ENDBRANCH  15  16
ENDBRANCH  12  15
ENDBRANCH   8  10
BRANCH   3  23
ATOM     23  C   UNL     1      34.412 -16.909 -22.030  0.00  0.00    -0.023 C 
ATOM     24  C   UNL     1      34.126 -16.559 -23.348  0.00  0.00    -0.011 C 
ATOM     25  C   UNL     1      34.369 -15.946 -21.023  0.00  0.00    -0.004 C 
ATOM     26  C   UNL     1      33.795 -15.241 -23.661  0.00  0.00    -0.045 C 
ATOM     27  C   UNL     1      34.038 -14.628 -21.337  0.00  0.00    -0.001 C 
ATOM     28  C   UNL     1      33.751 -14.275 -22.656  0.00  0.00    -0.006 C 
BRANCH  26  29
ATOM     29  C   UNL     1      33.487 -14.863 -25.072  0.00  0.00    -0.059 C 
BRANCH  29  30
ATOM     30  N   UNL     1      32.654 -13.662 -25.157  0.00  0.00    +0.383 N 
ATOM     31  H   UNL     1      32.514 -13.414 -26.136  0.00  0.00    -0.089 HD
ATOM     32  H   UNL     1      33.118 -12.892 -24.674  0.00  0.00    -0.089 HD
ATOM     33  H   UNL     1      31.751 -13.843 -24.720  0.00  0.00    -0.089 HD
ENDBRANCH  29  30
ENDBRANCH  26  29
ENDBRANCH   3  23
TORSDOF 7
ENDMDL
MODEL 4
REMARK VINA RESULT:     -12.1      4.849      8.727
REMARK  Name = 657077
REMARK  7 active torsions:
REMARK  status: ('A' for Active; 'I' for Inactive)
REMARK    1  A    between atoms: C_3  and  C_23
REMARK    2  A    between atoms: C_8  and  C_10
REMARK    3  A    between atoms: C_12  and  C_15
REMARK    4  A    between atoms: C_15  and  C_16
REMARK    5  A    between atoms: C_16  and  C_17
REMARK    6  A    between atoms: C_26  and  C_29
REMARK    7  A    between atoms: C_29  and  N_30
REMARK                            x       y       z     vdW  Elec       q    Type
REMARK                         _______ _______ _______ _____ _____    ______ ____
ROOT
ATOM      1  O   UNL     1      31.848  -6.959 -19.086  0.00  0.00    -0.270 OA
ATOM      2  N   UNL     1      31.135  -8.656 -20.528  0.00  0.00    -0.276 N 
ATOM      3  C   UNL     1      31.526 -11.441 -21.213  0.00  0.00    +0.026 C 
ATOM      4  C   UNL     1      31.590 -10.327 -22.277  0.00  0.00    +0.026 C 
ATOM      5  C   UNL     1      31.896 -10.885 -19.825  0.00  0.00    +0.026 C 
ATOM      6  C   UNL     1      30.740  -9.126 -21.862  0.00  0.00    +0.094 C 
ATOM      7  C   UNL     1      31.043  -9.667 -19.473  0.00  0.00    +0.094 C 
ATOM      8  C   UNL     1      31.543  -7.359 -20.209  0.00  0.00    +0.251 C 
ENDROOT
BRANCH   8  10
ATOM      9  N   UNL     1      30.595  -4.611 -22.567  0.00  0.00    -0.242 NA
ATOM     10  C   UNL     1      31.636  -6.376 -21.294  0.00  0.00    +0.072 C 
ATOM     11  C   UNL     1      32.789  -6.266 -22.057  0.00  0.00    +0.003 C 
ATOM     12  C   UNL     1      32.848  -5.325 -23.080  0.00  0.00    -0.003 C 
ATOM     13  C   UNL     1      30.576  -5.538 -21.582  0.00  0.00    +0.103 C 
ATOM     14  C   UNL     1      31.734  -4.529 -23.291  0.00  0.00    +0.095 C 
BRANCH  12  15
ATOM     15  C   UNL     1      34.068  -5.178 -23.917  0.00  0.00    +0.033 C 
BRANCH  15  16
ATOM     16  C   UNL     1      34.153  -6.178 -25.090  0.00  0.00    +0.031 C 
BRANCH  16  17
ATOM     17  C   UNL     1      34.273  -5.504 -26.436  0.00  0.00    -0.022 C 
ATOM     18  C   UNL     1      35.418  -4.781 -26.735  0.00  0.00    -0.004 C 
ATOM     19  C   UNL     1      33.237  -5.620 -27.348  0.00  0.00    -0.004 C 
ATOM     20  C   UNL     1      35.528  -4.159 -27.978  0.00  0.00    -0.000 C 
ATOM     21  C   UNL     1      33.348  -4.998 -28.592  0.00  0.00    -0.000 C 
ATOM     22  C   UNL     1      34.494  -4.266 -28.906  0.00  0.00    -0.000 C 
ENDBRANCH  16  17
ENDBRANCH  15  16
ENDBRANCH  12  15
ENDBRANCH   8  10
BRANCH   3  23
ATOM     23  C   UNL     1      32.376 -12.638 -21.592  0.00  0.00    -0.023 C 
ATOM     24  C   UNL     1      32.472 -13.027 -22.927  0.00  0.00    -0.011 C 
ATOM     25  C   UNL     1      33.059 -13.346 -20.605  0.00  0.00    -0.004 C 
ATOM     26  C   UNL     1      33.254 -14.127 -23.276  0.00  0.00    -0.045 C 
ATOM     27  C   UNL     1      33.841 -14.447 -20.954  0.00  0.00    -0.001 C 
ATOM     28  C   UNL     1      33.939 -14.837 -22.290  0.00  0.00    -0.006 C 
BRANCH  26  29
ATOM     29  C   UNL     1      33.361 -14.545 -24.705  0.00  0.00    -0.059 C 
BRANCH  29  30
ATOM     30  N   UNL     1      32.606 -13.665 -25.600  0.00  0.00    +0.383 N 
ATOM     31  H   UNL     1      32.262 -14.205 -26.394  0.00  0.00    -0.089 HD
ATOM     32  H   UNL     1      33.214 -12.918 -25.934  0.00  0.00    -0.089 HD
ATOM     33  H   UNL     1      31.817 -13.263 -25.095  0.00  0.00    -0.089 HD
ENDBRANCH  29  30
ENDBRANCH  26  29
ENDBRANCH   3  23
TORSDOF 7
ENDMDL
MODEL 5
REMARK VINA RESULT:     -12.0      3.123      6.173
REMARK  Name = 657077
REMARK  7 active torsions:
REMARK  status: ('A' for Active; 'I' for Inactive)
REMARK    1  A    between atoms: C_3  and  C_23
REMARK    2  A    between atoms: C_8  and  C_10
REMARK    3  A    between atoms: C_12  and  C_15
REMARK    4  A    between atoms: C_15  and  C_16
REMARK    5  A    between atoms: C_16  and  C_17
REMARK    6  A    between atoms: C_26  and  C_29
REMARK    7  A    between atoms: C_29  and  N_30
REMARK                            x       y       z     vdW  Elec       q    Type
REMARK                         _______ _______ _______ _____ _____    ______ ____
ROOT
ATOM      1  O   UNL     1      32.119 -20.120 -20.335  0.00  0.00    -0.270 OA
ATOM      2  N   UNL     1      33.908 -21.345 -19.459  0.00  0.00    -0.276 N 
ATOM      3  C   UNL     1      34.866 -22.677 -17.075  0.00  0.00    +0.026 C 
ATOM      4  C   UNL     1      35.721 -21.633 -17.820  0.00  0.00    +0.026 C 
ATOM      5  C   UNL     1      33.366 -22.419 -17.316  0.00  0.00    +0.026 C 
ATOM      6  C   UNL     1      35.349 -21.579 -19.302  0.00  0.00    +0.094 C 
ATOM      7  C   UNL     1      33.053 -22.340 -18.810  0.00  0.00    +0.094 C 
ATOM      8  C   UNL     1      33.327 -20.301 -20.182  0.00  0.00    +0.251 C 
ENDROOT
BRANCH   8  10
ATOM      9  N   UNL     1      36.379 -18.253 -20.890  0.00  0.00    -0.242 NA
ATOM     10  C   UNL     1      34.215 -19.315 -20.808  0.00  0.00    +0.072 C 
ATOM     11  C   UNL     1      33.775 -18.534 -21.867  0.00  0.00    +0.003 C 
ATOM     12  C   UNL     1      34.639 -17.607 -22.441  0.00  0.00    -0.003 C 
ATOM     13  C   UNL     1      35.509 -19.142 -20.359  0.00  0.00    +0.103 C 
ATOM     14  C   UNL     1      35.920 -17.507 -21.921  0.00  0.00    +0.095 C 
BRANCH  12  15
ATOM     15  C   UNL     1      34.204 -16.753 -23.578  0.00  0.00    +0.033 C 
BRANCH  15  16
ATOM     16  C   UNL     1      34.690 -15.291 -23.491  0.00  0.00    +0.031 C 
BRANCH  16  17
ATOM     17  C   UNL     1      33.789 -14.416 -22.651  0.00  0.00    -0.022 C 
ATOM     18  C   UNL     1      32.948 -13.509 -23.275  0.00  0.00    -0.004 C 
ATOM     19  C   UNL     1      33.821 -14.537 -21.271  0.00  0.00    -0.004 C 
ATOM     20  C   UNL     1      32.117 -12.701 -22.499  0.00  0.00    -0.000 C 
ATOM     21  C   UNL     1      32.989 -13.730 -20.495  0.00  0.00    -0.000 C 
ATOM     22  C   UNL     1      32.138 -12.811 -21.110  0.00  0.00    -0.000 C 
ENDBRANCH  16  17
ENDBRANCH  15  16
ENDBRANCH  12  15
ENDBRANCH   8  10
BRANCH   3  23
ATOM     23  C   UNL     1      35.203 -22.738 -15.597  0.00  0.00    -0.023 C 
ATOM     24  C   UNL     1      34.280 -23.263 -14.696  0.00  0.00    -0.011 C 
ATOM     25  C   UNL     1      36.436 -22.270 -15.146  0.00  0.00    -0.004 C 
ATOM     26  C   UNL     1      34.590 -23.321 -13.337  0.00  0.00    -0.045 C 
ATOM     27  C   UNL     1      36.746 -22.327 -13.787  0.00  0.00    -0.001 C 
ATOM     28  C   UNL     1      35.824 -22.853 -12.883  0.00  0.00    -0.006 C 
BRANCH  26  29
ATOM     29  C   UNL     1      33.604 -23.883 -12.369  0.00  0.00    -0.059 C 
BRANCH  29  30
ATOM     30  N   UNL     1      32.492 -24.562 -13.038  0.00  0.00    +0.383 N 
ATOM     31  H   UNL     1      32.146 -25.314 -12.442  0.00  0.00    -0.089 HD
ATOM     32  H   UNL     1      32.815 -24.950 -13.923  0.00  0.00    -0.089 HD
ATOM     33  H   UNL     1      31.742 -23.894 -13.211  0.00  0.00    -0.089 HD
ENDBRANCH  29  30
ENDBRANCH  26  29
ENDBRANCH   3  23
TORSDOF 7
ENDMDL
MODEL 6
REMARK VINA RESULT:     -11.8      4.862      8.502
REMARK  Name = 657077
REMARK  7 active torsions:
REMARK  status: ('A' for Active; 'I' for Inactive)
REMARK    1  A    between atoms: C_3  and  C_23
REMARK    2  A    between atoms: C_8  and  C_10
REMARK    3  A    between atoms: C_12  and  C_15
REMARK    4  A    between atoms: C_15  and  C_16
REMARK    5  A    between atoms: C_16  and  C_17
REMARK    6  A    between atoms: C_26  and  C_29
REMARK    7  A    between atoms: C_29  and  N_30
REMARK                            x       y       z     vdW  Elec       q    Type
REMARK                         _______ _______ _______ _____ _____    ______ ____
ROOT
ATOM      1  O   UNL     1      31.870  -7.063 -19.012  0.00  0.00    -0.270 OA
ATOM      2  N   UNL     1      31.149  -8.603 -20.617  0.00  0.00    -0.276 N 
ATOM      3  C   UNL     1      31.486 -11.324 -21.544  0.00  0.00    +0.026 C 
ATOM      4  C   UNL     1      31.603 -10.121 -22.500  0.00  0.00    +0.026 C 
ATOM      5  C   UNL     1      31.838 -10.906 -20.103  0.00  0.00    +0.026 C 
ATOM      6  C   UNL     1      30.774  -8.940 -21.996  0.00  0.00    +0.094 C 
ATOM      7  C   UNL     1      31.007  -9.702 -19.660  0.00  0.00    +0.094 C 
ATOM      8  C   UNL     1      31.582  -7.352 -20.173  0.00  0.00    +0.251 C 
ENDROOT
BRANCH   8  10
ATOM      9  N   UNL     1      30.853  -4.254 -22.144  0.00  0.00    -0.242 NA
ATOM     10  C   UNL     1      31.724  -6.278 -21.163  0.00  0.00    +0.072 C 
ATOM     11  C   UNL     1      32.808  -6.248 -22.028  0.00  0.00    +0.003 C 
ATOM     12  C   UNL     1      32.917  -5.218 -22.956  0.00  0.00    -0.003 C 
ATOM     13  C   UNL     1      30.782  -5.272 -21.256  0.00  0.00    +0.103 C 
ATOM     14  C   UNL     1      31.921  -4.253 -22.972  0.00  0.00    +0.095 C 
BRANCH  12  15
ATOM     15  C   UNL     1      34.065  -5.151 -23.898  0.00  0.00    +0.033 C 
BRANCH  15  16
ATOM     16  C   UNL     1      34.003  -6.186 -25.042  0.00  0.00    +0.031 C 
BRANCH  16  17
ATOM     17  C   UNL     1      34.190  -5.571 -26.409  0.00  0.00    -0.022 C 
ATOM     18  C   UNL     1      33.175  -5.677 -27.346  0.00  0.00    -0.004 C 
ATOM     19  C   UNL     1      35.374  -4.912 -26.699  0.00  0.00    -0.004 C 
ATOM     20  C   UNL     1      33.348  -5.109 -28.608  0.00  0.00    -0.000 C 
ATOM     21  C   UNL     1      35.546  -4.343 -27.962  0.00  0.00    -0.000 C 
ATOM     22  C   UNL     1      34.534  -4.442 -28.916  0.00  0.00    -0.000 C 
ENDBRANCH  16  17
ENDBRANCH  15  16
ENDBRANCH  12  15
ENDBRANCH   8  10
BRANCH   3  23
ATOM     23  C   UNL     1      32.315 -12.505 -22.012  0.00  0.00    -0.023 C 
ATOM     24  C   UNL     1      32.842 -13.397 -21.080  0.00  0.00    -0.011 C 
ATOM     25  C   UNL     1      32.544 -12.697 -23.373  0.00  0.00    -0.004 C 
ATOM     26  C   UNL     1      33.602 -14.483 -21.510  0.00  0.00    -0.045 C 
ATOM     27  C   UNL     1      33.306 -13.784 -23.804  0.00  0.00    -0.001 C 
ATOM     28  C   UNL     1      33.834 -14.677 -22.872  0.00  0.00    -0.006 C 
BRANCH  26  29
ATOM     29  C   UNL     1      34.168 -15.441 -20.515  0.00  0.00    -0.059 C 
BRANCH  29  30
ATOM     30  N   UNL     1      34.727 -16.637 -21.148  0.00  0.00    +0.383 N 
ATOM     31  H   UNL     1      35.691 -16.764 -20.843  0.00  0.00    -0.089 HD
ATOM     32  H   UNL     1      34.701 -16.528 -22.162  0.00  0.00    -0.089 HD
ATOM     33  H   UNL     1      34.176 -17.452 -20.880  0.00  0.00    -0.089 HD
ENDBRANCH  29  30
ENDBRANCH  26  29
ENDBRANCH   3  23
TORSDOF 7
ENDMDL
MODEL 7
REMARK VINA RESULT:     -11.7      3.911     10.539
REMARK  Name = 657077
REMARK  7 active torsions:
REMARK  status: ('A' for Active; 'I' for Inactive)
REMARK    1  A    between atoms: C_3  and  C_23
REMARK    2  A    between atoms: C_8  and  C_10
REMARK    3  A    between atoms: C_12  and  C_15
REMARK    4  A    between atoms: C_15  and  C_16
REMARK    5  A    between atoms: C_16  and  C_17
REMARK    6  A    between atoms: C_26  and  C_29
REMARK    7  A    between atoms: C_29  and  N_30
REMARK                            x       y       z     vdW  Elec       q    Type
REMARK                         _______ _______ _______ _____ _____    ______ ____
ROOT
ATOM      1  O   UNL     1      36.576 -20.935 -18.036  0.00  0.00    -0.270 OA
ATOM      2  N   UNL     1      35.385 -20.327 -19.953  0.00  0.00    -0.276 N 
ATOM      3  C   UNL     1      34.859 -18.131 -21.764  0.00  0.00    +0.026 C 
ATOM      4  C   UNL     1      33.717 -18.922 -21.095  0.00  0.00    +0.026 C 
ATOM      5  C   UNL     1      36.133 -18.185 -20.900  0.00  0.00    +0.026 C 
ATOM      6  C   UNL     1      34.161 -20.347 -20.765  0.00  0.00    +0.094 C 
ATOM      7  C   UNL     1      36.514 -19.628 -20.569  0.00  0.00    +0.094 C 
ATOM      8  C   UNL     1      35.543 -20.930 -18.703  0.00  0.00    +0.251 C 
ENDROOT
BRANCH   8  10
ATOM      9  N   UNL     1      32.079 -22.290 -18.302  0.00  0.00    -0.242 NA
ATOM     10  C   UNL     1      34.385 -21.610 -18.112  0.00  0.00    +0.072 C 
ATOM     11  C   UNL     1      34.471 -22.198 -16.858  0.00  0.00    +0.003 C 
ATOM     12  C   UNL     1      33.356 -22.836 -16.323  0.00  0.00    -0.003 C 
ATOM     13  C   UNL     1      33.183 -21.680 -18.789  0.00  0.00    +0.103 C 
ATOM     14  C   UNL     1      32.195 -22.854 -17.079  0.00  0.00    +0.095 C 
BRANCH  12  15
ATOM     15  C   UNL     1      33.410 -23.479 -14.983  0.00  0.00    +0.033 C 
BRANCH  15  16
ATOM     16  C   UNL     1      32.368 -22.938 -13.981  0.00  0.00    +0.031 C 
BRANCH  16  17
ATOM     17  C   UNL     1      30.966 -23.424 -14.265  0.00  0.00    -0.022 C 
ATOM     18  C   UNL     1      30.664 -24.766 -14.093  0.00  0.00    -0.004 C 
ATOM     19  C   UNL     1      30.008 -22.519 -14.691  0.00  0.00    -0.004 C 
ATOM     20  C   UNL     1      29.370 -25.214 -14.355  0.00  0.00    -0.000 C 
ATOM     21  C   UNL     1      28.712 -22.967 -14.952  0.00  0.00    -0.000 C 
ATOM     22  C   UNL     1      28.394 -24.316 -14.785  0.00  0.00    -0.000 C 
ENDBRANCH  16  17
ENDBRANCH  15  16
ENDBRANCH  12  15
ENDBRANCH   8  10
BRANCH   3  23
ATOM     23  C   UNL     1      34.450 -16.706 -22.087  0.00  0.00    -0.023 C 
ATOM     24  C   UNL     1      34.162 -16.348 -23.402  0.00  0.00    -0.011 C 
ATOM     25  C   UNL     1      34.362 -15.761 -21.066  0.00  0.00    -0.004 C 
ATOM     26  C   UNL     1      33.786 -15.039 -23.699  0.00  0.00    -0.045 C 
ATOM     27  C   UNL     1      33.985 -14.451 -21.364  0.00  0.00    -0.001 C 
ATOM     28  C   UNL     1      33.696 -14.090 -22.680  0.00  0.00    -0.006 C 
BRANCH  26  29
ATOM     29  C   UNL     1      33.476 -14.651 -25.106  0.00  0.00    -0.059 C 
BRANCH  29  30
ATOM     30  N   UNL     1      32.462 -13.597 -25.184  0.00  0.00    +0.383 N 
ATOM     31  H   UNL     1      32.717 -12.933 -25.914  0.00  0.00    -0.089 HD
ATOM     32  H   UNL     1      32.405 -13.114 -24.288  0.00  0.00    -0.089 HD
ATOM     33  H   UNL     1      31.557 -14.013 -25.404  0.00  0.00    -0.089 HD
ENDBRANCH  29  30
ENDBRANCH  26  29
ENDBRANCH   3  23
TORSDOF 7
ENDMDL
MODEL 8
REMARK VINA RESULT:     -11.7      3.277      6.403
REMARK  Name = 657077
REMARK  7 active torsions:
REMARK  status: ('A' for Active; 'I' for Inactive)
REMARK    1  A    between atoms: C_3  and  C_23
REMARK    2  A    between atoms: C_8  and  C_10
REMARK    3  A    between atoms: C_12  and  C_15
REMARK    4  A    between atoms: C_15  and  C_16
REMARK    5  A    between atoms: C_16  and  C_17
REMARK    6  A    between atoms: C_26  and  C_29
REMARK    7  A    between atoms: C_29  and  N_30
REMARK                            x       y       z     vdW  Elec       q    Type
REMARK                         _______ _______ _______ _____ _____    ______ ____
ROOT
ATOM      1  O   UNL     1      31.971 -20.481 -20.082  0.00  0.00    -0.270 OA
ATOM      2  N   UNL     1      33.646 -21.712 -19.012  0.00  0.00    -0.276 N 
ATOM      3  C   UNL     1      34.345 -23.010 -16.522  0.00  0.00    +0.026 C 
ATOM      4  C   UNL     1      35.285 -21.991 -17.197  0.00  0.00    +0.026 C 
ATOM      5  C   UNL     1      32.880 -22.737 -16.913  0.00  0.00    +0.026 C 
ATOM      6  C   UNL     1      35.061 -21.962 -18.709  0.00  0.00    +0.094 C 
ATOM      7  C   UNL     1      32.717 -22.683 -18.432  0.00  0.00    +0.094 C 
ATOM      8  C   UNL     1      33.154 -20.674 -19.807  0.00  0.00    +0.251 C 
ENDROOT
BRANCH   8  10
ATOM      9  N   UNL     1      36.323 -18.744 -20.304  0.00  0.00    -0.242 NA
ATOM     10  C   UNL     1      34.114 -19.712 -20.361  0.00  0.00    +0.072 C 
ATOM     11  C   UNL     1      33.763 -18.886 -21.418  0.00  0.00    +0.003 C 
ATOM     12  C   UNL     1      34.694 -17.984 -21.922  0.00  0.00    -0.003 C 
ATOM     13  C   UNL     1      35.390 -19.607 -19.842  0.00  0.00    +0.103 C 
ATOM     14  C   UNL     1      35.949 -17.953 -21.335  0.00  0.00    +0.095 C 
BRANCH  12  15
ATOM     15  C   UNL     1      34.354 -17.082 -23.055  0.00  0.00    +0.033 C 
BRANCH  15  16
ATOM     16  C   UNL     1      34.936 -15.659 -22.926  0.00  0.00    +0.031 C 
BRANCH  16  17
ATOM     17  C   UNL     1      33.953 -14.666 -22.354  0.00  0.00    -0.022 C 
ATOM     18  C   UNL     1      33.771 -14.602 -20.982  0.00  0.00    -0.004 C 
ATOM     19  C   UNL     1      33.250 -13.836 -23.213  0.00  0.00    -0.004 C 
ATOM     20  C   UNL     1      32.863 -13.685 -20.454  0.00  0.00    -0.000 C 
ATOM     21  C   UNL     1      32.342 -12.918 -22.685  0.00  0.00    -0.000 C 
ATOM     22  C   UNL     1      32.148 -12.843 -21.305  0.00  0.00    -0.000 C 
ENDBRANCH  16  17
ENDBRANCH  15  16
ENDBRANCH  12  15
ENDBRANCH   8  10
BRANCH   3  23
ATOM     23  C   UNL     1      34.535 -23.047 -15.017  0.00  0.00    -0.023 C 
ATOM     24  C   UNL     1      35.788 -22.783 -14.468  0.00  0.00    -0.011 C 
ATOM     25  C   UNL     1      33.454 -23.342 -14.188  0.00  0.00    -0.004 C 
ATOM     26  C   UNL     1      35.962 -22.816 -13.085  0.00  0.00    -0.045 C 
ATOM     27  C   UNL     1      33.629 -23.375 -12.804  0.00  0.00    -0.001 C 
ATOM     28  C   UNL     1      34.882 -23.112 -12.253  0.00  0.00    -0.006 C 
BRANCH  26  29
ATOM     29  C   UNL     1      37.303 -22.533 -12.494  0.00  0.00    -0.059 C 
BRANCH  29  30
ATOM     30  N   UNL     1      37.918 -23.728 -11.913  0.00  0.00    +0.383 N 
ATOM     31  H   UNL     1      37.346 -24.063 -11.139  0.00  0.00    -0.089 HD
ATOM     32  H   UNL     1      38.852 -23.498 -11.573  0.00  0.00    -0.089 HD
ATOM     33  H   UNL     1      37.985 -24.456 -12.625  0.00  0.00    -0.089 HD
ENDBRANCH  29  30
ENDBRANCH  26  29
ENDBRANCH   3  23
TORSDOF 7
ENDMDL
MODEL 9
REMARK VINA RESULT:     -11.6      2.082      9.950
REMARK  Name = 657077
REMARK  7 active torsions:
REMARK  status: ('A' for Active; 'I' for Inactive)
REMARK    1  A    between atoms: C_3  and  C_23
REMARK    2  A    between atoms: C_8  and  C_10
REMARK    3  A    between atoms: C_12  and  C_15
REMARK    4  A    between atoms: C_15  and  C_16
REMARK    5  A    between atoms: C_16  and  C_17
REMARK    6  A    between atoms: C_26  and  C_29
REMARK    7  A    between atoms: C_29  and  N_30
REMARK                            x       y       z     vdW  Elec       q    Type
REMARK                         _______ _______ _______ _____ _____    ______ ____
ROOT
ATOM      1  O   UNL     1      34.346 -15.237 -25.094  0.00  0.00    -0.270 OA
ATOM      2  N   UNL     1      32.989 -13.773 -23.877  0.00  0.00    -0.276 N 
ATOM      3  C   UNL     1      32.395 -10.975 -23.441  0.00  0.00    +0.026 C 
ATOM      4  C   UNL     1      32.712 -11.928 -22.272  0.00  0.00    +0.026 C 
ATOM      5  C   UNL     1      33.056 -11.473 -24.741  0.00  0.00    +0.026 C 
ATOM      6  C   UNL     1      32.339 -13.367 -22.624  0.00  0.00    +0.094 C 
ATOM      7  C   UNL     1      32.678 -12.926 -25.029  0.00  0.00    +0.094 C 
ATOM      8  C   UNL     1      33.822 -14.883 -24.039  0.00  0.00    +0.251 C 
ENDROOT
BRANCH   8  10
ATOM      9  N   UNL     1      34.506 -15.821 -20.480  0.00  0.00    -0.242 NA
ATOM     10  C   UNL     1      34.122 -15.701 -22.859  0.00  0.00    +0.072 C 
ATOM     11  C   UNL     1      34.303 -17.072 -22.972  0.00  0.00    +0.003 C 
ATOM     12  C   UNL     1      34.587 -17.822 -21.835  0.00  0.00    -0.003 C 
ATOM     13  C   UNL     1      34.232 -15.126 -21.607  0.00  0.00    +0.103 C 
ATOM     14  C   UNL     1      34.676 -17.154 -20.624  0.00  0.00    +0.095 C 
BRANCH  12  15
ATOM     15  C   UNL     1      34.786 -19.293 -21.917  0.00  0.00    +0.033 C 
BRANCH  15  16
ATOM     16  C   UNL     1      33.714 -20.118 -21.173  0.00  0.00    +0.031 C 
BRANCH  16  17
ATOM     17  C   UNL     1      34.224 -20.735 -19.892  0.00  0.00    -0.022 C 
ATOM     18  C   UNL     1      35.559 -20.587 -19.551  0.00  0.00    -0.004 C 
ATOM     19  C   UNL     1      33.347 -21.437 -19.082  0.00  0.00    -0.004 C 
ATOM     20  C   UNL     1      36.030 -21.157 -18.368  0.00  0.00    -0.000 C 
ATOM     21  C   UNL     1      33.818 -22.007 -17.898  0.00  0.00    -0.000 C 
ATOM     22  C   UNL     1      35.160 -21.867 -17.542  0.00  0.00    -0.000 C 
ENDBRANCH  16  17
ENDBRANCH  15  16
ENDBRANCH  12  15
ENDBRANCH   8  10
BRANCH   3  23
ATOM     23  C   UNL     1      32.773  -9.540 -23.124  0.00  0.00    -0.023 C 
ATOM     24  C   UNL     1      31.996  -8.797 -22.238  0.00  0.00    -0.011 C 
ATOM     25  C   UNL     1      33.897  -8.971 -23.719  0.00  0.00    -0.004 C 
ATOM     26  C   UNL     1      32.344  -7.479 -21.946  0.00  0.00    -0.045 C 
ATOM     27  C   UNL     1      34.245  -7.652 -23.427  0.00  0.00    -0.001 C 
ATOM     28  C   UNL     1      33.469  -6.906 -22.540  0.00  0.00    -0.006 C 
BRANCH  26  29
ATOM     29  C   UNL     1      31.515  -6.680 -20.996  0.00  0.00    -0.059 C 
BRANCH  29  30
ATOM     30  N   UNL     1      31.885  -6.916 -19.599  0.00  0.00    +0.383 N 
ATOM     31  H   UNL     1      32.895  -7.040 -19.532  0.00  0.00    -0.089 HD
ATOM     32  H   UNL     1      31.416  -7.756 -19.261  0.00  0.00    -0.089 HD
ATOM     33  H   UNL     1      31.602  -6.116 -19.033  0.00  0.00    -0.089 HD
ENDBRANCH  29  30
ENDBRANCH  26  29
ENDBRANCH   3  23
TORSDOF 7
ENDMDL
