MODEL 1
REMARK VINA RESULT:     -11.9      0.000      0.000
REMARK  Name = 17754104
REMARK  13 active torsions:
REMARK  status: ('A' for Active; 'I' for Inactive)
REMARK    1  A    between atoms: C_1  and  C_29
REMARK    2  A    between atoms: C_3  and  N_11
REMARK    3  A    between atoms: C_4  and  O_7
REMARK    4  A    between atoms: C_5  and  O_9
REMARK    5  A    between atoms: C_13  and  C_14
REMARK    6  A    between atoms: C_13  and  C_17
REMARK    7  A    between atoms: C_14  and  C_16
REMARK    8  A    between atoms: C_17  and  O_18
REMARK    9  A    between atoms: O_18  and  C_21
REMARK   10  A    between atoms: C_29  and  CA_30
REMARK   11  A    between atoms: CA_30  and  N_31
REMARK   12  A    between atoms: CA_30  and  C_36
REMARK   13  A    between atoms: C_36  and  O_37
REMARK                            x       y       z     vdW  Elec       q    Type
REMARK                         _______ _______ _______ _____ _____    ______ ____
ROOT
ATOM      1  C   UNL     1      29.948 -23.748 -15.127  0.00  0.00    +0.012 C 
ATOM      2  C   UNL     1      31.150 -23.064 -15.310  0.00  0.00    +0.019 C 
ATOM      3  C   UNL     1      32.198 -23.243 -14.407  0.00  0.00    +0.090 C 
ATOM      4  C   UNL     1      29.794 -24.610 -14.041  0.00  0.00    +0.133 C 
ATOM      5  C   UNL     1      32.045 -24.106 -13.322  0.00  0.00    +0.152 C 
ATOM      6  C   UNL     1      30.842 -24.788 -13.139  0.00  0.00    +0.074 C 
ENDROOT
BRANCH   3   7
ATOM      7  N   UNL     1      33.397 -22.553 -14.603  0.00  0.00    -0.354 N 
ATOM      8  H   UNL     1      33.406 -21.615 -14.305  0.00  0.00    +0.166 HD
ATOM      9  C   UNL     1      34.560 -23.015 -15.157  0.00  0.00    +0.063 C 
BRANCH   9  10
ATOM     10  C   UNL     1      35.015 -24.281 -15.123  0.00  0.00    +0.115 C 
BRANCH  10  12
ATOM     11  O   UNL     1      35.970 -24.699 -12.999  0.00  0.00    -0.288 OA
ATOM     12  C   UNL     1      36.091 -24.743 -14.219  0.00  0.00    +0.213 C 
ENDBRANCH  10  12
ENDBRANCH   9  10
BRANCH   9  13
ATOM     13  C   UNL     1      35.398 -21.963 -15.846  0.00  0.00    +0.245 C 
BRANCH  13  14
ATOM     14  O   UNL     1      35.691 -22.388 -17.176  0.00  0.00    -0.469 OA
BRANCH  14  17
ATOM     15  C   UNL     1      35.505 -19.973 -19.937  0.00  0.00    +0.003 C 
ATOM     16  C   UNL     1      34.139 -20.086 -20.287  0.00  0.00    +0.000 C 
ATOM     17  C   UNL     1      35.185 -21.637 -18.192  0.00  0.00    +0.139 C 
ATOM     18  C   UNL     1      36.013 -20.757 -18.887  0.00  0.00    +0.037 C 
ATOM     19  C   UNL     1      33.319 -20.979 -19.576  0.00  0.00    +0.003 C 
ATOM     20  C   UNL     1      33.840 -21.749 -18.536  0.00  0.00    +0.037 C 
ATOM     21  C   UNL     1      36.324 -19.081 -20.647  0.00  0.00    +0.000 C 
ATOM     22  C   UNL     1      33.631 -19.303 -21.336  0.00  0.00    +0.000 C 
ATOM     23  C   UNL     1      35.804 -18.310 -21.687  0.00  0.00    +0.000 C 
ATOM     24  C   UNL     1      34.460 -18.422 -22.031  0.00  0.00    +0.000 C 
ENDBRANCH  14  17
ENDBRANCH  13  14
ENDBRANCH   9  13
ENDBRANCH   3   7
BRANCH   4  25
ATOM     25  O   UNL     1      28.627 -25.287 -13.849  0.00  0.00    -0.506 OA
ATOM     26  H   UNL     1      28.644 -26.180 -13.567  0.00  0.00    +0.292 HD
ENDBRANCH   4  25
BRANCH   5  27
ATOM     27  O   UNL     1      33.057 -24.294 -12.430  0.00  0.00    -0.504 OA
ATOM     28  H   UNL     1      33.486 -25.125 -12.376  0.00  0.00    +0.292 HD
ENDBRANCH   5  27
BRANCH   1  29
ATOM     29  C   UNL     1      28.835 -23.543 -16.101  0.00  0.00    +0.018 C 
BRANCH  29  30
ATOM     30  CA  UNL     1      28.266 -22.108 -16.094  0.00  0.00    +0.040 C 
BRANCH  30  31
ATOM     31  N   UNL     1      27.905 -21.710 -14.735  0.00  0.00    +0.389 N 
ATOM     32  H1  UNL     1      28.049 -20.706 -14.625  0.00  0.00    -0.088 HD
ATOM     33  H2  UNL     1      28.489 -22.212 -14.066  0.00  0.00    -0.088 HD
ATOM     34  H3  UNL     1      26.924 -21.933 -14.566  0.00  0.00    -0.088 HD
ENDBRANCH  30  31
BRANCH  30  36
ATOM     35  OXT UNL     1      26.301 -20.995 -17.009  0.00  0.00    -0.253 OA
ATOM     36  C   UNL     1      27.001 -21.997 -16.929  0.00  0.00    +0.293 C 
BRANCH  36  37
ATOM     37  O   UNL     1      26.738 -23.136 -17.621  0.00  0.00    -0.482 OA
ATOM     38  H   UNL     1      26.062 -23.715 -17.330  0.00  0.00    +0.295 HD
ENDBRANCH  36  37
ENDBRANCH  30  36
ENDBRANCH  29  30
ENDBRANCH   1  29
TORSDOF 13
ENDMDL
MODEL 2
REMARK VINA RESULT:     -11.6      3.379      6.419
REMARK  Name = 17754104
REMARK  13 active torsions:
REMARK  status: ('A' for Active; 'I' for Inactive)
REMARK    1  A    between atoms: C_1  and  C_29
REMARK    2  A    between atoms: C_3  and  N_11
REMARK    3  A    between atoms: C_4  and  O_7
REMARK    4  A    between atoms: C_5  and  O_9
REMARK    5  A    between atoms: C_13  and  C_14
REMARK    6  A    between atoms: C_13  and  C_17
REMARK    7  A    between atoms: C_14  and  C_16
REMARK    8  A    between atoms: C_17  and  O_18
REMARK    9  A    between atoms: O_18  and  C_21
REMARK   10  A    between atoms: C_29  and  CA_30
REMARK   11  A    between atoms: CA_30  and  N_31
REMARK   12  A    between atoms: CA_30  and  C_36
REMARK   13  A    between atoms: C_36  and  O_37
REMARK                            x       y       z     vdW  Elec       q    Type
REMARK                         _______ _______ _______ _____ _____    ______ ____
ROOT
ATOM      1  C   UNL     1      36.486 -25.180 -13.430  0.00  0.00    +0.012 C 
ATOM      2  C   UNL     1      35.626 -24.692 -14.414  0.00  0.00    +0.019 C 
ATOM      3  C   UNL     1      34.482 -23.982 -14.050  0.00  0.00    +0.090 C 
ATOM      4  C   UNL     1      36.201 -24.959 -12.083  0.00  0.00    +0.133 C 
ATOM      5  C   UNL     1      34.198 -23.760 -12.703  0.00  0.00    +0.152 C 
ATOM      6  C   UNL     1      35.057 -24.250 -11.720  0.00  0.00    +0.074 C 
ENDROOT
BRANCH   3   7
ATOM      7  N   UNL     1      33.630 -23.498 -15.046  0.00  0.00    -0.354 N 
ATOM      8  H   UNL     1      32.698 -23.811 -15.003  0.00  0.00    +0.166 HD
ATOM      9  C   UNL     1      33.927 -22.643 -16.073  0.00  0.00    +0.063 C 
BRANCH   9  10
ATOM     10  C   UNL     1      34.861 -21.674 -16.063  0.00  0.00    +0.115 C 
BRANCH  10  12
ATOM     11  O   UNL     1      37.117 -21.632 -15.354  0.00  0.00    -0.288 OA
ATOM     12  C   UNL     1      36.308 -21.928 -16.228  0.00  0.00    +0.213 C 
ENDBRANCH  10  12
ENDBRANCH   9  10
BRANCH   9  13
ATOM     13  C   UNL     1      33.085 -22.825 -17.315  0.00  0.00    +0.245 C 
BRANCH  13  14
ATOM     14  O   UNL     1      33.931 -22.829 -18.464  0.00  0.00    -0.469 OA
BRANCH  14  17
ATOM     15  C   UNL     1      35.231 -19.936 -20.316  0.00  0.00    +0.003 C 
ATOM     16  C   UNL     1      34.023 -19.353 -20.764  0.00  0.00    +0.000 C 
ATOM     17  C   UNL     1      33.961 -21.695 -19.216  0.00  0.00    +0.139 C 
ATOM     18  C   UNL     1      35.183 -21.109 -19.543  0.00  0.00    +0.037 C 
ATOM     19  C   UNL     1      32.801 -19.956 -20.424  0.00  0.00    +0.003 C 
ATOM     20  C   UNL     1      32.772 -21.120 -19.656  0.00  0.00    +0.037 C 
ATOM     21  C   UNL     1      36.453 -19.333 -20.656  0.00  0.00    +0.000 C 
ATOM     22  C   UNL     1      34.071 -18.180 -21.537  0.00  0.00    +0.000 C 
ATOM     23  C   UNL     1      36.483 -18.169 -21.425  0.00  0.00    +0.000 C 
ATOM     24  C   UNL     1      35.294 -17.594 -21.864  0.00  0.00    +0.000 C 
ENDBRANCH  14  17
ENDBRANCH  13  14
ENDBRANCH   9  13
ENDBRANCH   3   7
BRANCH   4  25
ATOM     25  O   UNL     1      37.031 -25.428 -11.109  0.00  0.00    -0.506 OA
ATOM     26  H   UNL     1      36.810 -26.209 -10.640  0.00  0.00    +0.292 HD
ENDBRANCH   4  25
BRANCH   5  27
ATOM     27  O   UNL     1      33.085 -23.069 -12.327  0.00  0.00    -0.504 OA
ATOM     28  H   UNL     1      32.289 -23.527 -12.141  0.00  0.00    +0.292 HD
ENDBRANCH   5  27
BRANCH   1  29
ATOM     29  C   UNL     1      37.705 -25.940 -13.837  0.00  0.00    +0.018 C 
BRANCH  29  30
ATOM     30  CA  UNL     1      38.982 -25.074 -13.889  0.00  0.00    +0.040 C 
BRANCH  30  31
ATOM     31  N   UNL     1      38.791 -23.939 -14.789  0.00  0.00    +0.389 N 
ATOM     32  H1  UNL     1      39.599 -23.319 -14.729  0.00  0.00    -0.088 HD
ATOM     33  H2  UNL     1      37.950 -23.429 -14.520  0.00  0.00    -0.088 HD
ATOM     34  H3  UNL     1      38.693 -24.278 -15.746  0.00  0.00    -0.088 HD
ENDBRANCH  30  31
BRANCH  30  36
ATOM     35  OXT UNL     1      40.949 -26.502 -13.730  0.00  0.00    -0.253 OA
ATOM     36  C   UNL     1      40.173 -25.854 -14.420  0.00  0.00    +0.293 C 
BRANCH  36  37
ATOM     37  O   UNL     1      40.272 -25.787 -15.774  0.00  0.00    -0.482 OA
ATOM     38  H   UNL     1      41.046 -26.095 -16.202  0.00  0.00    +0.295 HD
ENDBRANCH  36  37
ENDBRANCH  30  36
ENDBRANCH  29  30
ENDBRANCH   1  29
TORSDOF 13
ENDMDL
MODEL 3
REMARK VINA RESULT:     -11.1      4.962      9.395
REMARK  Name = 17754104
REMARK  13 active torsions:
REMARK  status: ('A' for Active; 'I' for Inactive)
REMARK    1  A    between atoms: C_1  and  C_29
REMARK    2  A    between atoms: C_3  and  N_11
REMARK    3  A    between atoms: C_4  and  O_7
REMARK    4  A    between atoms: C_5  and  O_9
REMARK    5  A    between atoms: C_13  and  C_14
REMARK    6  A    between atoms: C_13  and  C_17
REMARK    7  A    between atoms: C_14  and  C_16
REMARK    8  A    between atoms: C_17  and  O_18
REMARK    9  A    between atoms: O_18  and  C_21
REMARK   10  A    between atoms: C_29  and  CA_30
REMARK   11  A    between atoms: CA_30  and  N_31
REMARK   12  A    between atoms: CA_30  and  C_36
REMARK   13  A    between atoms: C_36  and  O_37
REMARK                            x       y       z     vdW  Elec       q    Type
REMARK                         _______ _______ _______ _____ _____    ______ ____
ROOT
ATOM      1  C   UNL     1      34.219 -15.441 -22.182  0.00  0.00    +0.012 C 
ATOM      2  C   UNL     1      34.572 -16.411 -21.243  0.00  0.00    +0.019 C 
ATOM      3  C   UNL     1      34.716 -17.741 -21.636  0.00  0.00    +0.090 C 
ATOM      4  C   UNL     1      34.010 -15.802 -23.512  0.00  0.00    +0.133 C 
ATOM      5  C   UNL     1      34.507 -18.102 -22.967  0.00  0.00    +0.152 C 
ATOM      6  C   UNL     1      34.153 -17.132 -23.905  0.00  0.00    +0.074 C 
ENDROOT
BRANCH   3   7
ATOM      7  N   UNL     1      35.070 -18.703 -20.686  0.00  0.00    -0.354 N 
ATOM      8  H   UNL     1      35.942 -18.574 -20.249  0.00  0.00    +0.166 HD
ATOM      9  C   UNL     1      34.358 -19.801 -20.286  0.00  0.00    +0.063 C 
BRANCH   9  10
ATOM     10  C   UNL     1      33.018 -19.921 -20.261  0.00  0.00    +0.115 C 
BRANCH  10  12
ATOM     11  O   UNL     1      31.662 -20.922 -18.601  0.00  0.00    -0.288 OA
ATOM     12  C   UNL     1      32.307 -21.057 -19.635  0.00  0.00    +0.213 C 
ENDBRANCH  10  12
ENDBRANCH   9  10
BRANCH   9  13
ATOM     13  C   UNL     1      35.197 -20.966 -19.814  0.00  0.00    +0.245 C 
BRANCH  13  14
ATOM     14  O   UNL     1      36.052 -20.536 -18.755  0.00  0.00    -0.469 OA
BRANCH  14  17
ATOM     15  C   UNL     1      34.661 -22.532 -16.004  0.00  0.00    +0.003 C 
ATOM     16  C   UNL     1      35.778 -22.592 -15.139  0.00  0.00    +0.000 C 
ATOM     17  C   UNL     1      35.963 -21.208 -17.575  0.00  0.00    +0.139 C 
ATOM     18  C   UNL     1      34.770 -21.836 -17.219  0.00  0.00    +0.037 C 
ATOM     19  C   UNL     1      36.973 -21.953 -15.513  0.00  0.00    +0.003 C 
ATOM     20  C   UNL     1      37.063 -21.267 -16.724  0.00  0.00    +0.037 C 
ATOM     21  C   UNL     1      33.468 -23.170 -15.630  0.00  0.00    +0.000 C 
ATOM     22  C   UNL     1      35.670 -23.288 -13.923  0.00  0.00    +0.000 C 
ATOM     23  C   UNL     1      33.377 -23.858 -14.419  0.00  0.00    +0.000 C 
ATOM     24  C   UNL     1      34.477 -23.916 -13.567  0.00  0.00    +0.000 C 
ENDBRANCH  14  17
ENDBRANCH  13  14
ENDBRANCH   9  13
ENDBRANCH   3   7
BRANCH   4  25
ATOM     25  O   UNL     1      33.666 -14.867 -24.442  0.00  0.00    -0.506 OA
ATOM     26  H   UNL     1      34.080 -14.867 -25.283  0.00  0.00    +0.292 HD
ENDBRANCH   4  25
BRANCH   5  27
ATOM     27  O   UNL     1      34.643 -19.397 -23.370  0.00  0.00    -0.504 OA
ATOM     28  H   UNL     1      35.141 -19.999 -22.853  0.00  0.00    +0.292 HD
ENDBRANCH   5  27
BRANCH   1  29
ATOM     29  C   UNL     1      34.067 -14.022 -21.743  0.00  0.00    +0.018 C 
BRANCH  29  30
ATOM     30  CA  UNL     1      32.634 -13.474 -21.914  0.00  0.00    +0.040 C 
BRANCH  30  31
ATOM     31  N   UNL     1      32.634 -12.313 -22.801  0.00  0.00    +0.389 N 
ATOM     32  H1  UNL     1      31.748 -11.816 -22.710  0.00  0.00    -0.088 HD
ATOM     33  H2  UNL     1      32.754 -12.622 -23.765  0.00  0.00    -0.088 HD
ATOM     34  H3  UNL     1      33.400 -11.690 -22.544  0.00  0.00    -0.088 HD
ENDBRANCH  30  31
BRANCH  30  36
ATOM     35  OXT UNL     1      31.907 -11.840 -20.260  0.00  0.00    -0.253 OA
ATOM     36  C   UNL     1      32.045 -13.010 -20.592  0.00  0.00    +0.293 C 
BRANCH  36  37
ATOM     37  O   UNL     1      31.646 -14.048 -19.811  0.00  0.00    -0.482 OA
ATOM     38  H   UNL     1      31.979 -14.134 -18.940  0.00  0.00    +0.295 HD
ENDBRANCH  36  37
ENDBRANCH  30  36
ENDBRANCH  29  30
ENDBRANCH   1  29
TORSDOF 13
ENDMDL
MODEL 4
REMARK VINA RESULT:     -11.0      2.312      6.472
REMARK  Name = 17754104
REMARK  13 active torsions:
REMARK  status: ('A' for Active; 'I' for Inactive)
REMARK    1  A    between atoms: C_1  and  C_29
REMARK    2  A    between atoms: C_3  and  N_11
REMARK    3  A    between atoms: C_4  and  O_7
REMARK    4  A    between atoms: C_5  and  O_9
REMARK    5  A    between atoms: C_13  and  C_14
REMARK    6  A    between atoms: C_13  and  C_17
REMARK    7  A    between atoms: C_14  and  C_16
REMARK    8  A    between atoms: C_17  and  O_18
REMARK    9  A    between atoms: O_18  and  C_21
REMARK   10  A    between atoms: C_29  and  CA_30
REMARK   11  A    between atoms: CA_30  and  N_31
REMARK   12  A    between atoms: CA_30  and  C_36
REMARK   13  A    between atoms: C_36  and  O_37
REMARK                            x       y       z     vdW  Elec       q    Type
REMARK                         _______ _______ _______ _____ _____    ______ ____
ROOT
ATOM      1  C   UNL     1      36.306 -23.908 -13.356  0.00  0.00    +0.012 C 
ATOM      2  C   UNL     1      35.439 -23.769 -14.440  0.00  0.00    +0.019 C 
ATOM      3  C   UNL     1      34.064 -23.917 -14.256  0.00  0.00    +0.090 C 
ATOM      4  C   UNL     1      35.799 -24.193 -12.089  0.00  0.00    +0.133 C 
ATOM      5  C   UNL     1      33.557 -24.203 -12.989  0.00  0.00    +0.152 C 
ATOM      6  C   UNL     1      34.424 -24.341 -11.906  0.00  0.00    +0.074 C 
ENDROOT
BRANCH   3   7
ATOM      7  N   UNL     1      33.207 -23.776 -15.350  0.00  0.00    -0.354 N 
ATOM      8  H   UNL     1      33.277 -24.471 -16.044  0.00  0.00    +0.166 HD
ATOM      9  C   UNL     1      32.282 -22.793 -15.580  0.00  0.00    +0.063 C 
BRANCH   9  10
ATOM     10  C   UNL     1      31.599 -22.103 -14.648  0.00  0.00    +0.115 C 
BRANCH  10  12
ATOM     11  O   UNL     1      29.752 -23.281 -13.754  0.00  0.00    -0.288 OA
ATOM     12  C   UNL     1      30.160 -22.302 -14.371  0.00  0.00    +0.213 C 
ENDBRANCH  10  12
ENDBRANCH   9  10
BRANCH   9  13
ATOM     13  C   UNL     1      32.015 -22.499 -17.038  0.00  0.00    +0.245 C 
BRANCH  13  14
ATOM     14  O   UNL     1      33.105 -22.978 -17.825  0.00  0.00    -0.469 OA
BRANCH  14  17
ATOM     15  C   UNL     1      34.131 -20.311 -20.132  0.00  0.00    +0.003 C 
ATOM     16  C   UNL     1      35.474 -20.124 -19.729  0.00  0.00    +0.000 C 
ATOM     17  C   UNL     1      33.878 -22.046 -18.446  0.00  0.00    +0.139 C 
ATOM     18  C   UNL     1      33.346 -21.276 -19.480  0.00  0.00    +0.037 C 
ATOM     19  C   UNL     1      35.994 -20.908 -18.686  0.00  0.00    +0.003 C 
ATOM     20  C   UNL     1      35.199 -21.862 -18.049  0.00  0.00    +0.037 C 
ATOM     21  C   UNL     1      33.611 -19.528 -21.175  0.00  0.00    +0.000 C 
ATOM     22  C   UNL     1      36.260 -19.160 -20.381  0.00  0.00    +0.000 C 
ATOM     23  C   UNL     1      34.405 -18.573 -21.813  0.00  0.00    +0.000 C 
ATOM     24  C   UNL     1      35.727 -18.390 -21.416  0.00  0.00    +0.000 C 
ENDBRANCH  14  17
ENDBRANCH  13  14
ENDBRANCH   9  13
ENDBRANCH   3   7
BRANCH   4  25
ATOM     25  O   UNL     1      36.632 -24.330 -11.019  0.00  0.00    -0.506 OA
ATOM     26  H   UNL     1      36.485 -23.826 -10.243  0.00  0.00    +0.292 HD
ENDBRANCH   4  25
BRANCH   5  27
ATOM     27  O   UNL     1      32.217 -24.350 -12.789  0.00  0.00    -0.504 OA
ATOM     28  H   UNL     1      31.843 -25.207 -12.732  0.00  0.00    +0.292 HD
ENDBRANCH   5  27
BRANCH   1  29
ATOM     29  C   UNL     1      37.775 -23.748 -13.571  0.00  0.00    +0.018 C 
BRANCH  29  30
ATOM     30  CA  UNL     1      38.484 -25.058 -13.977  0.00  0.00    +0.040 C 
BRANCH  30  31
ATOM     31  N   UNL     1      38.747 -25.882 -12.799  0.00  0.00    +0.389 N 
ATOM     32  H1  UNL     1      38.634 -25.316 -11.958  0.00  0.00    -0.088 HD
ATOM     33  H2  UNL     1      39.699 -26.244 -12.841  0.00  0.00    -0.088 HD
ATOM     34  H3  UNL     1      38.087 -26.660 -12.775  0.00  0.00    -0.088 HD
ENDBRANCH  30  31
BRANCH  30  36
ATOM     35  OXT UNL     1      40.683 -24.031 -14.192  0.00  0.00    -0.253 OA
ATOM     36  C   UNL     1      39.830 -24.793 -14.630  0.00  0.00    +0.293 C 
BRANCH  36  37
ATOM     37  O   UNL     1      40.012 -25.531 -15.757  0.00  0.00    -0.482 OA
ATOM     38  H   UNL     1      39.690 -25.217 -16.579  0.00  0.00    +0.295 HD
ENDBRANCH  36  37
ENDBRANCH  30  36
ENDBRANCH  29  30
ENDBRANCH   1  29
TORSDOF 13
ENDMDL
MODEL 5
REMARK VINA RESULT:     -11.0      2.782      5.338
REMARK  Name = 17754104
REMARK  13 active torsions:
REMARK  status: ('A' for Active; 'I' for Inactive)
REMARK    1  A    between atoms: C_1  and  C_29
REMARK    2  A    between atoms: C_3  and  N_11
REMARK    3  A    between atoms: C_4  and  O_7
REMARK    4  A    between atoms: C_5  and  O_9
REMARK    5  A    between atoms: C_13  and  C_14
REMARK    6  A    between atoms: C_13  and  C_17
REMARK    7  A    between atoms: C_14  and  C_16
REMARK    8  A    between atoms: C_17  and  O_18
REMARK    9  A    between atoms: O_18  and  C_21
REMARK   10  A    between atoms: C_29  and  CA_30
REMARK   11  A    between atoms: CA_30  and  N_31
REMARK   12  A    between atoms: CA_30  and  C_36
REMARK   13  A    between atoms: C_36  and  O_37
REMARK                            x       y       z     vdW  Elec       q    Type
REMARK                         _______ _______ _______ _____ _____    ______ ____
ROOT
ATOM      1  C   UNL     1      33.923 -22.637 -15.867  0.00  0.00    +0.012 C 
ATOM      2  C   UNL     1      34.260 -22.266 -17.169  0.00  0.00    +0.019 C 
ATOM      3  C   UNL     1      35.475 -21.627 -17.418  0.00  0.00    +0.090 C 
ATOM      4  C   UNL     1      34.800 -22.370 -14.816  0.00  0.00    +0.133 C 
ATOM      5  C   UNL     1      36.352 -21.360 -16.367  0.00  0.00    +0.152 C 
ATOM      6  C   UNL     1      36.013 -21.731 -15.066  0.00  0.00    +0.074 C 
ENDROOT
BRANCH   3   7
ATOM      7  N   UNL     1      35.801 -21.261 -18.727  0.00  0.00    -0.354 N 
ATOM      8  H   UNL     1      36.758 -21.293 -18.956  0.00  0.00    +0.166 HD
ATOM      9  C   UNL     1      34.959 -20.863 -19.730  0.00  0.00    +0.063 C 
BRANCH   9  10
ATOM     10  C   UNL     1      33.679 -21.244 -19.898  0.00  0.00    +0.115 C 
BRANCH  10  12
ATOM     11  O   UNL     1      31.630 -20.615 -18.897  0.00  0.00    -0.288 OA
ATOM     12  C   UNL     1      32.522 -20.345 -19.695  0.00  0.00    +0.213 C 
ENDBRANCH  10  12
ENDBRANCH   9  10
BRANCH   9  13
ATOM     13  C   UNL     1      35.572 -19.920 -20.739  0.00  0.00    +0.245 C 
BRANCH  13  14
ATOM     14  O   UNL     1      35.361 -18.574 -20.320  0.00  0.00    -0.469 OA
BRANCH  14  17
ATOM     15  C   UNL     1      34.176 -15.457 -21.859  0.00  0.00    +0.003 C 
ATOM     16  C   UNL     1      34.046 -15.868 -23.206  0.00  0.00    +0.000 C 
ATOM     17  C   UNL     1      34.933 -17.690 -21.262  0.00  0.00    +0.139 C 
ATOM     18  C   UNL     1      34.622 -16.381 -20.899  0.00  0.00    +0.037 C 
ATOM     19  C   UNL     1      34.364 -17.192 -23.555  0.00  0.00    +0.003 C 
ATOM     20  C   UNL     1      34.804 -18.096 -22.588  0.00  0.00    +0.037 C 
ATOM     21  C   UNL     1      33.859 -14.134 -21.512  0.00  0.00    +0.000 C 
ATOM     22  C   UNL     1      33.600 -14.946 -24.167  0.00  0.00    +0.000 C 
ATOM     23  C   UNL     1      33.418 -13.230 -22.478  0.00  0.00    +0.000 C 
ATOM     24  C   UNL     1      33.290 -13.635 -23.804  0.00  0.00    +0.000 C 
ENDBRANCH  14  17
ENDBRANCH  13  14
ENDBRANCH   9  13
ENDBRANCH   3   7
BRANCH   4  25
ATOM     25  O   UNL     1      34.486 -22.727 -13.539  0.00  0.00    -0.506 OA
ATOM     26  H   UNL     1      34.275 -23.618 -13.340  0.00  0.00    +0.292 HD
ENDBRANCH   4  25
BRANCH   5  27
ATOM     27  O   UNL     1      37.543 -20.737 -16.591  0.00  0.00    -0.504 OA
ATOM     28  H   UNL     1      37.993 -20.865 -17.402  0.00  0.00    +0.292 HD
ENDBRANCH   5  27
BRANCH   1  29
ATOM     29  C   UNL     1      32.618 -23.318 -15.617  0.00  0.00    +0.018 C 
BRANCH  29  30
ATOM     30  CA  UNL     1      31.489 -22.352 -15.198  0.00  0.00    +0.040 C 
BRANCH  30  31
ATOM     31  N   UNL     1      31.328 -22.356 -13.746  0.00  0.00    +0.389 N 
ATOM     32  H1  UNL     1      31.531 -23.288 -13.384  0.00  0.00    -0.088 HD
ATOM     33  H2  UNL     1      30.370 -22.101 -13.508  0.00  0.00    -0.088 HD
ATOM     34  H3  UNL     1      31.973 -21.683 -13.332  0.00  0.00    -0.088 HD
ENDBRANCH  30  31
BRANCH  30  36
ATOM     35  OXT UNL     1      29.406 -23.611 -15.308  0.00  0.00    -0.253 OA
ATOM     36  C   UNL     1      30.148 -22.762 -15.785  0.00  0.00    +0.293 C 
BRANCH  36  37
ATOM     37  O   UNL     1      29.832 -22.049 -16.898  0.00  0.00    -0.482 OA
ATOM     38  H   UNL     1      28.942 -22.000 -17.184  0.00  0.00    +0.295 HD
ENDBRANCH  36  37
ENDBRANCH  30  36
ENDBRANCH  29  30
ENDBRANCH   1  29
TORSDOF 13
ENDMDL
MODEL 6
REMARK VINA RESULT:     -10.9      5.630      9.367
REMARK  Name = 17754104
REMARK  13 active torsions:
REMARK  status: ('A' for Active; 'I' for Inactive)
REMARK    1  A    between atoms: C_1  and  C_29
REMARK    2  A    between atoms: C_3  and  N_11
REMARK    3  A    between atoms: C_4  and  O_7
REMARK    4  A    between atoms: C_5  and  O_9
REMARK    5  A    between atoms: C_13  and  C_14
REMARK    6  A    between atoms: C_13  and  C_17
REMARK    7  A    between atoms: C_14  and  C_16
REMARK    8  A    between atoms: C_17  and  O_18
REMARK    9  A    between atoms: O_18  and  C_21
REMARK   10  A    between atoms: C_29  and  CA_30
REMARK   11  A    between atoms: CA_30  and  N_31
REMARK   12  A    between atoms: CA_30  and  C_36
REMARK   13  A    between atoms: C_36  and  O_37
REMARK                            x       y       z     vdW  Elec       q    Type
REMARK                         _______ _______ _______ _____ _____    ______ ____
ROOT
ATOM      1  C   UNL     1      34.133 -19.868 -20.263  0.00  0.00    +0.012 C 
ATOM      2  C   UNL     1      33.982 -18.813 -21.164  0.00  0.00    +0.019 C 
ATOM      3  C   UNL     1      35.106 -18.140 -21.644  0.00  0.00    +0.090 C 
ATOM      4  C   UNL     1      35.407 -20.250 -19.843  0.00  0.00    +0.133 C 
ATOM      5  C   UNL     1      36.380 -18.522 -21.224  0.00  0.00    +0.152 C 
ATOM      6  C   UNL     1      36.530 -19.576 -20.323  0.00  0.00    +0.074 C 
ENDROOT
BRANCH   3   7
ATOM      7  N   UNL     1      34.940 -17.086 -22.545  0.00  0.00    -0.354 N 
ATOM      8  H   UNL     1      35.463 -16.274 -22.357  0.00  0.00    +0.166 HD
ATOM      9  C   UNL     1      34.143 -17.040 -23.658  0.00  0.00    +0.063 C 
BRANCH   9  10
ATOM     10  C   UNL     1      33.796 -18.080 -24.437  0.00  0.00    +0.115 C 
BRANCH  10  12
ATOM     11  O   UNL     1      31.673 -17.867 -25.458  0.00  0.00    -0.288 OA
ATOM     12  C   UNL     1      32.396 -18.488 -24.686  0.00  0.00    +0.213 C 
ENDBRANCH  10  12
ENDBRANCH   9  10
BRANCH   9  13
ATOM     13  C   UNL     1      33.642 -15.662 -24.023  0.00  0.00    +0.245 C 
BRANCH  13  14
ATOM     14  O   UNL     1      34.319 -14.686 -23.233  0.00  0.00    -0.469 OA
BRANCH  14  17
ATOM     15  C   UNL     1      32.460 -11.591 -22.560  0.00  0.00    +0.003 C 
ATOM     16  C   UNL     1      31.964 -11.865 -21.264  0.00  0.00    +0.000 C 
ATOM     17  C   UNL     1      33.549 -13.765 -22.591  0.00  0.00    +0.139 C 
ATOM     18  C   UNL     1      33.252 -12.552 -23.210  0.00  0.00    +0.037 C 
ATOM     19  C   UNL     1      32.273 -13.093 -20.655  0.00  0.00    +0.003 C 
ATOM     20  C   UNL     1      33.061 -14.036 -21.316  0.00  0.00    +0.037 C 
ATOM     21  C   UNL     1      32.151 -10.364 -23.168  0.00  0.00    +0.000 C 
ATOM     22  C   UNL     1      31.173 -10.904 -20.613  0.00  0.00    +0.000 C 
ATOM     23  C   UNL     1      31.363  -9.420 -22.508  0.00  0.00    +0.000 C 
ATOM     24  C   UNL     1      30.875  -9.690 -21.233  0.00  0.00    +0.000 C 
ENDBRANCH  14  17
ENDBRANCH  13  14
ENDBRANCH   9  13
ENDBRANCH   3   7
BRANCH   4  25
ATOM     25  O   UNL     1      35.572 -21.278 -18.965  0.00  0.00    -0.506 OA
ATOM     26  H   UNL     1      34.845 -21.585 -18.460  0.00  0.00    +0.292 HD
ENDBRANCH   4  25
BRANCH   5  27
ATOM     27  O   UNL     1      37.489 -17.877 -21.681  0.00  0.00    -0.504 OA
ATOM     28  H   UNL     1      37.612 -16.967 -21.497  0.00  0.00    +0.292 HD
ENDBRANCH   5  27
BRANCH   1  29
ATOM     29  C   UNL     1      32.920 -20.576 -19.758  0.00  0.00    +0.018 C 
BRANCH  29  30
ATOM     30  CA  UNL     1      33.243 -21.786 -18.855  0.00  0.00    +0.040 C 
BRANCH  30  31
ATOM     31  N   UNL     1      33.264 -23.017 -19.641  0.00  0.00    +0.389 N 
ATOM     32  H1  UNL     1      32.829 -23.769 -19.106  0.00  0.00    -0.088 HD
ATOM     33  H2  UNL     1      34.228 -23.267 -19.858  0.00  0.00    -0.088 HD
ATOM     34  H3  UNL     1      32.745 -22.874 -20.508  0.00  0.00    -0.088 HD
ENDBRANCH  30  31
BRANCH  30  36
ATOM     35  OXT UNL     1      31.042 -21.572 -17.833  0.00  0.00    -0.253 OA
ATOM     36  C   UNL     1      32.195 -21.979 -17.772  0.00  0.00    +0.293 C 
BRANCH  36  37
ATOM     37  O   UNL     1      32.666 -22.698 -16.719  0.00  0.00    -0.482 OA
ATOM     38  H   UNL     1      33.499 -22.488 -16.345  0.00  0.00    +0.295 HD
ENDBRANCH  36  37
ENDBRANCH  30  36
ENDBRANCH  29  30
ENDBRANCH   1  29
TORSDOF 13
ENDMDL
MODEL 7
REMARK VINA RESULT:     -10.7      2.703      5.854
REMARK  Name = 17754104
REMARK  13 active torsions:
REMARK  status: ('A' for Active; 'I' for Inactive)
REMARK    1  A    between atoms: C_1  and  C_29
REMARK    2  A    between atoms: C_3  and  N_11
REMARK    3  A    between atoms: C_4  and  O_7
REMARK    4  A    between atoms: C_5  and  O_9
REMARK    5  A    between atoms: C_13  and  C_14
REMARK    6  A    between atoms: C_13  and  C_17
REMARK    7  A    between atoms: C_14  and  C_16
REMARK    8  A    between atoms: C_17  and  O_18
REMARK    9  A    between atoms: O_18  and  C_21
REMARK   10  A    between atoms: C_29  and  CA_30
REMARK   11  A    between atoms: CA_30  and  N_31
REMARK   12  A    between atoms: CA_30  and  C_36
REMARK   13  A    between atoms: C_36  and  O_37
REMARK                            x       y       z     vdW  Elec       q    Type
REMARK                         _______ _______ _______ _____ _____    ______ ____
ROOT
ATOM      1  C   UNL     1      34.057 -23.746 -14.815  0.00  0.00    +0.012 C 
ATOM      2  C   UNL     1      34.449 -22.922 -15.870  0.00  0.00    +0.019 C 
ATOM      3  C   UNL     1      33.489 -22.374 -16.720  0.00  0.00    +0.090 C 
ATOM      4  C   UNL     1      32.705 -24.021 -14.610  0.00  0.00    +0.133 C 
ATOM      5  C   UNL     1      32.137 -22.650 -16.516  0.00  0.00    +0.152 C 
ATOM      6  C   UNL     1      31.746 -23.474 -15.461  0.00  0.00    +0.074 C 
ENDROOT
BRANCH   3   7
ATOM      7  N   UNL     1      33.895 -21.551 -17.773  0.00  0.00    -0.354 N 
ATOM      8  H   UNL     1      33.192 -20.996 -18.181  0.00  0.00    +0.166 HD
ATOM      9  C   UNL     1      35.148 -21.418 -18.310  0.00  0.00    +0.063 C 
BRANCH   9  10
ATOM     10  C   UNL     1      36.317 -21.575 -17.662  0.00  0.00    +0.115 C 
BRANCH  10  12
ATOM     11  O   UNL     1      37.213 -19.436 -17.195  0.00  0.00    -0.288 OA
ATOM     12  C   UNL     1      36.909 -20.549 -16.777  0.00  0.00    +0.213 C 
ENDBRANCH  10  12
ENDBRANCH   9  10
BRANCH   9  13
ATOM     13  C   UNL     1      35.176 -21.035 -19.772  0.00  0.00    +0.245 C 
BRANCH  13  14
ATOM     14  O   UNL     1      35.552 -19.664 -19.896  0.00  0.00    -0.469 OA
BRANCH  14  17
ATOM     15  C   UNL     1      34.603 -16.897 -22.116  0.00  0.00    +0.003 C 
ATOM     16  C   UNL     1      34.186 -17.617 -23.260  0.00  0.00    +0.000 C 
ATOM     17  C   UNL     1      35.107 -18.996 -20.994  0.00  0.00    +0.139 C 
ATOM     18  C   UNL     1      35.061 -17.603 -20.991  0.00  0.00    +0.037 C 
ATOM     19  C   UNL     1      34.239 -19.021 -23.247  0.00  0.00    +0.003 C 
ATOM     20  C   UNL     1      34.697 -19.704 -22.121  0.00  0.00    +0.037 C 
ATOM     21  C   UNL     1      34.550 -15.494 -22.129  0.00  0.00    +0.000 C 
ATOM     22  C   UNL     1      33.727 -16.912 -24.386  0.00  0.00    +0.000 C 
ATOM     23  C   UNL     1      34.092 -14.810 -23.256  0.00  0.00    +0.000 C 
ATOM     24  C   UNL     1      33.681 -15.518 -24.382  0.00  0.00    +0.000 C 
ENDBRANCH  14  17
ENDBRANCH  13  14
ENDBRANCH   9  13
ENDBRANCH   3   7
BRANCH   4  25
ATOM     25  O   UNL     1      32.305 -24.823 -13.583  0.00  0.00    -0.506 OA
ATOM     26  H   UNL     1      32.646 -25.693 -13.507  0.00  0.00    +0.292 HD
ENDBRANCH   4  25
BRANCH   5  27
ATOM     27  O   UNL     1      31.184 -22.124 -17.336  0.00  0.00    -0.504 OA
ATOM     28  H   UNL     1      30.354 -22.549 -17.423  0.00  0.00    +0.292 HD
ENDBRANCH   5  27
BRANCH   1  29
ATOM     29  C   UNL     1      35.098 -24.326 -13.915  0.00  0.00    +0.018 C 
BRANCH  29  30
ATOM     30  CA  UNL     1      36.200 -25.102 -14.667  0.00  0.00    +0.040 C 
BRANCH  30  31
ATOM     31  N   UNL     1      35.894 -26.530 -14.688  0.00  0.00    +0.389 N 
ATOM     32  H1  UNL     1      35.386 -26.756 -15.543  0.00  0.00    -0.088 HD
ATOM     33  H2  UNL     1      35.321 -26.767 -13.878  0.00  0.00    -0.088 HD
ATOM     34  H3  UNL     1      36.763 -27.064 -14.658  0.00  0.00    -0.088 HD
ENDBRANCH  30  31
BRANCH  30  36
ATOM     35  OXT UNL     1      38.289 -23.984 -14.099  0.00  0.00    -0.253 OA
ATOM     36  C   UNL     1      37.554 -24.957 -13.992  0.00  0.00    +0.293 C 
BRANCH  36  37
ATOM     37  O   UNL     1      37.859 -26.027 -13.212  0.00  0.00    -0.482 OA
ATOM     38  H   UNL     1      37.610 -26.889 -13.481  0.00  0.00    +0.295 HD
ENDBRANCH  36  37
ENDBRANCH  30  36
ENDBRANCH  29  30
ENDBRANCH   1  29
TORSDOF 13
ENDMDL
MODEL 8
REMARK VINA RESULT:     -10.7      8.304     12.421
REMARK  Name = 17754104
REMARK  13 active torsions:
REMARK  status: ('A' for Active; 'I' for Inactive)
REMARK    1  A    between atoms: C_1  and  C_29
REMARK    2  A    between atoms: C_3  and  N_11
REMARK    3  A    between atoms: C_4  and  O_7
REMARK    4  A    between atoms: C_5  and  O_9
REMARK    5  A    between atoms: C_13  and  C_14
REMARK    6  A    between atoms: C_13  and  C_17
REMARK    7  A    between atoms: C_14  and  C_16
REMARK    8  A    between atoms: C_17  and  O_18
REMARK    9  A    between atoms: O_18  and  C_21
REMARK   10  A    between atoms: C_29  and  CA_30
REMARK   11  A    between atoms: CA_30  and  N_31
REMARK   12  A    between atoms: CA_30  and  C_36
REMARK   13  A    between atoms: C_36  and  O_37
REMARK                            x       y       z     vdW  Elec       q    Type
REMARK                         _______ _______ _______ _____ _____    ______ ____
ROOT
ATOM      1  C   UNL     1      32.187 -10.763 -22.577  0.00  0.00    +0.012 C 
ATOM      2  C   UNL     1      32.881 -11.959 -22.761  0.00  0.00    +0.019 C 
ATOM      3  C   UNL     1      32.711 -13.009 -21.858  0.00  0.00    +0.090 C 
ATOM      4  C   UNL     1      31.322 -10.617 -21.493  0.00  0.00    +0.133 C 
ATOM      5  C   UNL     1      31.845 -12.863 -20.774  0.00  0.00    +0.152 C 
ATOM      6  C   UNL     1      31.152 -11.667 -20.591  0.00  0.00    +0.074 C 
ENDROOT
BRANCH   3   7
ATOM      7  N   UNL     1      33.412 -14.201 -22.054  0.00  0.00    -0.354 N 
ATOM      8  H   UNL     1      33.759 -14.634 -21.240  0.00  0.00    +0.166 HD
ATOM      9  C   UNL     1      33.678 -14.844 -23.233  0.00  0.00    +0.063 C 
BRANCH   9  10
ATOM     10  C   UNL     1      32.917 -14.828 -24.342  0.00  0.00    +0.115 C 
BRANCH  10  12
ATOM     11  O   UNL     1      32.352 -13.263 -26.024  0.00  0.00    -0.288 OA
ATOM     12  C   UNL     1      33.207 -13.987 -25.524  0.00  0.00    +0.213 C 
ENDBRANCH  10  12
ENDBRANCH   9  10
BRANCH   9  13
ATOM     13  C   UNL     1      34.951 -15.659 -23.239  0.00  0.00    +0.245 C 
BRANCH  13  14
ATOM     14  O   UNL     1      34.634 -17.032 -23.462  0.00  0.00    -0.469 OA
BRANCH  14  17
ATOM     15  C   UNL     1      34.131 -19.570 -20.855  0.00  0.00    +0.003 C 
ATOM     16  C   UNL     1      35.449 -19.694 -20.358  0.00  0.00    +0.000 C 
ATOM     17  C   UNL     1      34.900 -17.902 -22.449  0.00  0.00    +0.139 C 
ATOM     18  C   UNL     1      33.873 -18.669 -21.902  0.00  0.00    +0.037 C 
ATOM     19  C   UNL     1      36.472 -18.913 -20.921  0.00  0.00    +0.003 C 
ATOM     20  C   UNL     1      36.198 -18.023 -21.960  0.00  0.00    +0.037 C 
ATOM     21  C   UNL     1      33.108 -20.351 -20.293  0.00  0.00    +0.000 C 
ATOM     22  C   UNL     1      35.708 -20.595 -19.312  0.00  0.00    +0.000 C 
ATOM     23  C   UNL     1      33.382 -21.241 -19.254  0.00  0.00    +0.000 C 
ATOM     24  C   UNL     1      34.679 -21.363 -18.765  0.00  0.00    +0.000 C 
ENDBRANCH  14  17
ENDBRANCH  13  14
ENDBRANCH   9  13
ENDBRANCH   3   7
BRANCH   4  25
ATOM     25  O   UNL     1      30.635  -9.457 -21.301  0.00  0.00    -0.506 OA
ATOM     26  H   UNL     1      30.370  -8.941 -22.037  0.00  0.00    +0.292 HD
ENDBRANCH   4  25
BRANCH   5  27
ATOM     27  O   UNL     1      31.665 -13.878 -19.882  0.00  0.00    -0.504 OA
ATOM     28  H   UNL     1      32.314 -14.549 -19.798  0.00  0.00    +0.292 HD
ENDBRANCH   5  27
BRANCH   1  29
ATOM     29  C   UNL     1      32.383  -9.648 -23.551  0.00  0.00    +0.018 C 
BRANCH  29  30
ATOM     30  CA  UNL     1      33.005  -8.382 -22.922  0.00  0.00    +0.040 C 
BRANCH  30  31
ATOM     31  N   UNL     1      32.021  -7.304 -22.869  0.00  0.00    +0.389 N 
ATOM     32  H1  UNL     1      32.354  -6.570 -22.244  0.00  0.00    -0.088 HD
ATOM     33  H2  UNL     1      31.133  -7.669 -22.524  0.00  0.00    -0.088 HD
ATOM     34  H3  UNL     1      31.890  -6.918 -23.805  0.00  0.00    -0.088 HD
ENDBRANCH  30  31
BRANCH  30  36
ATOM     35  OXT UNL     1      34.207  -6.776 -24.304  0.00  0.00    -0.253 OA
ATOM     36  C   UNL     1      34.176  -7.862 -23.739  0.00  0.00    +0.293 C 
BRANCH  36  37
ATOM     37  O   UNL     1      35.223  -8.729 -23.751  0.00  0.00    -0.482 OA
ATOM     38  H   UNL     1      35.670  -8.911 -24.553  0.00  0.00    +0.295 HD
ENDBRANCH  36  37
ENDBRANCH  30  36
ENDBRANCH  29  30
ENDBRANCH   1  29
TORSDOF 13
ENDMDL
MODEL 9
REMARK VINA RESULT:     -10.5      4.840      8.780
REMARK  Name = 17754104
REMARK  13 active torsions:
REMARK  status: ('A' for Active; 'I' for Inactive)
REMARK    1  A    between atoms: C_1  and  C_29
REMARK    2  A    between atoms: C_3  and  N_11
REMARK    3  A    between atoms: C_4  and  O_7
REMARK    4  A    between atoms: C_5  and  O_9
REMARK    5  A    between atoms: C_13  and  C_14
REMARK    6  A    between atoms: C_13  and  C_17
REMARK    7  A    between atoms: C_14  and  C_16
REMARK    8  A    between atoms: C_17  and  O_18
REMARK    9  A    between atoms: O_18  and  C_21
REMARK   10  A    between atoms: C_29  and  CA_30
REMARK   11  A    between atoms: CA_30  and  N_31
REMARK   12  A    between atoms: CA_30  and  C_36
REMARK   13  A    between atoms: C_36  and  O_37
REMARK                            x       y       z     vdW  Elec       q    Type
REMARK                         _______ _______ _______ _____ _____    ______ ____
ROOT
ATOM      1  C   UNL     1      35.397 -21.181 -18.708  0.00  0.00    +0.012 C 
ATOM      2  C   UNL     1      35.714 -20.071 -19.492  0.00  0.00    +0.019 C 
ATOM      3  C   UNL     1      34.739 -19.492 -20.305  0.00  0.00    +0.090 C 
ATOM      4  C   UNL     1      34.107 -21.711 -18.737  0.00  0.00    +0.133 C 
ATOM      5  C   UNL     1      33.449 -20.022 -20.334  0.00  0.00    +0.152 C 
ATOM      6  C   UNL     1      33.134 -21.131 -19.551  0.00  0.00    +0.074 C 
ENDROOT
BRANCH   3   7
ATOM      7  N   UNL     1      35.070 -18.381 -21.085  0.00  0.00    -0.354 N 
ATOM      8  H   UNL     1      35.721 -17.757 -20.691  0.00  0.00    +0.166 HD
ATOM      9  C   UNL     1      34.601 -18.049 -22.328  0.00  0.00    +0.063 C 
BRANCH   9  10
ATOM     10  C   UNL     1      34.198 -18.903 -23.285  0.00  0.00    +0.115 C 
BRANCH  10  12
ATOM     11  O   UNL     1      32.336 -18.539 -24.699  0.00  0.00    -0.288 OA
ATOM     12  C   UNL     1      33.552 -18.477 -24.546  0.00  0.00    +0.213 C 
ENDBRANCH  10  12
ENDBRANCH   9  10
BRANCH   9  13
ATOM     13  C   UNL     1      34.571 -16.566 -22.620  0.00  0.00    +0.245 C 
BRANCH  13  14
ATOM     14  O   UNL     1      34.572 -15.840 -21.392  0.00  0.00    -0.469 OA
BRANCH  14  17
ATOM     15  C   UNL     1      33.068 -12.608 -22.274  0.00  0.00    +0.003 C 
ATOM     16  C   UNL     1      32.173 -12.437 -21.192  0.00  0.00    +0.000 C 
ATOM     17  C   UNL     1      33.788 -14.730 -21.327  0.00  0.00    +0.139 C 
ATOM     18  C   UNL     1      33.869 -13.761 -22.327  0.00  0.00    +0.037 C 
ATOM     19  C   UNL     1      32.105 -13.422 -20.193  0.00  0.00    +0.003 C 
ATOM     20  C   UNL     1      32.908 -14.561 -20.262  0.00  0.00    +0.037 C 
ATOM     21  C   UNL     1      33.136 -11.622 -23.272  0.00  0.00    +0.000 C 
ATOM     22  C   UNL     1      31.372 -11.283 -21.138  0.00  0.00    +0.000 C 
ATOM     23  C   UNL     1      32.334 -10.483 -23.204  0.00  0.00    +0.000 C 
ATOM     24  C   UNL     1      31.453 -10.315 -22.139  0.00  0.00    +0.000 C 
ENDBRANCH  14  17
ENDBRANCH  13  14
ENDBRANCH   9  13
ENDBRANCH   3   7
BRANCH   4  25
ATOM     25  O   UNL     1      33.781 -22.793 -17.977  0.00  0.00    -0.506 OA
ATOM     26  H   UNL     1      33.230 -22.691 -17.226  0.00  0.00    +0.292 HD
ENDBRANCH   4  25
BRANCH   5  27
ATOM     27  O   UNL     1      32.484 -19.469 -21.122  0.00  0.00    -0.504 OA
ATOM     28  H   UNL     1      31.580 -19.579 -20.902  0.00  0.00    +0.292 HD
ENDBRANCH   5  27
BRANCH   1  29
ATOM     29  C   UNL     1      36.452 -21.791 -17.845  0.00  0.00    +0.018 C 
BRANCH  29  30
ATOM     30  CA  UNL     1      36.424 -21.285 -16.387  0.00  0.00    +0.040 C 
BRANCH  30  31
ATOM     31  N   UNL     1      37.519 -20.345 -16.153  0.00  0.00    +0.389 N 
ATOM     32  H1  UNL     1      38.131 -20.327 -16.969  0.00  0.00    -0.088 HD
ATOM     33  H2  UNL     1      38.051 -20.640 -15.334  0.00  0.00    -0.088 HD
ATOM     34  H3  UNL     1      37.137 -19.413 -15.995  0.00  0.00    -0.088 HD
ENDBRANCH  30  31
BRANCH  30  36
ATOM     35  OXT UNL     1      37.269 -22.349 -14.365  0.00  0.00    -0.253 OA
ATOM     36  C   UNL     1      36.604 -22.418 -15.392  0.00  0.00    +0.293 C 
BRANCH  36  37
ATOM     37  O   UNL     1      35.910 -23.532 -15.745  0.00  0.00    -0.482 OA
ATOM     38  H   UNL     1      35.885 -24.270 -15.169  0.00  0.00    +0.295 HD
ENDBRANCH  36  37
ENDBRANCH  30  36
ENDBRANCH  29  30
ENDBRANCH   1  29
TORSDOF 13
ENDMDL
