MODEL 1
REMARK VINA RESULT:     -12.8      0.000      0.000
REMARK  Name = 71166
REMARK  4 active torsions:
REMARK  status: ('A' for Active; 'I' for Inactive)
REMARK    1  A    between atoms: N_2  and  C_10
REMARK    2  A    between atoms: N_3  and  C_24
REMARK    3  A    between atoms: C_12  and  N_18
REMARK    4  A    between atoms: C_26  and  N_32
REMARK                            x       y       z     vdW  Elec       q    Type
REMARK                         _______ _______ _______ _____ _____    ______ ____
ROOT
ATOM      1  O   UNL     1      33.078 -19.239 -20.111  0.00  0.00    -0.252 OA
ATOM      2  N   UNL     1      34.856 -20.755 -19.938  0.00  0.00    -0.268 N 
ATOM      3  N   UNL     1      34.761 -19.306 -21.734  0.00  0.00    -0.268 N 
ATOM      4  C   UNL     1      34.120 -19.713 -20.552  0.00  0.00    +0.308 C 
ATOM      5  H   UNL     1      35.676 -21.033 -20.406  0.00  0.00    +0.156 HD
ATOM      6  H   UNL     1      35.593 -19.781 -21.959  0.00  0.00    +0.156 HD
ENDROOT
BRANCH   2  10
ATOM      7  N   UNL     1      33.698 -23.500 -15.239  0.00  0.00    -0.410 NA
ATOM      8  C   UNL     1      35.248 -22.204 -16.552  0.00  0.00    +0.111 C 
ATOM      9  C   UNL     1      33.998 -22.830 -16.368  0.00  0.00    +0.118 C 
ATOM     10  C   UNL     1      34.574 -21.440 -18.755  0.00  0.00    +0.048 C 
ATOM     11  C   UNL     1      35.527 -21.513 -17.744  0.00  0.00    +0.001 C 
ATOM     12  C   UNL     1      36.189 -22.293 -15.518  0.00  0.00    +0.031 C 
ATOM     13  C   UNL     1      33.062 -22.741 -17.396  0.00  0.00    +0.029 C 
ATOM     14  C   UNL     1      33.340 -22.055 -18.581  0.00  0.00    +0.017 C 
ATOM     15  C   UNL     1      34.634 -23.563 -14.265  0.00  0.00    +0.110 C 
ATOM     16  C   UNL     1      35.883 -22.982 -14.353  0.00  0.00    +0.038 C 
ATOM     17  C   UNL     1      34.261 -24.315 -13.031  0.00  0.00    +0.066 C 
BRANCH  12  18
ATOM     18  N   UNL     1      37.467 -21.694 -15.620  0.00  0.00    -0.360 N 
ATOM     19  H   UNL     1      38.091 -21.733 -14.859  0.00  0.00    +0.142 HD
ATOM     20  H   UNL     1      37.733 -21.238 -16.451  0.00  0.00    +0.142 HD
ENDBRANCH  12  18
ENDBRANCH   2  10
BRANCH   3  24
ATOM     21  N   UNL     1      33.159 -15.375 -25.330  0.00  0.00    -0.410 NA
ATOM     22  C   UNL     1      33.918 -15.978 -23.124  0.00  0.00    +0.111 C 
ATOM     23  C   UNL     1      33.550 -16.311 -24.445  0.00  0.00    +0.118 C 
ATOM     24  C   UNL     1      34.357 -18.298 -22.641  0.00  0.00    +0.048 C 
ATOM     25  C   UNL     1      34.322 -16.981 -22.226  0.00  0.00    +0.001 C 
ATOM     26  C   UNL     1      33.868 -14.630 -22.744  0.00  0.00    +0.031 C 
ATOM     27  C   UNL     1      33.601 -17.650 -24.821  0.00  0.00    +0.029 C 
ATOM     28  C   UNL     1      34.001 -18.648 -23.928  0.00  0.00    +0.017 C 
ATOM     29  C   UNL     1      33.124 -14.085 -24.923  0.00  0.00    +0.110 C 
ATOM     30  C   UNL     1      33.464 -13.664 -23.654  0.00  0.00    +0.038 C 
ATOM     31  C   UNL     1      32.685 -13.081 -25.936  0.00  0.00    +0.066 C 
BRANCH  26  32
ATOM     32  N   UNL     1      34.220 -14.210 -21.440  0.00  0.00    -0.360 N 
ATOM     33  H   UNL     1      35.037 -13.679 -21.296  0.00  0.00    +0.142 HD
ATOM     34  H   UNL     1      33.648 -14.449 -20.674  0.00  0.00    +0.142 HD
ENDBRANCH  26  32
ENDBRANCH   3  24
TORSDOF 4
ENDMDL
MODEL 2
REMARK VINA RESULT:     -12.8      0.023     10.181
REMARK  Name = 71166
REMARK  4 active torsions:
REMARK  status: ('A' for Active; 'I' for Inactive)
REMARK    1  A    between atoms: N_2  and  C_10
REMARK    2  A    between atoms: N_3  and  C_24
REMARK    3  A    between atoms: C_12  and  N_18
REMARK    4  A    between atoms: C_26  and  N_32
REMARK                            x       y       z     vdW  Elec       q    Type
REMARK                         _______ _______ _______ _____ _____    ______ ____
ROOT
ATOM      1  O   UNL     1      33.063 -19.253 -20.105  0.00  0.00    -0.252 OA
ATOM      2  N   UNL     1      34.753 -19.301 -21.727  0.00  0.00    -0.268 N 
ATOM      3  N   UNL     1      34.851 -20.751 -19.932  0.00  0.00    -0.268 N 
ATOM      4  C   UNL     1      34.111 -19.722 -20.537  0.00  0.00    +0.308 C 
ATOM      5  H   UNL     1      35.589 -19.769 -21.951  0.00  0.00    +0.156 HD
ATOM      6  H   UNL     1      35.674 -21.023 -20.399  0.00  0.00    +0.156 HD
ENDROOT
BRANCH   2  10
ATOM      7  N   UNL     1      33.164 -15.377 -25.338  0.00  0.00    -0.410 NA
ATOM      8  C   UNL     1      33.911 -15.977 -23.127  0.00  0.00    +0.111 C 
ATOM      9  C   UNL     1      33.552 -16.312 -24.449  0.00  0.00    +0.118 C 
ATOM     10  C   UNL     1      34.357 -18.310 -22.626  0.00  0.00    +0.048 C 
ATOM     11  C   UNL     1      34.312 -16.978 -22.224  0.00  0.00    +0.001 C 
ATOM     12  C   UNL     1      33.855 -14.629 -22.749  0.00  0.00    +0.031 C 
ATOM     13  C   UNL     1      33.606 -17.652 -24.824  0.00  0.00    +0.029 C 
ATOM     14  C   UNL     1      34.004 -18.647 -23.927  0.00  0.00    +0.017 C 
ATOM     15  C   UNL     1      33.123 -14.088 -24.933  0.00  0.00    +0.110 C 
ATOM     16  C   UNL     1      33.456 -13.664 -23.662  0.00  0.00    +0.038 C 
ATOM     17  C   UNL     1      32.687 -13.085 -25.948  0.00  0.00    +0.066 C 
BRANCH  12  18
ATOM     18  N   UNL     1      34.199 -14.206 -21.442  0.00  0.00    -0.360 N 
ATOM     19  H   UNL     1      35.138 -14.015 -21.218  0.00  0.00    +0.142 HD
ATOM     20  H   UNL     1      33.499 -14.103 -20.758  0.00  0.00    +0.142 HD
ENDBRANCH  12  18
ENDBRANCH   2  10
BRANCH   3  24
ATOM     21  N   UNL     1      33.672 -23.496 -15.239  0.00  0.00    -0.410 NA
ATOM     22  C   UNL     1      35.224 -22.193 -16.542  0.00  0.00    +0.111 C 
ATOM     23  C   UNL     1      33.976 -22.826 -16.366  0.00  0.00    +0.118 C 
ATOM     24  C   UNL     1      34.560 -21.445 -18.734  0.00  0.00    +0.048 C 
ATOM     25  C   UNL     1      35.509 -21.502 -17.732  0.00  0.00    +0.001 C 
ATOM     26  C   UNL     1      36.158 -22.275 -15.500  0.00  0.00    +0.031 C 
ATOM     27  C   UNL     1      33.049 -22.744 -17.402  0.00  0.00    +0.029 C 
ATOM     28  C   UNL     1      33.332 -22.058 -18.586  0.00  0.00    +0.017 C 
ATOM     29  C   UNL     1      34.601 -23.553 -14.258  0.00  0.00    +0.110 C 
ATOM     30  C   UNL     1      35.847 -22.965 -14.337  0.00  0.00    +0.038 C 
ATOM     31  C   UNL     1      34.222 -24.305 -13.026  0.00  0.00    +0.066 C 
BRANCH  26  32
ATOM     32  N   UNL     1      37.433 -21.668 -15.593  0.00  0.00    -0.360 N 
ATOM     33  H   UNL     1      37.531 -20.793 -16.033  0.00  0.00    +0.142 HD
ATOM     34  H   UNL     1      38.223 -22.122 -15.217  0.00  0.00    +0.142 HD
ENDBRANCH  26  32
ENDBRANCH   3  24
TORSDOF 4
ENDMDL
MODEL 3
REMARK VINA RESULT:     -12.5      0.932     10.105
REMARK  Name = 71166
REMARK  4 active torsions:
REMARK  status: ('A' for Active; 'I' for Inactive)
REMARK    1  A    between atoms: N_2  and  C_10
REMARK    2  A    between atoms: N_3  and  C_24
REMARK    3  A    between atoms: C_12  and  N_18
REMARK    4  A    between atoms: C_26  and  N_32
REMARK                            x       y       z     vdW  Elec       q    Type
REMARK                         _______ _______ _______ _____ _____    ______ ____
ROOT
ATOM      1  O   UNL     1      33.581 -19.093 -19.890  0.00  0.00    -0.252 OA
ATOM      2  N   UNL     1      35.060 -19.288 -21.697  0.00  0.00    -0.268 N 
ATOM      3  N   UNL     1      35.322 -20.653 -19.852  0.00  0.00    -0.268 N 
ATOM      4  C   UNL     1      34.552 -19.625 -20.418  0.00  0.00    +0.308 C 
ATOM      5  H   UNL     1      35.846 -19.801 -21.993  0.00  0.00    +0.156 HD
ATOM      6  H   UNL     1      36.074 -20.981 -20.398  0.00  0.00    +0.156 HD
ENDROOT
BRANCH   2  10
ATOM      7  N   UNL     1      33.190 -15.480 -25.296  0.00  0.00    -0.410 NA
ATOM      8  C   UNL     1      34.028 -16.021 -23.103  0.00  0.00    +0.111 C 
ATOM      9  C   UNL     1      33.646 -16.386 -24.410  0.00  0.00    +0.118 C 
ATOM     10  C   UNL     1      34.593 -18.326 -22.593  0.00  0.00    +0.048 C 
ATOM     11  C   UNL     1      34.499 -16.993 -22.203  0.00  0.00    +0.001 C 
ATOM     12  C   UNL     1      33.922 -14.673 -22.736  0.00  0.00    +0.031 C 
ATOM     13  C   UNL     1      33.750 -17.726 -24.774  0.00  0.00    +0.029 C 
ATOM     14  C   UNL     1      34.219 -18.693 -23.880  0.00  0.00    +0.017 C 
ATOM     15  C   UNL     1      33.103 -14.189 -24.903  0.00  0.00    +0.110 C 
ATOM     16  C   UNL     1      33.453 -13.736 -23.647  0.00  0.00    +0.038 C 
ATOM     17  C   UNL     1      32.593 -13.218 -25.915  0.00  0.00    +0.066 C 
BRANCH  12  18
ATOM     18  N   UNL     1      34.284 -14.221 -21.445  0.00  0.00    -0.360 N 
ATOM     19  H   UNL     1      34.956 -14.713 -20.921  0.00  0.00    +0.142 HD
ATOM     20  H   UNL     1      33.863 -13.414 -21.070  0.00  0.00    +0.142 HD
ENDBRANCH  12  18
ENDBRANCH   2  10
BRANCH   3  24
ATOM     21  N   UNL     1      34.699 -23.092 -14.891  0.00  0.00    -0.410 NA
ATOM     22  C   UNL     1      33.723 -22.304 -16.949  0.00  0.00    +0.111 C 
ATOM     23  C   UNL     1      34.829 -22.505 -16.096  0.00  0.00    +0.118 C 
ATOM     24  C   UNL     1      35.154 -21.276 -18.593  0.00  0.00    +0.048 C 
ATOM     25  C   UNL     1      33.895 -21.687 -18.200  0.00  0.00    +0.001 C 
ATOM     26  C   UNL     1      32.464 -22.736 -16.510  0.00  0.00    +0.031 C 
ATOM     27  C   UNL     1      36.079 -22.076 -16.532  0.00  0.00    +0.029 C 
ATOM     28  C   UNL     1      36.250 -21.462 -17.776  0.00  0.00    +0.017 C 
ATOM     29  C   UNL     1      33.466 -23.494 -14.505  0.00  0.00    +0.110 C 
ATOM     30  C   UNL     1      32.327 -23.340 -15.269  0.00  0.00    +0.038 C 
ATOM     31  C   UNL     1      33.368 -24.140 -13.164  0.00  0.00    +0.066 C 
BRANCH  26  32
ATOM     32  N   UNL     1      31.303 -22.573 -17.302  0.00  0.00    -0.360 N 
ATOM     33  H   UNL     1      30.604 -23.266 -17.300  0.00  0.00    +0.142 HD
ATOM     34  H   UNL     1      31.194 -21.766 -17.857  0.00  0.00    +0.142 HD
ENDBRANCH  26  32
ENDBRANCH   3  24
TORSDOF 4
ENDMDL
MODEL 4
REMARK VINA RESULT:     -12.3      1.030      1.983
REMARK  Name = 71166
REMARK  4 active torsions:
REMARK  status: ('A' for Active; 'I' for Inactive)
REMARK    1  A    between atoms: N_2  and  C_10
REMARK    2  A    between atoms: N_3  and  C_24
REMARK    3  A    between atoms: C_12  and  N_18
REMARK    4  A    between atoms: C_26  and  N_32
REMARK                            x       y       z     vdW  Elec       q    Type
REMARK                         _______ _______ _______ _____ _____    ______ ____
ROOT
ATOM      1  O   UNL     1      33.390 -19.364 -19.897  0.00  0.00    -0.252 OA
ATOM      2  N   UNL     1      35.360 -20.583 -19.549  0.00  0.00    -0.268 N 
ATOM      3  N   UNL     1      35.179 -19.208 -21.396  0.00  0.00    -0.268 N 
ATOM      4  C   UNL     1      34.522 -19.681 -20.249  0.00  0.00    +0.308 C 
ATOM      5  H   UNL     1      36.245 -20.743 -19.949  0.00  0.00    +0.156 HD
ATOM      6  H   UNL     1      36.088 -19.555 -21.547  0.00  0.00    +0.156 HD
ENDROOT
BRANCH   2  10
ATOM      7  N   UNL     1      34.354 -23.339 -14.821  0.00  0.00    -0.410 NA
ATOM      8  C   UNL     1      33.529 -22.349 -16.857  0.00  0.00    +0.111 C 
ATOM      9  C   UNL     1      34.576 -22.673 -15.971  0.00  0.00    +0.118 C 
ATOM     10  C   UNL     1      35.098 -21.276 -18.366  0.00  0.00    +0.048 C 
ATOM     11  C   UNL     1      33.797 -21.653 -18.049  0.00  0.00    +0.001 C 
ATOM     12  C   UNL     1      32.228 -22.740 -16.513  0.00  0.00    +0.031 C 
ATOM     13  C   UNL     1      35.869 -22.283 -16.313  0.00  0.00    +0.029 C 
ATOM     14  C   UNL     1      36.136 -21.592 -17.497  0.00  0.00    +0.017 C 
ATOM     15  C   UNL     1      33.084 -23.698 -14.526  0.00  0.00    +0.110 C 
ATOM     16  C   UNL     1      31.995 -23.426 -15.330  0.00  0.00    +0.038 C 
ATOM     17  C   UNL     1      32.881 -24.433 -13.243  0.00  0.00    +0.066 C 
BRANCH  12  18
ATOM     18  N   UNL     1      31.119 -22.455 -17.346  0.00  0.00    -0.360 N 
ATOM     19  H   UNL     1      31.076 -21.601 -17.834  0.00  0.00    +0.142 HD
ATOM     20  H   UNL     1      30.391 -23.111 -17.436  0.00  0.00    +0.142 HD
ENDBRANCH  12  18
ENDBRANCH   2  10
BRANCH   3  24
ATOM     21  N   UNL     1      33.266 -15.656 -25.226  0.00  0.00    -0.410 NA
ATOM     22  C   UNL     1      34.077 -16.054 -22.993  0.00  0.00    +0.111 C 
ATOM     23  C   UNL     1      33.731 -16.499 -24.286  0.00  0.00    +0.118 C 
ATOM     24  C   UNL     1      34.695 -18.297 -22.364  0.00  0.00    +0.048 C 
ATOM     25  C   UNL     1      34.560 -16.961 -22.035  0.00  0.00    +0.001 C 
ATOM     26  C   UNL     1      33.925 -14.692 -22.702  0.00  0.00    +0.031 C 
ATOM     27  C   UNL     1      33.883 -17.853 -24.574  0.00  0.00    +0.029 C 
ATOM     28  C   UNL     1      34.362 -18.756 -23.622  0.00  0.00    +0.017 C 
ATOM     29  C   UNL     1      33.133 -14.349 -24.905  0.00  0.00    +0.110 C 
ATOM     30  C   UNL     1      33.445 -13.821 -23.668  0.00  0.00    +0.038 C 
ATOM     31  C   UNL     1      32.614 -13.450 -25.976  0.00  0.00    +0.066 C 
BRANCH  26  32
ATOM     32  N   UNL     1      34.249 -14.161 -21.430  0.00  0.00    -0.360 N 
ATOM     33  H   UNL     1      34.060 -13.216 -21.228  0.00  0.00    +0.142 HD
ATOM     34  H   UNL     1      34.663 -14.737 -20.747  0.00  0.00    +0.142 HD
ENDBRANCH  26  32
ENDBRANCH   3  24
TORSDOF 4
ENDMDL
MODEL 5
REMARK VINA RESULT:     -12.2      6.455     10.577
REMARK  Name = 71166
REMARK  4 active torsions:
REMARK  status: ('A' for Active; 'I' for Inactive)
REMARK    1  A    between atoms: N_2  and  C_10
REMARK    2  A    between atoms: N_3  and  C_24
REMARK    3  A    between atoms: C_12  and  N_18
REMARK    4  A    between atoms: C_26  and  N_32
REMARK                            x       y       z     vdW  Elec       q    Type
REMARK                         _______ _______ _______ _____ _____    ______ ____
ROOT
ATOM      1  O   UNL     1      33.077 -10.071 -23.167  0.00  0.00    -0.252 OA
ATOM      2  N   UNL     1      31.634 -11.454 -21.944  0.00  0.00    -0.268 N 
ATOM      3  N   UNL     1      30.947  -9.332 -22.546  0.00  0.00    -0.268 N 
ATOM      4  C   UNL     1      31.999 -10.259 -22.613  0.00  0.00    +0.308 C 
ATOM      5  H   UNL     1      30.735 -11.463 -21.546  0.00  0.00    +0.156 HD
ATOM      6  H   UNL     1      30.140  -9.628 -22.065  0.00  0.00    +0.156 HD
ENDROOT
BRANCH   2  10
ATOM      7  N   UNL     1      34.609 -16.101 -21.234  0.00  0.00    -0.410 NA
ATOM      8  C   UNL     1      33.483 -14.569 -22.714  0.00  0.00    +0.111 C 
ATOM      9  C   UNL     1      33.889 -14.980 -21.428  0.00  0.00    +0.118 C 
ATOM     10  C   UNL     1      32.381 -12.620 -21.776  0.00  0.00    +0.048 C 
ATOM     11  C   UNL     1      32.732 -13.392 -22.879  0.00  0.00    +0.001 C 
ATOM     12  C   UNL     1      33.849 -15.365 -23.807  0.00  0.00    +0.031 C 
ATOM     13  C   UNL     1      33.525 -14.188 -20.341  0.00  0.00    +0.029 C 
ATOM     14  C   UNL     1      32.778 -13.019 -20.505  0.00  0.00    +0.017 C 
ATOM     15  C   UNL     1      34.942 -16.842 -22.315  0.00  0.00    +0.110 C 
ATOM     16  C   UNL     1      34.591 -16.521 -23.612  0.00  0.00    +0.038 C 
ATOM     17  C   UNL     1      35.739 -18.077 -22.057  0.00  0.00    +0.066 C 
BRANCH  12  18
ATOM     18  N   UNL     1      33.483 -15.026 -25.132  0.00  0.00    -0.360 N 
ATOM     19  H   UNL     1      32.857 -14.285 -25.295  0.00  0.00    +0.142 HD
ATOM     20  H   UNL     1      33.855 -15.532 -25.890  0.00  0.00    +0.142 HD
ENDBRANCH  12  18
ENDBRANCH   2  10
BRANCH   3  24
ATOM     21  N   UNL     1      30.765  -4.203 -24.693  0.00  0.00    -0.410 NA
ATOM     22  C   UNL     1      30.881  -5.636 -22.760  0.00  0.00    +0.111 C 
ATOM     23  C   UNL     1      30.811  -5.436 -24.154  0.00  0.00    +0.118 C 
ATOM     24  C   UNL     1      30.903  -8.024 -23.082  0.00  0.00    +0.048 C 
ATOM     25  C   UNL     1      30.927  -6.936 -22.230  0.00  0.00    +0.001 C 
ATOM     26  C   UNL     1      30.903  -4.505 -21.931  0.00  0.00    +0.031 C 
ATOM     27  C   UNL     1      30.789  -6.559 -24.976  0.00  0.00    +0.029 C 
ATOM     28  C   UNL     1      30.834  -7.853 -24.450  0.00  0.00    +0.017 C 
ATOM     29  C   UNL     1      30.788  -3.139 -23.860  0.00  0.00    +0.110 C 
ATOM     30  C   UNL     1      30.855  -3.234 -22.484  0.00  0.00    +0.038 C 
ATOM     31  C   UNL     1      30.735  -1.792 -24.499  0.00  0.00    +0.066 C 
BRANCH  26  32
ATOM     32  N   UNL     1      30.972  -4.615 -20.522  0.00  0.00    -0.360 N 
ATOM     33  H   UNL     1      30.626  -5.421 -20.073  0.00  0.00    +0.142 HD
ATOM     34  H   UNL     1      31.366  -3.886 -19.990  0.00  0.00    +0.142 HD
ENDBRANCH  26  32
ENDBRANCH   3  24
TORSDOF 4
ENDMDL
MODEL 6
REMARK VINA RESULT:     -12.1      6.494     13.761
REMARK  Name = 71166
REMARK  4 active torsions:
REMARK  status: ('A' for Active; 'I' for Inactive)
REMARK    1  A    between atoms: N_2  and  C_10
REMARK    2  A    between atoms: N_3  and  C_24
REMARK    3  A    between atoms: C_12  and  N_18
REMARK    4  A    between atoms: C_26  and  N_32
REMARK                            x       y       z     vdW  Elec       q    Type
REMARK                         _______ _______ _______ _____ _____    ______ ____
ROOT
ATOM      1  O   UNL     1      33.011 -10.088 -23.190  0.00  0.00    -0.252 OA
ATOM      2  N   UNL     1      30.936  -9.286 -22.454  0.00  0.00    -0.268 N 
ATOM      3  N   UNL     1      31.621 -11.408 -21.850  0.00  0.00    -0.268 N 
ATOM      4  C   UNL     1      31.968 -10.249 -22.563  0.00  0.00    +0.308 C 
ATOM      5  H   UNL     1      30.156  -9.554 -21.916  0.00  0.00    +0.156 HD
ATOM      6  H   UNL     1      30.748 -11.389 -21.395  0.00  0.00    +0.156 HD
ENDROOT
BRANCH   2  10
ATOM      7  N   UNL     1      30.698  -4.198 -24.692  0.00  0.00    -0.410 NA
ATOM      8  C   UNL     1      30.762  -5.597 -22.731  0.00  0.00    +0.111 C 
ATOM      9  C   UNL     1      30.756  -5.421 -24.130  0.00  0.00    +0.118 C 
ATOM     10  C   UNL     1      30.877  -8.006 -23.006  0.00  0.00    +0.048 C 
ATOM     11  C   UNL     1      30.823  -6.889 -22.178  0.00  0.00    +0.001 C 
ATOM     12  C   UNL     1      30.705  -4.455 -21.921  0.00  0.00    +0.031 C 
ATOM     13  C   UNL     1      30.811  -6.556 -24.935  0.00  0.00    +0.029 C 
ATOM     14  C   UNL     1      30.872  -7.840 -24.386  0.00  0.00    +0.017 C 
ATOM     15  C   UNL     1      30.644  -3.121 -23.875  0.00  0.00    +0.110 C 
ATOM     16  C   UNL     1      30.645  -3.194 -22.497  0.00  0.00    +0.038 C 
ATOM     17  C   UNL     1      30.581  -1.786 -24.538  0.00  0.00    +0.066 C 
BRANCH  12  18
ATOM     18  N   UNL     1      30.706  -4.542 -20.509  0.00  0.00    -0.360 N 
ATOM     19  H   UNL     1      30.448  -5.383 -20.067  0.00  0.00    +0.142 HD
ATOM     20  H   UNL     1      30.966  -3.761 -19.968  0.00  0.00    +0.142 HD
ENDBRANCH  12  18
ENDBRANCH   2  10
BRANCH   3  24
ATOM     21  N   UNL     1      34.558 -16.093 -21.239  0.00  0.00    -0.410 NA
ATOM     22  C   UNL     1      33.448 -14.518 -22.686  0.00  0.00    +0.111 C 
ATOM     23  C   UNL     1      33.848 -14.962 -21.408  0.00  0.00    +0.118 C 
ATOM     24  C   UNL     1      32.369 -12.599 -21.705  0.00  0.00    +0.048 C 
ATOM     25  C   UNL     1      32.707 -13.332 -22.827  0.00  0.00    +0.001 C 
ATOM     26  C   UNL     1      33.812 -15.292 -23.797  0.00  0.00    +0.031 C 
ATOM     27  C   UNL     1      33.486 -14.192 -20.305  0.00  0.00    +0.029 C 
ATOM     28  C   UNL     1      32.749 -13.014 -20.444  0.00  0.00    +0.017 C 
ATOM     29  C   UNL     1      34.888 -16.811 -22.337  0.00  0.00    +0.110 C 
ATOM     30  C   UNL     1      34.543 -16.458 -23.626  0.00  0.00    +0.038 C 
ATOM     31  C   UNL     1      35.675 -18.057 -22.104  0.00  0.00    +0.066 C 
BRANCH  26  32
ATOM     32  N   UNL     1      33.452 -14.920 -25.114  0.00  0.00    -0.360 N 
ATOM     33  H   UNL     1      33.869 -14.134 -25.535  0.00  0.00    +0.142 HD
ATOM     34  H   UNL     1      32.783 -15.447 -25.609  0.00  0.00    +0.142 HD
ENDBRANCH  26  32
ENDBRANCH   3  24
TORSDOF 4
ENDMDL
MODEL 7
REMARK VINA RESULT:     -11.7      6.379     14.083
REMARK  Name = 71166
REMARK  4 active torsions:
REMARK  status: ('A' for Active; 'I' for Inactive)
REMARK    1  A    between atoms: N_2  and  C_10
REMARK    2  A    between atoms: N_3  and  C_24
REMARK    3  A    between atoms: C_12  and  N_18
REMARK    4  A    between atoms: C_26  and  N_32
REMARK                            x       y       z     vdW  Elec       q    Type
REMARK                         _______ _______ _______ _____ _____    ______ ____
ROOT
ATOM      1  O   UNL     1      33.137  -9.576 -22.933  0.00  0.00    -0.252 OA
ATOM      2  N   UNL     1      30.904  -8.921 -22.665  0.00  0.00    -0.268 N 
ATOM      3  N   UNL     1      31.527 -11.088 -22.165  0.00  0.00    -0.268 N 
ATOM      4  C   UNL     1      31.981  -9.840 -22.620  0.00  0.00    +0.308 C 
ATOM      5  H   UNL     1      30.029  -9.274 -22.383  0.00  0.00    +0.156 HD
ATOM      6  H   UNL     1      30.568 -11.148 -21.952  0.00  0.00    +0.156 HD
ENDROOT
BRANCH   2  10
ATOM      7  N   UNL     1      30.949  -3.569 -24.184  0.00  0.00    -0.410 NA
ATOM      8  C   UNL     1      31.400  -5.876 -24.713  0.00  0.00    +0.111 C 
ATOM      9  C   UNL     1      30.946  -4.870 -23.836  0.00  0.00    +0.118 C 
ATOM     10  C   UNL     1      30.917  -7.581 -23.055  0.00  0.00    +0.048 C 
ATOM     11  C   UNL     1      31.383  -7.225 -24.317  0.00  0.00    +0.001 C 
ATOM     12  C   UNL     1      31.864  -5.489 -25.978  0.00  0.00    +0.031 C 
ATOM     13  C   UNL     1      30.485  -5.255 -22.579  0.00  0.00    +0.029 C 
ATOM     14  C   UNL     1      30.468  -6.596 -22.185  0.00  0.00    +0.017 C 
ATOM     15  C   UNL     1      31.405  -3.237 -25.413  0.00  0.00    +0.110 C 
ATOM     16  C   UNL     1      31.869  -4.150 -26.339  0.00  0.00    +0.038 C 
ATOM     17  C   UNL     1      31.392  -1.786 -25.759  0.00  0.00    +0.066 C 
BRANCH  12  18
ATOM     18  N   UNL     1      32.338  -6.434 -26.919  0.00  0.00    -0.360 N 
ATOM     19  H   UNL     1      31.811  -6.630 -27.727  0.00  0.00    +0.142 HD
ATOM     20  H   UNL     1      33.194  -6.894 -26.766  0.00  0.00    +0.142 HD
ENDBRANCH  12  18
ENDBRANCH   2  10
BRANCH   3  24
ATOM     21  N   UNL     1      34.476 -15.741 -21.386  0.00  0.00    -0.410 NA
ATOM     22  C   UNL     1      33.291 -14.266 -22.877  0.00  0.00    +0.111 C 
ATOM     23  C   UNL     1      33.762 -14.619 -21.595  0.00  0.00    +0.118 C 
ATOM     24  C   UNL     1      32.278 -12.273 -21.977  0.00  0.00    +0.048 C 
ATOM     25  C   UNL     1      32.548 -13.087 -23.061  0.00  0.00    +0.001 C 
ATOM     26  C   UNL     1      33.588 -15.120 -23.948  0.00  0.00    +0.031 C 
ATOM     27  C   UNL     1      33.467 -13.770 -20.532  0.00  0.00    +0.029 C 
ATOM     28  C   UNL     1      32.727 -12.598 -20.714  0.00  0.00    +0.017 C 
ATOM     29  C   UNL     1      34.740 -16.539 -22.445  0.00  0.00    +0.110 C 
ATOM     30  C   UNL     1      34.322 -16.277 -23.735  0.00  0.00    +0.038 C 
ATOM     31  C   UNL     1      35.534 -17.771 -22.168  0.00  0.00    +0.066 C 
BRANCH  26  32
ATOM     32  N   UNL     1      33.154 -14.841 -25.266  0.00  0.00    -0.360 N 
ATOM     33  H   UNL     1      33.811 -14.773 -25.996  0.00  0.00    +0.142 HD
ATOM     34  H   UNL     1      32.196 -14.714 -25.452  0.00  0.00    +0.142 HD
ENDBRANCH  26  32
ENDBRANCH   3  24
TORSDOF 4
ENDMDL
MODEL 8
REMARK VINA RESULT:     -11.6      6.368     10.862
REMARK  Name = 71166
REMARK  4 active torsions:
REMARK  status: ('A' for Active; 'I' for Inactive)
REMARK    1  A    between atoms: N_2  and  C_10
REMARK    2  A    between atoms: N_3  and  C_24
REMARK    3  A    between atoms: C_12  and  N_18
REMARK    4  A    between atoms: C_26  and  N_32
REMARK                            x       y       z     vdW  Elec       q    Type
REMARK                         _______ _______ _______ _____ _____    ______ ____
ROOT
ATOM      1  O   UNL     1      33.152  -9.580 -22.968  0.00  0.00    -0.252 OA
ATOM      2  N   UNL     1      31.570 -11.126 -22.197  0.00  0.00    -0.268 N 
ATOM      3  N   UNL     1      30.917  -8.961 -22.670  0.00  0.00    -0.268 N 
ATOM      4  C   UNL     1      32.000  -9.854 -22.647  0.00  0.00    +0.308 C 
ATOM      5  H   UNL     1      30.614 -11.200 -21.975  0.00  0.00    +0.156 HD
ATOM      6  H   UNL     1      30.049  -9.328 -22.382  0.00  0.00    +0.156 HD
ENDROOT
BRANCH   2  10
ATOM      7  N   UNL     1      34.563 -15.761 -21.485  0.00  0.00    -0.410 NA
ATOM      8  C   UNL     1      33.329 -14.297 -22.948  0.00  0.00    +0.111 C 
ATOM      9  C   UNL     1      33.837 -14.644 -21.679  0.00  0.00    +0.118 C 
ATOM     10  C   UNL     1      32.320 -12.290 -22.028  0.00  0.00    +0.048 C 
ATOM     11  C   UNL     1      32.574 -13.122 -23.114  0.00  0.00    +0.001 C 
ATOM     12  C   UNL     1      33.599 -15.154 -24.023  0.00  0.00    +0.031 C 
ATOM     13  C   UNL     1      33.567 -13.793 -20.610  0.00  0.00    +0.029 C 
ATOM     14  C   UNL     1      32.818 -12.625 -20.775  0.00  0.00    +0.017 C 
ATOM     15  C   UNL     1      34.801 -16.561 -22.549  0.00  0.00    +0.110 C 
ATOM     16  C   UNL     1      34.347 -16.306 -23.827  0.00  0.00    +0.038 C 
ATOM     17  C   UNL     1      35.608 -17.790 -22.291  0.00  0.00    +0.066 C 
BRANCH  12  18
ATOM     18  N   UNL     1      33.127 -14.881 -25.330  0.00  0.00    -0.360 N 
ATOM     19  H   UNL     1      33.734 -14.494 -26.001  0.00  0.00    +0.142 HD
ATOM     20  H   UNL     1      32.193 -15.080 -25.567  0.00  0.00    +0.142 HD
ENDBRANCH  12  18
ENDBRANCH   2  10
BRANCH   3  24
ATOM     21  N   UNL     1      30.911  -3.594 -24.135  0.00  0.00    -0.410 NA
ATOM     22  C   UNL     1      31.413  -5.888 -24.675  0.00  0.00    +0.111 C 
ATOM     23  C   UNL     1      30.920  -4.898 -23.800  0.00  0.00    +0.118 C 
ATOM     24  C   UNL     1      30.918  -7.599 -23.052  0.00  0.00    +0.048 C 
ATOM     25  C   UNL     1      31.408  -7.240 -24.293  0.00  0.00    +0.001 C 
ATOM     26  C   UNL     1      31.901  -5.481 -25.924  0.00  0.00    +0.031 C 
ATOM     27  C   UNL     1      30.436  -5.304 -22.559  0.00  0.00    +0.029 C 
ATOM     28  C   UNL     1      30.431  -6.648 -22.178  0.00  0.00    +0.017 C 
ATOM     29  C   UNL     1      31.392  -3.243 -25.349  0.00  0.00    +0.110 C 
ATOM     30  C   UNL     1      31.894  -4.138 -26.272  0.00  0.00    +0.038 C 
ATOM     31  C   UNL     1      31.362  -1.788 -25.680  0.00  0.00    +0.066 C 
BRANCH  26  32
ATOM     32  N   UNL     1      32.413  -6.408 -26.863  0.00  0.00    -0.360 N 
ATOM     33  H   UNL     1      33.256  -6.882 -26.677  0.00  0.00    +0.142 HD
ATOM     34  H   UNL     1      31.927  -6.578 -27.702  0.00  0.00    +0.142 HD
ENDBRANCH  26  32
ENDBRANCH   3  24
TORSDOF 4
ENDMDL
MODEL 9
REMARK VINA RESULT:     -11.5      5.791     12.671
REMARK  Name = 71166
REMARK  4 active torsions:
REMARK  status: ('A' for Active; 'I' for Inactive)
REMARK    1  A    between atoms: N_2  and  C_10
REMARK    2  A    between atoms: N_3  and  C_24
REMARK    3  A    between atoms: C_12  and  N_18
REMARK    4  A    between atoms: C_26  and  N_32
REMARK                            x       y       z     vdW  Elec       q    Type
REMARK                         _______ _______ _______ _____ _____    ______ ____
ROOT
ATOM      1  O   UNL     1      32.132 -11.163 -21.325  0.00  0.00    -0.252 OA
ATOM      2  N   UNL     1      32.709 -10.024 -23.289  0.00  0.00    -0.268 N 
ATOM      3  N   UNL     1      33.478 -12.175 -22.948  0.00  0.00    -0.268 N 
ATOM      4  C   UNL     1      32.714 -11.130 -22.405  0.00  0.00    +0.308 C 
ATOM      5  H   UNL     1      33.220 -10.141 -24.123  0.00  0.00    +0.156 HD
ATOM      6  H   UNL     1      33.885 -12.000 -23.828  0.00  0.00    +0.156 HD
ENDROOT
BRANCH   2  10
ATOM      7  N   UNL     1      30.162  -5.111 -22.714  0.00  0.00    -0.410 NA
ATOM      8  C   UNL     1      31.651  -6.788 -21.832  0.00  0.00    +0.111 C 
ATOM      9  C   UNL     1      30.789  -6.297 -22.834  0.00  0.00    +0.118 C 
ATOM     10  C   UNL     1      32.076  -8.790 -23.137  0.00  0.00    +0.048 C 
ATOM     11  C   UNL     1      32.288  -8.031 -21.990  0.00  0.00    +0.001 C 
ATOM     12  C   UNL     1      31.846  -6.004 -20.687  0.00  0.00    +0.031 C 
ATOM     13  C   UNL     1      30.594  -7.077 -23.972  0.00  0.00    +0.029 C 
ATOM     14  C   UNL     1      31.228  -8.312 -24.129  0.00  0.00    +0.017 C 
ATOM     15  C   UNL     1      30.378  -4.385 -21.594  0.00  0.00    +0.110 C 
ATOM     16  C   UNL     1      31.202  -4.781 -20.560  0.00  0.00    +0.038 C 
ATOM     17  C   UNL     1      29.664  -3.077 -21.501  0.00  0.00    +0.066 C 
BRANCH  12  18
ATOM     18  N   UNL     1      32.694  -6.421 -19.634  0.00  0.00    -0.360 N 
ATOM     19  H   UNL     1      33.505  -6.942 -19.832  0.00  0.00    +0.142 HD
ATOM     20  H   UNL     1      32.472  -6.190 -18.703  0.00  0.00    +0.142 HD
ENDBRANCH  12  18
ENDBRANCH   2  10
BRANCH   3  24
ATOM     21  N   UNL     1      34.487 -17.166 -20.707  0.00  0.00    -0.410 NA
ATOM     22  C   UNL     1      34.120 -15.811 -22.665  0.00  0.00    +0.111 C 
ATOM     23  C   UNL     1      34.244 -15.967 -21.268  0.00  0.00    +0.118 C 
ATOM     24  C   UNL     1      33.736 -13.448 -22.388  0.00  0.00    +0.048 C 
ATOM     25  C   UNL     1      33.866 -14.545 -23.219  0.00  0.00    +0.001 C 
ATOM     26  C   UNL     1      34.259 -16.949 -23.471  0.00  0.00    +0.031 C 
ATOM     27  C   UNL     1      34.105 -14.836 -20.469  0.00  0.00    +0.029 C 
ATOM     28  C   UNL     1      33.852 -13.576 -21.019  0.00  0.00    +0.017 C 
ATOM     29  C   UNL     1      34.613 -18.240 -21.519  0.00  0.00    +0.110 C 
ATOM     30  C   UNL     1      34.509 -18.186 -22.895  0.00  0.00    +0.038 C 
ATOM     31  C   UNL     1      34.882 -19.548 -20.855  0.00  0.00    +0.066 C 
BRANCH  26  32
ATOM     32  N   UNL     1      34.150 -16.882 -24.880  0.00  0.00    -0.360 N 
ATOM     33  H   UNL     1      34.016 -17.706 -25.404  0.00  0.00    +0.142 HD
ATOM     34  H   UNL     1      34.209 -16.012 -25.338  0.00  0.00    +0.142 HD
ENDBRANCH  26  32
ENDBRANCH   3  24
TORSDOF 4
ENDMDL
