MODEL 1
REMARK VINA RESULT:     -12.5      0.000      0.000
REMARK  Name = 59317190
REMARK  6 active torsions:
REMARK  status: ('A' for Active; 'I' for Inactive)
REMARK    1  A    between atoms: N_4  and  C_15
REMARK    2  A    between atoms: C_5  and  C_9
REMARK    3  A    between atoms: C_5  and  C_27
REMARK    4  A    between atoms: C_18  and  C_24
REMARK    5  A    between atoms: C_20  and  C_26
REMARK    6  A    between atoms: C_27  and  O_28
REMARK                            x       y       z     vdW  Elec       q    Type
REMARK                         _______ _______ _______ _____ _____    ______ ____
ROOT
ATOM      1  O   UNL     1      34.978 -16.520 -20.475  0.00  0.00    -0.272 OA
ATOM      2  O   UNL     1      33.607 -17.123 -24.864  0.00  0.00    -0.252 OA
ATOM      3  N   UNL     1      34.538 -18.537 -23.268  0.00  0.00    -0.251 N 
ATOM      4  N   UNL     1      34.167 -16.394 -22.688  0.00  0.00    -0.191 N 
ATOM      5  C   UNL     1      35.078 -18.465 -21.912  0.00  0.00    +0.177 C 
ATOM      6  C   UNL     1      34.752 -16.999 -21.581  0.00  0.00    +0.259 C 
ATOM      7  C   UNL     1      34.034 -17.311 -23.732  0.00  0.00    +0.317 C 
ATOM      8  C   UNL     1      34.616 -19.742 -24.077  0.00  0.00    +0.117 C 
ENDROOT
BRANCH   5   9
ATOM      9  C   UNL     1      34.353 -19.405 -20.952  0.00  0.00    +0.005 C 
ATOM     10  C   UNL     1      32.960 -19.393 -20.883  0.00  0.00    -0.002 C 
ATOM     11  C   UNL     1      35.084 -20.275 -20.144  0.00  0.00    -0.002 C 
ATOM     12  C   UNL     1      32.298 -20.251 -20.005  0.00  0.00    -0.000 C 
ATOM     13  C   UNL     1      34.422 -21.135 -19.266  0.00  0.00    -0.000 C 
ATOM     14  C   UNL     1      33.029 -21.122 -19.197  0.00  0.00    -0.000 C 
ENDBRANCH   5   9
BRANCH   4  15
ATOM     15  C   UNL     1      33.753 -15.026 -22.746  0.00  0.00    +0.062 C 
ATOM     16  C   UNL     1      33.065 -14.459 -21.674  0.00  0.00    +0.020 C 
ATOM     17  C   UNL     1      34.040 -14.259 -23.875  0.00  0.00    +0.016 C 
ATOM     18  C   UNL     1      32.662 -13.124 -21.731  0.00  0.00    +0.082 C 
ATOM     19  C   UNL     1      33.637 -12.924 -23.933  0.00  0.00    +0.012 C 
ATOM     20  C   UNL     1      32.949 -12.357 -22.861  0.00  0.00    +0.072 C 
BRANCH  18  24
ATOM     21  F   UNL     1      31.602 -13.494 -19.636  0.00  0.00    -0.166 F 
ATOM     22  F   UNL     1      32.632 -11.596 -19.891  0.00  0.00    -0.166 F 
ATOM     23  F   UNL     1      30.748 -11.951 -20.907  0.00  0.00    -0.166 F 
ATOM     24  C   UNL     1      31.925 -12.550 -20.564  0.00  0.00    +0.419 C 
ENDBRANCH  18  24
BRANCH  20  26
ATOM     25  N   UNL     1      32.220  -9.874 -23.011  0.00  0.00    -0.191 NA
ATOM     26  C   UNL     1      32.547 -10.986 -22.944  0.00  0.00    +0.100 C 
ENDBRANCH  20  26
ENDBRANCH   4  15
BRANCH   5  27
ATOM     27  C   UNL     1      36.611 -18.574 -21.943  0.00  0.00    +0.168 C 
BRANCH  27  28
ATOM     28  O   UNL     1      37.120 -18.140 -20.694  0.00  0.00    -0.380 OA
ATOM     29  H   UNL     1      36.396 -18.088 -20.050  0.00  0.00    +0.211 HD
ENDBRANCH  27  28
ENDBRANCH   5  27
TORSDOF 6
ENDMDL
MODEL 2
REMARK VINA RESULT:     -11.6      1.879      2.393
REMARK  Name = 59317190
REMARK  6 active torsions:
REMARK  status: ('A' for Active; 'I' for Inactive)
REMARK    1  A    between atoms: N_4  and  C_15
REMARK    2  A    between atoms: C_5  and  C_9
REMARK    3  A    between atoms: C_5  and  C_27
REMARK    4  A    between atoms: C_18  and  C_24
REMARK    5  A    between atoms: C_20  and  C_26
REMARK    6  A    between atoms: C_27  and  O_28
REMARK                            x       y       z     vdW  Elec       q    Type
REMARK                         _______ _______ _______ _____ _____    ______ ____
ROOT
ATOM      1  O   UNL     1      34.935 -16.700 -20.328  0.00  0.00    -0.272 OA
ATOM      2  O   UNL     1      33.749 -17.397 -24.757  0.00  0.00    -0.252 OA
ATOM      3  N   UNL     1      34.610 -18.776 -23.092  0.00  0.00    -0.251 N 
ATOM      4  N   UNL     1      34.218 -16.621 -22.575  0.00  0.00    -0.191 N 
ATOM      5  C   UNL     1      35.092 -18.676 -21.717  0.00  0.00    +0.177 C 
ATOM      6  C   UNL     1      34.755 -17.202 -21.432  0.00  0.00    +0.259 C 
ATOM      7  C   UNL     1      34.128 -17.560 -23.604  0.00  0.00    +0.317 C 
ATOM      8  C   UNL     1      34.720 -19.999 -23.872  0.00  0.00    +0.117 C 
ENDROOT
BRANCH   5   9
ATOM      9  C   UNL     1      34.325 -19.594 -20.768  0.00  0.00    +0.005 C 
ATOM     10  C   UNL     1      32.933 -19.532 -20.711  0.00  0.00    -0.002 C 
ATOM     11  C   UNL     1      35.018 -20.494 -19.959  0.00  0.00    -0.002 C 
ATOM     12  C   UNL     1      32.233 -20.370 -19.844  0.00  0.00    -0.000 C 
ATOM     13  C   UNL     1      34.317 -21.333 -19.091  0.00  0.00    -0.000 C 
ATOM     14  C   UNL     1      32.925 -21.271 -19.034  0.00  0.00    -0.000 C 
ENDBRANCH   5   9
BRANCH   4  15
ATOM     15  C   UNL     1      33.810 -15.254 -22.681  0.00  0.00    +0.062 C 
ATOM     16  C   UNL     1      33.527 -14.704 -23.930  0.00  0.00    +0.020 C 
ATOM     17  C   UNL     1      33.695 -14.472 -21.531  0.00  0.00    +0.016 C 
ATOM     18  C   UNL     1      33.128 -13.371 -24.032  0.00  0.00    +0.082 C 
ATOM     19  C   UNL     1      33.296 -13.138 -21.633  0.00  0.00    +0.012 C 
ATOM     20  C   UNL     1      33.013 -12.588 -22.883  0.00  0.00    +0.072 C 
BRANCH  18  24
ATOM     21  F   UNL     1      33.066 -13.718 -26.383  0.00  0.00    -0.166 F 
ATOM     22  F   UNL     1      31.537 -12.419 -25.544  0.00  0.00    -0.166 F 
ATOM     23  F   UNL     1      33.585 -11.720 -25.701  0.00  0.00    -0.166 F 
ATOM     24  C   UNL     1      32.834 -12.816 -25.388  0.00  0.00    +0.419 C 
ENDBRANCH  18  24
BRANCH  20  26
ATOM     25  N   UNL     1      32.277 -10.107 -23.024  0.00  0.00    -0.191 NA
ATOM     26  C   UNL     1      32.606 -11.218 -22.961  0.00  0.00    +0.100 C 
ENDBRANCH  20  26
ENDBRANCH   4  15
BRANCH   5  27
ATOM     27  C   UNL     1      36.625 -18.787 -21.681  0.00  0.00    +0.168 C 
BRANCH  27  28
ATOM     28  O   UNL     1      37.082 -18.320 -20.423  0.00  0.00    -0.380 OA
ATOM     29  H   UNL     1      36.506 -18.664 -19.722  0.00  0.00    +0.211 HD
ENDBRANCH  27  28
ENDBRANCH   5  27
TORSDOF 6
ENDMDL
MODEL 3
REMARK VINA RESULT:      -9.5      4.770      9.981
REMARK  Name = 59317190
REMARK  6 active torsions:
REMARK  status: ('A' for Active; 'I' for Inactive)
REMARK    1  A    between atoms: N_4  and  C_15
REMARK    2  A    between atoms: C_5  and  C_9
REMARK    3  A    between atoms: C_5  and  C_27
REMARK    4  A    between atoms: C_18  and  C_24
REMARK    5  A    between atoms: C_20  and  C_26
REMARK    6  A    between atoms: C_27  and  O_28
REMARK                            x       y       z     vdW  Elec       q    Type
REMARK                         _______ _______ _______ _____ _____    ______ ____
ROOT
ATOM      1  O   UNL     1      34.701  -8.563 -23.579  0.00  0.00    -0.272 OA
ATOM      2  O   UNL     1      30.283  -9.450 -22.482  0.00  0.00    -0.252 OA
ATOM      3  N   UNL     1      31.523  -7.490 -22.680  0.00  0.00    -0.251 N 
ATOM      4  N   UNL     1      32.567  -9.442 -23.085  0.00  0.00    -0.191 N 
ATOM      5  C   UNL     1      32.901  -7.078 -22.932  0.00  0.00    +0.177 C 
ATOM      6  C   UNL     1      33.529  -8.450 -23.235  0.00  0.00    +0.259 C 
ATOM      7  C   UNL     1      31.337  -8.881 -22.738  0.00  0.00    +0.317 C 
ATOM      8  C   UNL     1      30.481  -6.546 -22.308  0.00  0.00    +0.117 C 
ENDROOT
BRANCH   5   9
ATOM      9  C   UNL     1      33.016  -6.157 -24.144  0.00  0.00    +0.005 C 
ATOM     10  C   UNL     1      32.271  -6.421 -25.293  0.00  0.00    -0.002 C 
ATOM     11  C   UNL     1      33.867  -5.053 -24.102  0.00  0.00    -0.002 C 
ATOM     12  C   UNL     1      32.377  -5.580 -26.401  0.00  0.00    -0.000 C 
ATOM     13  C   UNL     1      33.972  -4.211 -25.210  0.00  0.00    -0.000 C 
ATOM     14  C   UNL     1      33.227  -4.475 -26.359  0.00  0.00    -0.000 C 
ENDBRANCH   5   9
BRANCH   4  15
ATOM     15  C   UNL     1      32.804 -10.841 -23.266  0.00  0.00    +0.062 C 
ATOM     16  C   UNL     1      33.112 -11.645 -22.169  0.00  0.00    +0.020 C 
ATOM     17  C   UNL     1      32.725 -11.401 -24.541  0.00  0.00    +0.016 C 
ATOM     18  C   UNL     1      33.342 -13.010 -22.346  0.00  0.00    +0.082 C 
ATOM     19  C   UNL     1      32.955 -12.766 -24.718  0.00  0.00    +0.012 C 
ATOM     20  C   UNL     1      33.263 -13.570 -23.622  0.00  0.00    +0.072 C 
BRANCH  18  24
ATOM     21  F   UNL     1      34.324 -13.130 -20.185  0.00  0.00    -0.166 F 
ATOM     22  F   UNL     1      32.572 -14.370 -20.535  0.00  0.00    -0.166 F 
ATOM     23  F   UNL     1      34.475 -14.906 -21.429  0.00  0.00    -0.166 F 
ATOM     24  C   UNL     1      33.671 -13.840 -21.147  0.00  0.00    +0.419 C 
ENDBRANCH  18  24
BRANCH  20  26
ATOM     25  N   UNL     1      33.683 -16.099 -23.999  0.00  0.00    -0.191 NA
ATOM     26  C   UNL     1      33.495 -14.967 -23.830  0.00  0.00    +0.100 C 
ENDBRANCH  20  26
ENDBRANCH   4  15
BRANCH   5  27
ATOM     27  C   UNL     1      33.554  -6.578 -21.633  0.00  0.00    +0.168 C 
BRANCH  27  28
ATOM     28  O   UNL     1      32.769  -7.013 -20.537  0.00  0.00    -0.380 OA
ATOM     29  H   UNL     1      33.115  -7.858 -20.207  0.00  0.00    +0.211 HD
ENDBRANCH  27  28
ENDBRANCH   5  27
TORSDOF 6
ENDMDL
