MODEL 1
REMARK VINA RESULT:     -11.0      0.000      0.000
REMARK  Name = 34040
REMARK  5 active torsions:
REMARK  status: ('A' for Active; 'I' for Inactive)
REMARK    1  A    between atoms: C_3  and  O_20
REMARK    2  A    between atoms: C_6  and  C_22
REMARK    3  A    between atoms: C_22  and  O_23
REMARK    4  A    between atoms: O_23  and  C_25
REMARK    5  A    between atoms: C_25  and  C_28
REMARK                            x       y       z     vdW  Elec       q    Type
REMARK                         _______ _______ _______ _____ _____    ______ ____
ROOT
ATOM      1  N   UNL     1      35.666 -21.872 -17.612  0.00  0.00    +0.389 N 
ATOM      2  N   UNL     1      31.476 -23.234 -13.509  0.00  0.00    -0.284 N 
ATOM      3  C   UNL     1      33.174 -22.274 -17.744  0.00  0.00    +0.095 C 
ATOM      4  C   UNL     1      34.416 -21.915 -16.811  0.00  0.00    -0.024 C 
ATOM      5  C   UNL     1      33.089 -21.281 -18.915  0.00  0.00    +0.031 C 
ATOM      6  C   UNL     1      34.425 -21.184 -19.662  0.00  0.00    +0.026 C 
ATOM      7  C   UNL     1      34.532 -22.883 -15.568  0.00  0.00    +0.010 C 
ATOM      8  C   UNL     1      31.896 -22.343 -16.922  0.00  0.00    +0.001 C 
ATOM      9  C   UNL     1      35.567 -20.870 -18.688  0.00  0.00    -0.073 C 
ATOM     10  C   UNL     1      32.029 -22.719 -15.579  0.00  0.00    +0.009 C 
ATOM     11  C   UNL     1      33.217 -22.993 -14.872  0.00  0.00    -0.008 C 
ATOM     12  C   UNL     1      30.949 -22.865 -14.727  0.00  0.00    +0.051 C 
ATOM     13  C   UNL     1      36.854 -21.583 -16.802  0.00  0.00    -0.100 C 
ATOM     14  C   UNL     1      30.587 -22.137 -17.377  0.00  0.00    -0.002 C 
ATOM     15  C   UNL     1      32.851 -23.316 -13.587  0.00  0.00    +0.061 C 
ATOM     16  C   UNL     1      29.644 -22.647 -15.168  0.00  0.00    +0.015 C 
ATOM     17  C   UNL     1      29.488 -22.280 -16.514  0.00  0.00    +0.001 C 
ATOM     18  C   UNL     1      30.709 -23.501 -12.311  0.00  0.00    +0.117 C 
ATOM     19  H   UNL     1      35.775 -22.805 -18.010  0.00  0.00    -0.080 HD
ENDROOT
BRANCH   3  20
ATOM     20  O   UNL     1      33.393 -23.590 -18.274  0.00  0.00    -0.354 OA
ATOM     21  C   UNL     1      33.293 -23.593 -19.687  0.00  0.00    +0.174 C 
ENDBRANCH   3  20
BRANCH   6  22
ATOM     22  C   UNL     1      34.347 -20.124 -20.761  0.00  0.00    +0.207 C 
BRANCH  22  23
ATOM     23  O   UNL     1      34.763 -18.886 -20.218  0.00  0.00    -0.445 OA
BRANCH  23  25
ATOM     24  O   UNL     1      36.886 -18.351 -20.931  0.00  0.00    -0.245 OA
ATOM     25  C   UNL     1      35.677 -18.182 -20.948  0.00  0.00    +0.343 C 
BRANCH  25  28
ATOM     26 BR   UNL     1      33.395 -13.380 -21.349  0.00  0.00    -0.047 Br
ATOM     27  N   UNL     1      34.197 -16.511 -23.942  0.00  0.00    -0.242 NA
ATOM     28  C   UNL     1      35.009 -17.156 -21.789  0.00  0.00    +0.095 C 
ATOM     29  C   UNL     1      34.604 -15.969 -21.230  0.00  0.00    +0.016 C 
ATOM     30  C   UNL     1      34.799 -17.399 -23.120  0.00  0.00    +0.105 C 
ATOM     31  C   UNL     1      33.980 -15.030 -22.043  0.00  0.00    +0.054 C 
ATOM     32  C   UNL     1      33.801 -15.345 -23.381  0.00  0.00    +0.106 C 
ENDBRANCH  25  28
ENDBRANCH  23  25
ENDBRANCH  22  23
ENDBRANCH   6  22
TORSDOF 5
ENDMDL
MODEL 2
REMARK VINA RESULT:     -11.0      4.237      8.952
REMARK  Name = 34040
REMARK  5 active torsions:
REMARK  status: ('A' for Active; 'I' for Inactive)
REMARK    1  A    between atoms: C_3  and  O_20
REMARK    2  A    between atoms: C_6  and  C_22
REMARK    3  A    between atoms: C_22  and  O_23
REMARK    4  A    between atoms: O_23  and  C_25
REMARK    5  A    between atoms: C_25  and  C_28
REMARK                            x       y       z     vdW  Elec       q    Type
REMARK                         _______ _______ _______ _____ _____    ______ ____
ROOT
ATOM      1  N   UNL     1      31.619 -23.500 -14.641  0.00  0.00    +0.389 N 
ATOM      2  N   UNL     1      33.926 -20.884 -19.548  0.00  0.00    -0.284 N 
ATOM      3  C   UNL     1      33.981 -23.101 -15.447  0.00  0.00    +0.095 C 
ATOM      4  C   UNL     1      32.447 -22.684 -15.566  0.00  0.00    -0.024 C 
ATOM      5  C   UNL     1      34.447 -22.989 -13.986  0.00  0.00    +0.031 C 
ATOM      6  C   UNL     1      33.515 -23.758 -13.043  0.00  0.00    +0.026 C 
ATOM      7  C   UNL     1      31.922 -22.748 -17.054  0.00  0.00    +0.010 C 
ATOM      8  C   UNL     1      34.828 -22.285 -16.411  0.00  0.00    +0.001 C 
ATOM      9  C   UNL     1      32.060 -23.322 -13.246  0.00  0.00    -0.073 C 
ATOM     10  C   UNL     1      34.203 -21.845 -17.585  0.00  0.00    +0.009 C 
ATOM     11  C   UNL     1      32.857 -22.022 -17.964  0.00  0.00    -0.008 C 
ATOM     12  C   UNL     1      34.863 -21.133 -18.570  0.00  0.00    +0.051 C 
ATOM     13  C   UNL     1      30.188 -23.190 -14.730  0.00  0.00    -0.100 C 
ATOM     14  C   UNL     1      36.190 -21.978 -16.288  0.00  0.00    -0.002 C 
ATOM     15  C   UNL     1      32.705 -21.421 -19.191  0.00  0.00    +0.061 C 
ATOM     16  C   UNL     1      36.214 -20.810 -18.448  0.00  0.00    +0.015 C 
ATOM     17  C   UNL     1      36.863 -21.251 -17.284  0.00  0.00    +0.001 C 
ATOM     18  C   UNL     1      34.171 -20.163 -20.779  0.00  0.00    +0.117 C 
ATOM     19  H   UNL     1      31.750 -24.469 -14.930  0.00  0.00    -0.080 HD
ENDROOT
BRANCH   3  20
ATOM     20  O   UNL     1      34.095 -24.471 -15.860  0.00  0.00    -0.354 OA
ATOM     21  C   UNL     1      35.241 -25.081 -15.292  0.00  0.00    +0.174 C 
ENDBRANCH   3  20
BRANCH   6  22
ATOM     22  C   UNL     1      33.941 -23.556 -11.588  0.00  0.00    +0.207 C 
BRANCH  22  23
ATOM     23  O   UNL     1      35.235 -22.985 -11.577  0.00  0.00    -0.445 OA
BRANCH  23  25
ATOM     24  O   UNL     1      36.471 -23.681  -9.764  0.00  0.00    -0.245 OA
ATOM     25  C   UNL     1      36.210 -23.710 -10.956  0.00  0.00    +0.343 C 
BRANCH  25  28
ATOM     26 BR   UNL     1      40.112 -24.229 -14.553  0.00  0.00    -0.047 Br
ATOM     27  N   UNL     1      37.172 -26.693 -12.986  0.00  0.00    -0.242 NA
ATOM     28  C   UNL     1      36.940 -24.563 -11.929  0.00  0.00    +0.095 C 
ATOM     29  C   UNL     1      37.996 -24.045 -12.639  0.00  0.00    +0.016 C 
ATOM     30  C   UNL     1      36.555 -25.864 -12.116  0.00  0.00    +0.105 C 
ATOM     31  C   UNL     1      38.657 -24.868 -13.543  0.00  0.00    +0.054 C 
ATOM     32  C   UNL     1      38.211 -26.173 -13.680  0.00  0.00    +0.106 C 
ENDBRANCH  25  28
ENDBRANCH  23  25
ENDBRANCH  22  23
ENDBRANCH   6  22
TORSDOF 5
ENDMDL
MODEL 3
REMARK VINA RESULT:     -10.5      0.996      1.195
REMARK  Name = 34040
REMARK  5 active torsions:
REMARK  status: ('A' for Active; 'I' for Inactive)
REMARK    1  A    between atoms: C_3  and  O_20
REMARK    2  A    between atoms: C_6  and  C_22
REMARK    3  A    between atoms: C_22  and  O_23
REMARK    4  A    between atoms: O_23  and  C_25
REMARK    5  A    between atoms: C_25  and  C_28
REMARK                            x       y       z     vdW  Elec       q    Type
REMARK                         _______ _______ _______ _____ _____    ______ ____
ROOT
ATOM      1  N   UNL     1      35.671 -21.822 -17.666  0.00  0.00    +0.389 N 
ATOM      2  N   UNL     1      31.550 -23.383 -13.564  0.00  0.00    -0.284 N 
ATOM      3  C   UNL     1      33.179 -22.226 -17.778  0.00  0.00    +0.095 C 
ATOM      4  C   UNL     1      34.434 -21.905 -16.848  0.00  0.00    -0.024 C 
ATOM      5  C   UNL     1      33.073 -21.182 -18.901  0.00  0.00    +0.031 C 
ATOM      6  C   UNL     1      34.396 -21.046 -19.663  0.00  0.00    +0.026 C 
ATOM      7  C   UNL     1      34.573 -22.929 -15.653  0.00  0.00    +0.010 C 
ATOM      8  C   UNL     1      31.914 -22.337 -16.940  0.00  0.00    +0.001 C 
ATOM      9  C   UNL     1      35.552 -20.773 -18.694  0.00  0.00    -0.073 C 
ATOM     10  C   UNL     1      32.068 -22.773 -15.617  0.00  0.00    +0.009 C 
ATOM     11  C   UNL     1      33.269 -23.074 -14.942  0.00  0.00    -0.008 C 
ATOM     12  C   UNL     1      31.003 -22.961 -14.756  0.00  0.00    +0.051 C 
ATOM     13  C   UNL     1      36.871 -21.566 -16.863  0.00  0.00    -0.100 C 
ATOM     14  C   UNL     1      30.597 -22.115 -17.364  0.00  0.00    -0.002 C 
ATOM     15  C   UNL     1      32.924 -23.457 -13.668  0.00  0.00    +0.061 C 
ATOM     16  C   UNL     1      29.691 -22.728 -15.165  0.00  0.00    +0.015 C 
ATOM     17  C   UNL     1      29.513 -22.301 -16.491  0.00  0.00    +0.001 C 
ATOM     18  C   UNL     1      30.803 -23.707 -12.368  0.00  0.00    +0.117 C 
ATOM     19  H   UNL     1      35.776 -22.736 -18.107  0.00  0.00    -0.080 HD
ENDROOT
BRANCH   3  20
ATOM     20  O   UNL     1      33.393 -23.516 -18.370  0.00  0.00    -0.354 OA
ATOM     21  C   UNL     1      33.292 -23.451 -19.782  0.00  0.00    +0.174 C 
ENDBRANCH   3  20
BRANCH   6  22
ATOM     22  C   UNL     1      34.297 -19.938 -20.711  0.00  0.00    +0.207 C 
BRANCH  22  23
ATOM     23  O   UNL     1      35.133 -18.869 -20.312  0.00  0.00    -0.445 OA
BRANCH  23  25
ATOM     24  O   UNL     1      36.746 -18.476 -21.907  0.00  0.00    -0.245 OA
ATOM     25  C   UNL     1      35.727 -18.158 -21.314  0.00  0.00    +0.343 C 
BRANCH  25  28
ATOM     26 BR   UNL     1      33.461 -14.927 -24.898  0.00  0.00    -0.047 Br
ATOM     27  N   UNL     1      33.902 -14.945 -20.779  0.00  0.00    -0.242 NA
ATOM     28  C   UNL     1      34.968 -16.916 -21.608  0.00  0.00    +0.095 C 
ATOM     29  C   UNL     1      34.646 -16.599 -22.905  0.00  0.00    +0.016 C 
ATOM     30  C   UNL     1      34.592 -16.090 -20.582  0.00  0.00    +0.105 C 
ATOM     31  C   UNL     1      33.936 -15.429 -23.147  0.00  0.00    +0.054 C 
ATOM     32  C   UNL     1      33.590 -14.642 -22.060  0.00  0.00    +0.106 C 
ENDBRANCH  25  28
ENDBRANCH  23  25
ENDBRANCH  22  23
ENDBRANCH   6  22
TORSDOF 5
ENDMDL
MODEL 4
REMARK VINA RESULT:     -10.5      2.479      4.334
REMARK  Name = 34040
REMARK  5 active torsions:
REMARK  status: ('A' for Active; 'I' for Inactive)
REMARK    1  A    between atoms: C_3  and  O_20
REMARK    2  A    between atoms: C_6  and  C_22
REMARK    3  A    between atoms: C_22  and  O_23
REMARK    4  A    between atoms: O_23  and  C_25
REMARK    5  A    between atoms: C_25  and  C_28
REMARK                            x       y       z     vdW  Elec       q    Type
REMARK                         _______ _______ _______ _____ _____    ______ ____
ROOT
ATOM      1  N   UNL     1      33.504 -22.036 -16.814  0.00  0.00    +0.389 N 
ATOM      2  N   UNL     1      36.574 -25.010 -12.573  0.00  0.00    -0.284 N 
ATOM      3  C   UNL     1      35.963 -22.220 -16.260  0.00  0.00    +0.095 C 
ATOM      4  C   UNL     1      34.511 -22.858 -16.095  0.00  0.00    -0.024 C 
ATOM      5  C   UNL     1      36.299 -22.049 -17.750  0.00  0.00    +0.031 C 
ATOM      6  C   UNL     1      35.193 -21.284 -18.486  0.00  0.00    +0.026 C 
ATOM      7  C   UNL     1      34.126 -23.091 -14.581  0.00  0.00    +0.010 C 
ATOM      8  C   UNL     1      36.993 -23.046 -15.504  0.00  0.00    +0.001 C 
ATOM      9  C   UNL     1      33.829 -21.942 -18.248  0.00  0.00    -0.073 C 
ATOM     10  C   UNL     1      36.541 -23.738 -14.372  0.00  0.00    +0.009 C 
ATOM     11  C   UNL     1      35.226 -23.807 -13.871  0.00  0.00    -0.008 C 
ATOM     12  C   UNL     1      37.376 -24.490 -13.566  0.00  0.00    +0.051 C 
ATOM     13  C   UNL     1      32.138 -22.551 -16.669  0.00  0.00    -0.100 C 
ATOM     14  C   UNL     1      38.365 -23.140 -15.775  0.00  0.00    -0.002 C 
ATOM     15  C   UNL     1      35.268 -24.599 -12.748  0.00  0.00    +0.061 C 
ATOM     16  C   UNL     1      38.739 -24.602 -13.837  0.00  0.00    +0.015 C 
ATOM     17  C   UNL     1      39.214 -23.907 -14.961  0.00  0.00    +0.001 C 
ATOM     18  C   UNL     1      37.023 -25.864 -11.495  0.00  0.00    +0.117 C 
ATOM     19  H   UNL     1      33.540 -21.112 -16.384  0.00  0.00    -0.080 HD
ENDROOT
BRANCH   3  20
ATOM     20  O   UNL     1      35.943 -20.925 -15.642  0.00  0.00    -0.354 OA
ATOM     21  C   UNL     1      36.988 -20.108 -16.139  0.00  0.00    +0.174 C 
ENDBRANCH   3  20
BRANCH   6  22
ATOM     22  C   UNL     1      35.501 -21.207 -19.982  0.00  0.00    +0.207 C 
BRANCH  22  23
ATOM     23  O   UNL     1      34.765 -20.133 -20.535  0.00  0.00    -0.445 OA
BRANCH  23  25
ATOM     24  O   UNL     1      36.481 -18.623 -20.253  0.00  0.00    -0.245 OA
ATOM     25  C   UNL     1      35.473 -19.003 -20.828  0.00  0.00    +0.343 C 
BRANCH  25  28
ATOM     26 BR   UNL     1      34.062 -14.358 -23.033  0.00  0.00    -0.047 Br
ATOM     27  N   UNL     1      33.779 -18.353 -24.092  0.00  0.00    -0.242 NA
ATOM     28  C   UNL     1      34.855 -18.267 -21.960  0.00  0.00    +0.095 C 
ATOM     29  C   UNL     1      34.783 -16.895 -21.930  0.00  0.00    +0.016 C 
ATOM     30  C   UNL     1      34.356 -18.960 -23.031  0.00  0.00    +0.105 C 
ATOM     31  C   UNL     1      34.197 -16.236 -23.004  0.00  0.00    +0.054 C 
ATOM     32  C   UNL     1      33.714 -17.003 -24.051  0.00  0.00    +0.106 C 
ENDBRANCH  25  28
ENDBRANCH  23  25
ENDBRANCH  22  23
ENDBRANCH   6  22
TORSDOF 5
ENDMDL
MODEL 5
REMARK VINA RESULT:     -10.1      3.429      9.393
REMARK  Name = 34040
REMARK  5 active torsions:
REMARK  status: ('A' for Active; 'I' for Inactive)
REMARK    1  A    between atoms: C_3  and  O_20
REMARK    2  A    between atoms: C_6  and  C_22
REMARK    3  A    between atoms: C_22  and  O_23
REMARK    4  A    between atoms: O_23  and  C_25
REMARK    5  A    between atoms: C_25  and  C_28
REMARK                            x       y       z     vdW  Elec       q    Type
REMARK                         _______ _______ _______ _____ _____    ______ ____
ROOT
ATOM      1  N   UNL     1      34.300 -19.179 -23.537  0.00  0.00    +0.389 N 
ATOM      2  N   UNL     1      33.207 -13.287 -24.125  0.00  0.00    -0.284 N 
ATOM      3  C   UNL     1      34.590 -17.198 -21.994  0.00  0.00    +0.095 C 
ATOM      4  C   UNL     1      33.872 -17.777 -23.296  0.00  0.00    -0.024 C 
ATOM      5  C   UNL     1      34.317 -18.113 -20.790  0.00  0.00    +0.031 C 
ATOM      6  C   UNL     1      34.674 -19.571 -21.104  0.00  0.00    +0.026 C 
ATOM      7  C   UNL     1      34.090 -16.856 -24.560  0.00  0.00    +0.010 C 
ATOM      8  C   UNL     1      34.173 -15.755 -21.758  0.00  0.00    +0.001 C 
ATOM      9  C   UNL     1      33.971 -20.036 -22.384  0.00  0.00    -0.073 C 
ATOM     10  C   UNL     1      33.829 -15.003 -22.889  0.00  0.00    +0.009 C 
ATOM     11  C   UNL     1      33.770 -15.437 -24.229  0.00  0.00    -0.008 C 
ATOM     12  C   UNL     1      33.474 -13.668 -22.828  0.00  0.00    +0.051 C 
ATOM     13  C   UNL     1      33.703 -19.758 -24.745  0.00  0.00    -0.100 C 
ATOM     14  C   UNL     1      34.158 -15.068 -20.536  0.00  0.00    -0.002 C 
ATOM     15  C   UNL     1      33.385 -14.354 -24.983  0.00  0.00    +0.061 C 
ATOM     16  C   UNL     1      33.442 -12.982 -21.614  0.00  0.00    +0.015 C 
ATOM     17  C   UNL     1      33.794 -13.714 -20.469  0.00  0.00    +0.001 C 
ATOM     18  C   UNL     1      32.798 -11.964 -24.543  0.00  0.00    +0.117 C 
ATOM     19  H   UNL     1      35.310 -19.144 -23.672  0.00  0.00    -0.080 HD
ENDROOT
BRANCH   3  20
ATOM     20  O   UNL     1      36.003 -17.181 -22.246  0.00  0.00    -0.354 OA
ATOM     21  C   UNL     1      36.694 -18.007 -21.325  0.00  0.00    +0.174 C 
ENDBRANCH   3  20
BRANCH   6  22
ATOM     22  C   UNL     1      34.307 -20.477 -19.928  0.00  0.00    +0.207 C 
BRANCH  22  23
ATOM     23  O   UNL     1      35.466 -21.181 -19.529  0.00  0.00    -0.445 OA
BRANCH  23  25
ATOM     24  O   UNL     1      36.749 -19.902 -18.108  0.00  0.00    -0.245 OA
ATOM     25  C   UNL     1      35.995 -20.839 -18.317  0.00  0.00    +0.343 C 
BRANCH  25  28
ATOM     26 BR   UNL     1      37.006 -23.471 -13.793  0.00  0.00    -0.047 Br
ATOM     27  N   UNL     1      33.786 -23.142 -16.378  0.00  0.00    -0.242 NA
ATOM     28  C   UNL     1      35.533 -21.767 -17.254  0.00  0.00    +0.095 C 
ATOM     29  C   UNL     1      36.373 -22.098 -16.219  0.00  0.00    +0.016 C 
ATOM     30  C   UNL     1      34.269 -22.291 -17.311  0.00  0.00    +0.105 C 
ATOM     31  C   UNL     1      35.912 -22.970 -15.240  0.00  0.00    +0.054 C 
ATOM     32  C   UNL     1      34.622 -23.461 -15.364  0.00  0.00    +0.106 C 
ENDBRANCH  25  28
ENDBRANCH  23  25
ENDBRANCH  22  23
ENDBRANCH   6  22
TORSDOF 5
ENDMDL
MODEL 6
REMARK VINA RESULT:     -10.0      8.607     15.343
REMARK  Name = 34040
REMARK  5 active torsions:
REMARK  status: ('A' for Active; 'I' for Inactive)
REMARK    1  A    between atoms: C_3  and  O_20
REMARK    2  A    between atoms: C_6  and  C_22
REMARK    3  A    between atoms: C_22  and  O_23
REMARK    4  A    between atoms: O_23  and  C_25
REMARK    5  A    between atoms: C_25  and  C_28
REMARK                            x       y       z     vdW  Elec       q    Type
REMARK                         _______ _______ _______ _____ _____    ______ ____
ROOT
ATOM      1  N   UNL     1      33.665  -8.724 -23.241  0.00  0.00    +0.389 N 
ATOM      2  N   UNL     1      33.107  -3.050 -25.179  0.00  0.00    -0.284 N 
ATOM      3  C   UNL     1      32.155  -6.806 -22.584  0.00  0.00    +0.095 C 
ATOM      4  C   UNL     1      33.118  -7.420 -23.697  0.00  0.00    -0.024 C 
ATOM      5  C   UNL     1      31.052  -7.815 -22.226  0.00  0.00    +0.031 C 
ATOM      6  C   UNL     1      31.642  -9.180 -21.857  0.00  0.00    +0.026 C 
ATOM      7  C   UNL     1      34.253  -6.411 -24.131  0.00  0.00    +0.010 C 
ATOM      8  C   UNL     1      31.613  -5.459 -23.037  0.00  0.00    +0.001 C 
ATOM      9  C   UNL     1      32.579  -9.680 -22.962  0.00  0.00    -0.073 C 
ATOM     10  C   UNL     1      32.422  -4.711 -23.903  0.00  0.00    +0.009 C 
ATOM     11  C   UNL     1      33.666  -5.078 -24.455  0.00  0.00    -0.008 C 
ATOM     12  C   UNL     1      32.075  -3.452 -24.359  0.00  0.00    +0.051 C 
ATOM     13  C   UNL     1      34.590  -9.324 -24.208  0.00  0.00    -0.100 C 
ATOM     14  C   UNL     1      30.418  -4.849 -22.631  0.00  0.00    -0.002 C 
ATOM     15  C   UNL     1      34.078  -4.030 -25.242  0.00  0.00    +0.061 C 
ATOM     16  C   UNL     1      30.881  -2.845 -23.973  0.00  0.00    +0.015 C 
ATOM     17  C   UNL     1      30.061  -3.573 -23.096  0.00  0.00    +0.001 C 
ATOM     18  C   UNL     1      33.176  -1.787 -25.880  0.00  0.00    +0.117 C 
ATOM     19  H   UNL     1      34.186  -8.525 -22.388  0.00  0.00    -0.080 HD
ENDROOT
BRANCH   3  20
ATOM     20  O   UNL     1      32.946  -6.557 -21.413  0.00  0.00    -0.354 OA
ATOM     21  C   UNL     1      32.124  -6.344 -20.279  0.00  0.00    +0.174 C 
ENDBRANCH   3  20
BRANCH   6  22
ATOM     22  C   UNL     1      30.527 -10.193 -21.596  0.00  0.00    +0.207 C 
BRANCH  22  23
ATOM     23  O   UNL     1      31.045 -11.492 -21.807  0.00  0.00    -0.445 OA
BRANCH  23  25
ATOM     24  O   UNL     1      31.855 -11.603 -19.655  0.00  0.00    -0.245 OA
ATOM     25  C   UNL     1      31.822 -12.003 -20.809  0.00  0.00    +0.343 C 
BRANCH  25  28
ATOM     26 BR   UNL     1      33.549 -14.957 -24.897  0.00  0.00    -0.047 Br
ATOM     27  N   UNL     1      34.143 -14.928 -20.797  0.00  0.00    -0.242 NA
ATOM     28  C   UNL     1      32.647 -13.134 -21.302  0.00  0.00    +0.095 C 
ATOM     29  C   UNL     1      32.678 -13.427 -22.644  0.00  0.00    +0.016 C 
ATOM     30  C   UNL     1      33.374 -13.884 -20.416  0.00  0.00    +0.105 C 
ATOM     31  C   UNL     1      33.458 -14.494 -23.075  0.00  0.00    +0.054 C 
ATOM     32  C   UNL     1      34.166 -15.207 -22.121  0.00  0.00    +0.106 C 
ENDBRANCH  25  28
ENDBRANCH  23  25
ENDBRANCH  22  23
ENDBRANCH   6  22
TORSDOF 5
ENDMDL
MODEL 7
REMARK VINA RESULT:      -9.9      2.921      9.357
REMARK  Name = 34040
REMARK  5 active torsions:
REMARK  status: ('A' for Active; 'I' for Inactive)
REMARK    1  A    between atoms: C_3  and  O_20
REMARK    2  A    between atoms: C_6  and  C_22
REMARK    3  A    between atoms: C_22  and  O_23
REMARK    4  A    between atoms: O_23  and  C_25
REMARK    5  A    between atoms: C_25  and  C_28
REMARK                            x       y       z     vdW  Elec       q    Type
REMARK                         _______ _______ _______ _____ _____    ______ ____
ROOT
ATOM      1  N   UNL     1      34.421 -19.171 -23.507  0.00  0.00    +0.389 N 
ATOM      2  N   UNL     1      32.982 -13.363 -24.178  0.00  0.00    -0.284 N 
ATOM      3  C   UNL     1      34.689 -17.135 -22.033  0.00  0.00    +0.095 C 
ATOM      4  C   UNL     1      33.933 -17.787 -23.276  0.00  0.00    -0.024 C 
ATOM      5  C   UNL     1      34.532 -18.030 -20.792  0.00  0.00    +0.031 C 
ATOM      6  C   UNL     1      34.950 -19.474 -21.089  0.00  0.00    +0.026 C 
ATOM      7  C   UNL     1      34.030 -16.892 -24.574  0.00  0.00    +0.010 C 
ATOM      8  C   UNL     1      34.208 -15.709 -21.809  0.00  0.00    +0.001 C 
ATOM      9  C   UNL     1      34.203 -20.011 -22.316  0.00  0.00    -0.073 C 
ATOM     10  C   UNL     1      33.762 -15.009 -22.938  0.00  0.00    +0.009 C 
ATOM     11  C   UNL     1      33.653 -15.483 -24.261  0.00  0.00    -0.008 C 
ATOM     12  C   UNL     1      33.340 -13.693 -22.889  0.00  0.00    +0.051 C 
ATOM     13  C   UNL     1      33.790 -19.814 -24.664  0.00  0.00    -0.100 C 
ATOM     14  C   UNL     1      34.224 -14.991 -20.606  0.00  0.00    -0.002 C 
ATOM     15  C   UNL     1      33.169 -14.442 -25.018  0.00  0.00    +0.061 C 
ATOM     16  C   UNL     1      33.338 -12.976 -21.693  0.00  0.00    +0.015 C 
ATOM     17  C   UNL     1      33.792 -13.656 -20.552  0.00  0.00    +0.001 C 
ATOM     18  C   UNL     1      32.479 -12.075 -24.605  0.00  0.00    +0.117 C 
ATOM     19  H   UNL     1      35.420 -19.086 -23.699  0.00  0.00    -0.080 HD
ENDROOT
BRANCH   3  20
ATOM     20  O   UNL     1      36.083 -17.051 -22.365  0.00  0.00    -0.354 OA
ATOM     21  C   UNL     1      36.849 -17.942 -21.572  0.00  0.00    +0.174 C 
ENDBRANCH   3  20
BRANCH   6  22
ATOM     22  C   UNL     1      34.698 -20.365 -19.873  0.00  0.00    +0.207 C 
BRANCH  22  23
ATOM     23  O   UNL     1      33.531 -21.127 -20.111  0.00  0.00    -0.445 OA
BRANCH  23  25
ATOM     24  O   UNL     1      31.545 -20.213 -19.388  0.00  0.00    -0.245 OA
ATOM     25  C   UNL     1      32.504 -20.953 -19.229  0.00  0.00    +0.343 C 
BRANCH  25  28
ATOM     26 BR   UNL     1      30.396 -23.387 -14.979  0.00  0.00    -0.047 Br
ATOM     27  N   UNL     1      34.189 -23.002 -16.601  0.00  0.00    -0.242 NA
ATOM     28  C   UNL     1      32.694 -21.792 -18.019  0.00  0.00    +0.095 C 
ATOM     29  C   UNL     1      31.615 -22.117 -17.233  0.00  0.00    +0.016 C 
ATOM     30  C   UNL     1      33.946 -22.237 -17.689  0.00  0.00    +0.105 C 
ATOM     31  C   UNL     1      31.825 -22.902 -16.105  0.00  0.00    +0.054 C 
ATOM     32  C   UNL     1      33.120 -23.315 -15.835  0.00  0.00    +0.106 C 
ENDBRANCH  25  28
ENDBRANCH  23  25
ENDBRANCH  22  23
ENDBRANCH   6  22
TORSDOF 5
ENDMDL
MODEL 8
REMARK VINA RESULT:      -9.8      8.171     14.832
REMARK  Name = 34040
REMARK  5 active torsions:
REMARK  status: ('A' for Active; 'I' for Inactive)
REMARK    1  A    between atoms: C_3  and  O_20
REMARK    2  A    between atoms: C_6  and  C_22
REMARK    3  A    between atoms: C_22  and  O_23
REMARK    4  A    between atoms: O_23  and  C_25
REMARK    5  A    between atoms: C_25  and  C_28
REMARK                            x       y       z     vdW  Elec       q    Type
REMARK                         _______ _______ _______ _____ _____    ______ ____
ROOT
ATOM      1  N   UNL     1      34.383  -8.718 -23.631  0.00  0.00    +0.389 N 
ATOM      2  N   UNL     1      32.313  -3.126 -24.467  0.00  0.00    -0.284 N 
ATOM      3  C   UNL     1      32.530  -7.374 -22.557  0.00  0.00    +0.095 C 
ATOM      4  C   UNL     1      33.501  -7.536 -23.812  0.00  0.00    -0.024 C 
ATOM      5  C   UNL     1      31.736  -8.672 -22.334  0.00  0.00    +0.031 C 
ATOM      6  C   UNL     1      32.667  -9.888 -22.252  0.00  0.00    +0.026 C 
ATOM      7  C   UNL     1      34.318  -6.218 -24.111  0.00  0.00    +0.010 C 
ATOM      8  C   UNL     1      31.643  -6.151 -22.729  0.00  0.00    +0.001 C 
ATOM      9  C   UNL     1      33.587  -9.948 -23.476  0.00  0.00    -0.073 C 
ATOM     10  C   UNL     1      32.166  -5.092 -23.483  0.00  0.00    +0.009 C 
ATOM     11  C   UNL     1      33.404  -5.040 -24.155  0.00  0.00    -0.008 C 
ATOM     12  C   UNL     1      31.489  -3.903 -23.683  0.00  0.00    +0.051 C 
ATOM     13  C   UNL     1      35.329  -8.900 -24.736  0.00  0.00    -0.100 C 
ATOM     14  C   UNL     1      30.382  -5.934 -22.157  0.00  0.00    -0.002 C 
ATOM     15  C   UNL     1      33.478  -3.806 -24.758  0.00  0.00    +0.061 C 
ATOM     16  C   UNL     1      30.227  -3.685 -23.131  0.00  0.00    +0.015 C 
ATOM     17  C   UNL     1      29.690  -4.730 -22.362  0.00  0.00    +0.001 C 
ATOM     18  C   UNL     1      32.014  -1.787 -24.928  0.00  0.00    +0.117 C 
ATOM     19  H   UNL     1      34.920  -8.538 -22.783  0.00  0.00    -0.080 HD
ENDROOT
BRANCH   3  20
ATOM     20  O   UNL     1      33.346  -7.132 -21.402  0.00  0.00    -0.354 OA
ATOM     21  C   UNL     1      32.549  -6.844 -20.267  0.00  0.00    +0.174 C 
ENDBRANCH   3  20
BRANCH   6  22
ATOM     22  C   UNL     1      31.853 -11.176 -22.124  0.00  0.00    +0.207 C 
BRANCH  22  23
ATOM     23  O   UNL     1      32.521 -12.198 -22.838  0.00  0.00    -0.445 OA
BRANCH  23  25
ATOM     24  O   UNL     1      33.484 -13.010 -20.911  0.00  0.00    -0.245 OA
ATOM     25  C   UNL     1      33.181 -13.128 -22.088  0.00  0.00    +0.343 C 
BRANCH  25  28
ATOM     26 BR   UNL     1      35.327 -18.000 -22.371  0.00  0.00    -0.047 Br
ATOM     27  N   UNL     1      33.404 -15.446 -25.007  0.00  0.00    -0.242 NA
ATOM     28  C   UNL     1      33.500 -14.333 -22.894  0.00  0.00    +0.095 C 
ATOM     29  C   UNL     1      34.151 -15.395 -22.314  0.00  0.00    +0.016 C 
ATOM     30  C   UNL     1      33.144 -14.382 -24.216  0.00  0.00    +0.105 C 
ATOM     31  C   UNL     1      34.436 -16.508 -23.095  0.00  0.00    +0.054 C 
ATOM     32  C   UNL     1      34.046 -16.485 -24.424  0.00  0.00    +0.106 C 
ENDBRANCH  25  28
ENDBRANCH  23  25
ENDBRANCH  22  23
ENDBRANCH   6  22
TORSDOF 5
ENDMDL
MODEL 9
REMARK VINA RESULT:      -9.7      8.085     14.577
REMARK  Name = 34040
REMARK  5 active torsions:
REMARK  status: ('A' for Active; 'I' for Inactive)
REMARK    1  A    between atoms: C_3  and  O_20
REMARK    2  A    between atoms: C_6  and  C_22
REMARK    3  A    between atoms: C_22  and  O_23
REMARK    4  A    between atoms: O_23  and  C_25
REMARK    5  A    between atoms: C_25  and  C_28
REMARK                            x       y       z     vdW  Elec       q    Type
REMARK                         _______ _______ _______ _____ _____    ______ ____
ROOT
ATOM      1  N   UNL     1      31.097  -9.102 -21.209  0.00  0.00    +0.389 N 
ATOM      2  N   UNL     1      31.450  -3.233 -22.506  0.00  0.00    -0.284 N 
ATOM      3  C   UNL     1      31.763  -7.820 -23.284  0.00  0.00    +0.095 C 
ATOM      4  C   UNL     1      31.547  -7.776 -21.704  0.00  0.00    -0.024 C 
ATOM      5  C   UNL     1      32.740  -8.949 -23.651  0.00  0.00    +0.031 C 
ATOM      6  C   UNL     1      32.303 -10.286 -23.042  0.00  0.00    +0.026 C 
ATOM      7  C   UNL     1      30.577  -6.610 -21.264  0.00  0.00    +0.010 C 
ATOM      8  C   UNL     1      32.200  -6.457 -23.797  0.00  0.00    +0.001 C 
ATOM      9  C   UNL     1      32.086 -10.147 -21.531  0.00  0.00    -0.073 C 
ATOM     10  C   UNL     1      31.759  -5.339 -23.076  0.00  0.00    +0.009 C 
ATOM     11  C   UNL     1      30.997  -5.322 -21.891  0.00  0.00    -0.008 C 
ATOM     12  C   UNL     1      32.043  -4.039 -23.453  0.00  0.00    +0.051 C 
ATOM     13  C   UNL     1      30.844  -9.117 -19.765  0.00  0.00    -0.100 C 
ATOM     14  C   UNL     1      32.942  -6.188 -24.955  0.00  0.00    -0.002 C 
ATOM     15  C   UNL     1      30.811  -4.002 -21.555  0.00  0.00    +0.061 C 
ATOM     16  C   UNL     1      32.794  -3.764 -24.595  0.00  0.00    +0.015 C 
ATOM     17  C   UNL     1      33.236  -4.870 -25.338  0.00  0.00    +0.001 C 
ATOM     18  C   UNL     1      31.483  -1.787 -22.497  0.00  0.00    +0.117 C 
ATOM     19  H   UNL     1      30.216  -9.294 -21.685  0.00  0.00    -0.080 HD
ENDROOT
BRANCH   3  20
ATOM     20  O   UNL     1      30.492  -8.099 -23.889  0.00  0.00    -0.354 OA
ATOM     21  C   UNL     1      30.360  -7.425 -25.129  0.00  0.00    +0.174 C 
ENDBRANCH   3  20
BRANCH   6  22
ATOM     22  C   UNL     1      33.336 -11.373 -23.341  0.00  0.00    +0.207 C 
BRANCH  22  23
ATOM     23  O   UNL     1      32.769 -12.628 -23.020  0.00  0.00    -0.445 OA
BRANCH  23  25
ATOM     24  O   UNL     1      33.912 -13.135 -21.087  0.00  0.00    -0.245 OA
ATOM     25  C   UNL     1      33.505 -13.433 -22.199  0.00  0.00    +0.343 C 
BRANCH  25  28
ATOM     26 BR   UNL     1      35.653 -18.304 -21.914  0.00  0.00    -0.047 Br
ATOM     27  N   UNL     1      33.497 -16.172 -24.737  0.00  0.00    -0.242 NA
ATOM     28  C   UNL     1      33.763 -14.749 -22.835  0.00  0.00    +0.095 C 
ATOM     29  C   UNL     1      34.468 -15.713 -22.157  0.00  0.00    +0.016 C 
ATOM     30  C   UNL     1      33.297 -14.997 -24.100  0.00  0.00    +0.105 C 
ATOM     31  C   UNL     1      34.694 -16.935 -22.780  0.00  0.00    +0.054 C 
ATOM     32  C   UNL     1      34.193 -17.113 -24.060  0.00  0.00    +0.106 C 
ENDBRANCH  25  28
ENDBRANCH  23  25
ENDBRANCH  22  23
ENDBRANCH   6  22
TORSDOF 5
ENDMDL
