MODEL 1
REMARK VINA RESULT:     -11.6      0.000      0.000
REMARK  Name = 24815904
REMARK  5 active torsions:
REMARK  status: ('A' for Active; 'I' for Inactive)
REMARK    1  A    between atoms: C_1  and  C_3
REMARK    2  A    between atoms: C_1  and  C_14
REMARK    3  A    between atoms: C_9  and  O_12
REMARK    4  A    between atoms: C_14  and  N_16
REMARK    5  A    between atoms: C_17  and  C_21
REMARK                            x       y       z     vdW  Elec       q    Type
REMARK                         _______ _______ _______ _____ _____    ______ ____
ROOT
ATOM      1  C   UNL     1      34.915 -18.962 -21.550  0.00  0.00    +0.049 C 
ENDROOT
BRANCH   1   3
ATOM      2  N   UNL     1      32.064 -20.632 -19.995  0.00  0.00    -0.312 N 
ATOM      3  C   UNL     1      33.956 -19.741 -20.742  0.00  0.00    -0.005 C 
ATOM      4  C   UNL     1      34.261 -20.550 -19.611  0.00  0.00    +0.014 C 
ATOM      5  C   UNL     1      33.057 -21.098 -19.162  0.00  0.00    +0.048 C 
ATOM      6  C   UNL     1      32.597 -19.811 -20.953  0.00  0.00    +0.058 C 
ATOM      7  C   UNL     1      35.449 -20.871 -18.926  0.00  0.00    +0.038 C 
ATOM      8  C   UNL     1      32.983 -21.953 -18.057  0.00  0.00    +0.018 C 
ATOM      9  C   UNL     1      35.390 -21.725 -17.820  0.00  0.00    +0.139 C 
ATOM     10  C   UNL     1      34.174 -22.257 -17.393  0.00  0.00    +0.038 C 
ATOM     11  H   UNL     1      31.109 -20.857 -19.913  0.00  0.00    +0.152 HD
BRANCH   9  12
ATOM     12  O   UNL     1      36.535 -22.038 -17.151  0.00  0.00    -0.471 OA
ATOM     13  C   UNL     1      36.416 -22.324 -15.759  0.00  0.00    +0.252 C 
ENDBRANCH   9  12
ENDBRANCH   1   3
BRANCH   1  14
ATOM     14  C   UNL     1      35.180 -17.542 -21.015  0.00  0.00    +0.095 C 
BRANCH  14  16
ATOM     15  O   UNL     1      34.179 -14.910 -20.300  0.00  0.00    -0.267 OA
ATOM     16  N   UNL     1      34.681 -16.527 -21.903  0.00  0.00    -0.298 N 
ATOM     17  C   UNL     1      34.224 -15.297 -21.463  0.00  0.00    +0.281 C 
ATOM     18  H   UNL     1      34.665 -16.716 -22.870  0.00  0.00    +0.150 HD
BRANCH  17  21
ATOM     19  O   UNL     1      33.523 -13.102 -22.269  0.00  0.00    -0.446 OA
ATOM     20  O   UNL     1      33.012 -14.534 -26.022  0.00  0.00    -0.286 OA
ATOM     21  C   UNL     1      33.769 -14.428 -22.563  0.00  0.00    +0.202 C 
ATOM     22  C   UNL     1      33.623 -14.973 -23.778  0.00  0.00    +0.084 C 
ATOM     23  C   UNL     1      33.166 -14.102 -24.886  0.00  0.00    +0.202 C 
ATOM     24  C   UNL     1      33.099 -12.290 -23.292  0.00  0.00    +0.183 C 
ATOM     25  C   UNL     1      32.905 -12.685 -24.554  0.00  0.00    +0.083 C 
ENDBRANCH  17  21
ENDBRANCH  14  16
ENDBRANCH   1  14
TORSDOF 5
ENDMDL
MODEL 2
REMARK VINA RESULT:     -11.4      1.919      2.610
REMARK  Name = 24815904
REMARK  5 active torsions:
REMARK  status: ('A' for Active; 'I' for Inactive)
REMARK    1  A    between atoms: C_1  and  C_3
REMARK    2  A    between atoms: C_1  and  C_14
REMARK    3  A    between atoms: C_9  and  O_12
REMARK    4  A    between atoms: C_14  and  N_16
REMARK    5  A    between atoms: C_17  and  C_21
REMARK                            x       y       z     vdW  Elec       q    Type
REMARK                         _______ _______ _______ _____ _____    ______ ____
ROOT
ATOM      1  C   UNL     1      33.953 -19.753 -21.010  0.00  0.00    +0.049 C 
ENDROOT
BRANCH   1   3
ATOM      2  N   UNL     1      35.998 -21.369 -18.452  0.00  0.00    -0.312 N 
ATOM      3  C   UNL     1      34.532 -20.489 -19.868  0.00  0.00    -0.005 C 
ATOM      4  C   UNL     1      33.812 -21.193 -18.862  0.00  0.00    +0.014 C 
ATOM      5  C   UNL     1      34.755 -21.735 -17.986  0.00  0.00    +0.048 C 
ATOM      6  C   UNL     1      35.874 -20.616 -19.589  0.00  0.00    +0.058 C 
ATOM      7  C   UNL     1      32.445 -21.420 -18.610  0.00  0.00    +0.038 C 
ATOM      8  C   UNL     1      34.398 -22.496 -16.868  0.00  0.00    +0.018 C 
ATOM      9  C   UNL     1      32.072 -22.179 -17.496  0.00  0.00    +0.139 C 
ATOM     10  C   UNL     1      33.035 -22.709 -16.639  0.00  0.00    +0.038 C 
ATOM     11  H   UNL     1      36.853 -21.614 -18.030  0.00  0.00    +0.152 HD
BRANCH   9  12
ATOM     12  O   UNL     1      30.751 -22.404 -17.248  0.00  0.00    -0.471 OA
ATOM     13  C   UNL     1      30.369 -22.581 -15.885  0.00  0.00    +0.252 C 
ENDBRANCH   9  12
ENDBRANCH   1   3
BRANCH   1  14
ATOM     14  C   UNL     1      35.001 -19.171 -21.978  0.00  0.00    +0.095 C 
BRANCH  14  16
ATOM     15  O   UNL     1      34.990 -16.603 -20.619  0.00  0.00    -0.267 OA
ATOM     16  N   UNL     1      34.594 -17.901 -22.515  0.00  0.00    -0.298 N 
ATOM     17  C   UNL     1      34.626 -16.726 -21.783  0.00  0.00    +0.281 C 
ATOM     18  H   UNL     1      34.279 -17.864 -23.448  0.00  0.00    +0.150 HD
BRANCH  17  21
ATOM     19  O   UNL     1      34.064 -14.353 -21.890  0.00  0.00    -0.446 OA
ATOM     20  O   UNL     1      33.124 -14.650 -25.817  0.00  0.00    -0.286 OA
ATOM     21  C   UNL     1      34.165 -15.558 -22.555  0.00  0.00    +0.202 C 
ATOM     22  C   UNL     1      33.872 -15.733 -23.850  0.00  0.00    +0.084 C 
ATOM     23  C   UNL     1      33.408 -14.561 -24.628  0.00  0.00    +0.202 C 
ATOM     24  C   UNL     1      33.634 -13.262 -22.606  0.00  0.00    +0.183 C 
ATOM     25  C   UNL     1      33.305 -13.278 -23.900  0.00  0.00    +0.083 C 
ENDBRANCH  17  21
ENDBRANCH  14  16
ENDBRANCH   1  14
TORSDOF 5
ENDMDL
MODEL 3
REMARK VINA RESULT:     -11.3      1.071      2.070
REMARK  Name = 24815904
REMARK  5 active torsions:
REMARK  status: ('A' for Active; 'I' for Inactive)
REMARK    1  A    between atoms: C_1  and  C_3
REMARK    2  A    between atoms: C_1  and  C_14
REMARK    3  A    between atoms: C_9  and  O_12
REMARK    4  A    between atoms: C_14  and  N_16
REMARK    5  A    between atoms: C_17  and  C_21
REMARK                            x       y       z     vdW  Elec       q    Type
REMARK                         _______ _______ _______ _____ _____    ______ ____
ROOT
ATOM      1  C   UNL     1      35.074 -18.998 -21.219  0.00  0.00    +0.049 C 
ENDROOT
BRANCH   1   3
ATOM      2  N   UNL     1      32.029 -20.616 -20.015  0.00  0.00    -0.312 N 
ATOM      3  C   UNL     1      34.014 -19.770 -20.540  0.00  0.00    -0.005 C 
ATOM      4  C   UNL     1      34.181 -20.635 -19.422  0.00  0.00    +0.014 C 
ATOM      5  C   UNL     1      32.921 -21.153 -19.113  0.00  0.00    +0.048 C 
ATOM      6  C   UNL     1      32.681 -19.779 -20.881  0.00  0.00    +0.058 C 
ATOM      7  C   UNL     1      35.285 -21.030 -18.642  0.00  0.00    +0.038 C 
ATOM      8  C   UNL     1      32.710 -22.048 -18.058  0.00  0.00    +0.018 C 
ATOM      9  C   UNL     1      35.090 -21.925 -17.584  0.00  0.00    +0.139 C 
ATOM     10  C   UNL     1      33.821 -22.425 -17.298  0.00  0.00    +0.038 C 
ATOM     11  H   UNL     1      31.063 -20.806 -20.034  0.00  0.00    +0.152 HD
BRANCH   9  12
ATOM     12  O   UNL     1      36.154 -22.309 -16.825  0.00  0.00    -0.471 OA
ATOM     13  C   UNL     1      36.952 -21.274 -16.256  0.00  0.00    +0.252 C 
ENDBRANCH   9  12
ENDBRANCH   1   3
BRANCH   1  14
ATOM     14  C   UNL     1      34.824 -18.775 -22.722  0.00  0.00    +0.095 C 
BRANCH  14  16
ATOM     15  O   UNL     1      33.368 -17.779 -25.029  0.00  0.00    -0.267 OA
ATOM     16  N   UNL     1      34.487 -17.409 -23.018  0.00  0.00    -0.298 N 
ATOM     17  C   UNL     1      33.786 -17.033 -24.151  0.00  0.00    +0.281 C 
ATOM     18  H   UNL     1      34.768 -16.708 -22.385  0.00  0.00    +0.150 HD
BRANCH  17  21
ATOM     19  O   UNL     1      33.104 -15.066 -25.425  0.00  0.00    -0.446 OA
ATOM     20  O   UNL     1      33.791 -12.648 -22.251  0.00  0.00    -0.286 OA
ATOM     21  C   UNL     1      33.560 -15.579 -24.228  0.00  0.00    +0.202 C 
ATOM     22  C   UNL     1      33.809 -14.843 -23.137  0.00  0.00    +0.084 C 
ATOM     23  C   UNL     1      33.584 -13.380 -23.212  0.00  0.00    +0.202 C 
ATOM     24  C   UNL     1      32.892 -13.711 -25.501  0.00  0.00    +0.183 C 
ATOM     25  C   UNL     1      33.095 -12.847 -24.502  0.00  0.00    +0.083 C 
ENDBRANCH  17  21
ENDBRANCH  14  16
ENDBRANCH   1  14
TORSDOF 5
ENDMDL
MODEL 4
REMARK VINA RESULT:     -11.3      2.263      3.101
REMARK  Name = 24815904
REMARK  5 active torsions:
REMARK  status: ('A' for Active; 'I' for Inactive)
REMARK    1  A    between atoms: C_1  and  C_3
REMARK    2  A    between atoms: C_1  and  C_14
REMARK    3  A    between atoms: C_9  and  O_12
REMARK    4  A    between atoms: C_14  and  N_16
REMARK    5  A    between atoms: C_17  and  C_21
REMARK                            x       y       z     vdW  Elec       q    Type
REMARK                         _______ _______ _______ _____ _____    ______ ____
ROOT
ATOM      1  C   UNL     1      33.955 -17.748 -22.820  0.00  0.00    +0.049 C 
ENDROOT
BRANCH   1   3
ATOM      2  N   UNL     1      36.759 -18.957 -20.816  0.00  0.00    -0.312 N 
ATOM      3  C   UNL     1      34.894 -18.398 -21.883  0.00  0.00    -0.005 C 
ATOM      4  C   UNL     1      34.570 -19.378 -20.903  0.00  0.00    +0.014 C 
ATOM      5  C   UNL     1      35.757 -19.711 -20.247  0.00  0.00    +0.048 C 
ATOM      6  C   UNL     1      36.247 -18.160 -21.806  0.00  0.00    +0.058 C 
ATOM      7  C   UNL     1      33.376 -20.014 -20.507  0.00  0.00    +0.038 C 
ATOM      8  C   UNL     1      35.811 -20.652 -19.213  0.00  0.00    +0.018 C 
ATOM      9  C   UNL     1      33.415 -20.957 -19.475  0.00  0.00    +0.139 C 
ATOM     10  C   UNL     1      34.614 -21.270 -18.839  0.00  0.00    +0.038 C 
ATOM     11  H   UNL     1      37.707 -18.986 -20.550  0.00  0.00    +0.152 HD
BRANCH   9  12
ATOM     12  O   UNL     1      32.264 -21.577 -19.089  0.00  0.00    -0.471 OA
ATOM     13  C   UNL     1      32.249 -22.163 -17.789  0.00  0.00    +0.252 C 
ENDBRANCH   9  12
ENDBRANCH   1   3
BRANCH   1  14
ATOM     14  C   UNL     1      34.535 -16.512 -23.532  0.00  0.00    +0.095 C 
BRANCH  14  16
ATOM     15  O   UNL     1      34.416 -15.251 -20.918  0.00  0.00    -0.267 OA
ATOM     16  N   UNL     1      33.838 -15.306 -23.176  0.00  0.00    -0.298 N 
ATOM     17  C   UNL     1      33.842 -14.782 -21.895  0.00  0.00    +0.281 C 
ATOM     18  H   UNL     1      33.335 -14.830 -23.877  0.00  0.00    +0.150 HD
BRANCH  17  21
ATOM     19  O   UNL     1      32.284 -13.372 -20.653  0.00  0.00    -0.446 OA
ATOM     20  O   UNL     1      32.393 -10.535 -23.540  0.00  0.00    -0.286 OA
ATOM     21  C   UNL     1      33.059 -13.538 -21.782  0.00  0.00    +0.202 C 
ATOM     22  C   UNL     1      33.146 -12.646 -22.778  0.00  0.00    +0.084 C 
ATOM     23  C   UNL     1      32.360 -11.395 -22.667  0.00  0.00    +0.202 C 
ATOM     24  C   UNL     1      31.552 -12.214 -20.545  0.00  0.00    +0.183 C 
ATOM     25  C   UNL     1      31.534 -11.233 -21.451  0.00  0.00    +0.083 C 
ENDBRANCH  17  21
ENDBRANCH  14  16
ENDBRANCH   1  14
TORSDOF 5
ENDMDL
MODEL 5
REMARK VINA RESULT:     -11.1      2.712      8.984
REMARK  Name = 24815904
REMARK  5 active torsions:
REMARK  status: ('A' for Active; 'I' for Inactive)
REMARK    1  A    between atoms: C_1  and  C_3
REMARK    2  A    between atoms: C_1  and  C_14
REMARK    3  A    between atoms: C_9  and  O_12
REMARK    4  A    between atoms: C_14  and  N_16
REMARK    5  A    between atoms: C_17  and  C_21
REMARK                            x       y       z     vdW  Elec       q    Type
REMARK                         _______ _______ _______ _____ _____    ______ ____
ROOT
ATOM      1  C   UNL     1      33.885 -14.971 -21.110  0.00  0.00    +0.049 C 
ENDROOT
BRANCH   1   3
ATOM      2  N   UNL     1      33.278 -12.760 -23.953  0.00  0.00    -0.312 N 
ATOM      3  C   UNL     1      33.509 -13.913 -22.069  0.00  0.00    -0.005 C 
ATOM      4  C   UNL     1      32.794 -12.718 -21.775  0.00  0.00    +0.014 C 
ATOM      5  C   UNL     1      32.662 -12.013 -22.974  0.00  0.00    +0.048 C 
ATOM      6  C   UNL     1      33.794 -13.910 -23.415  0.00  0.00    +0.058 C 
ATOM      7  C   UNL     1      32.242 -12.167 -20.601  0.00  0.00    +0.038 C 
ATOM      8  C   UNL     1      32.004 -10.781 -23.057  0.00  0.00    +0.018 C 
ATOM      9  C   UNL     1      31.582 -10.936 -20.669  0.00  0.00    +0.139 C 
ATOM     10  C   UNL     1      31.466 -10.255 -21.880  0.00  0.00    +0.038 C 
ATOM     11  H   UNL     1      33.340 -12.505 -24.902  0.00  0.00    +0.152 HD
BRANCH   9  12
ATOM     12  O   UNL     1      31.048 -10.397 -19.538  0.00  0.00    -0.471 OA
ATOM     13  C   UNL     1      31.138  -8.982 -19.389  0.00  0.00    +0.252 C 
ENDBRANCH   9  12
ENDBRANCH   1   3
BRANCH   1  14
ATOM     14  C   UNL     1      34.704 -16.118 -21.729  0.00  0.00    +0.095 C 
BRANCH  14  16
ATOM     15  O   UNL     1      34.386 -18.838 -22.697  0.00  0.00    -0.267 OA
ATOM     16  N   UNL     1      34.630 -17.321 -20.944  0.00  0.00    -0.298 N 
ATOM     17  C   UNL     1      34.478 -18.578 -21.503  0.00  0.00    +0.281 C 
ATOM     18  H   UNL     1      34.692 -17.247 -19.964  0.00  0.00    +0.150 HD
BRANCH  17  21
ATOM     19  O   UNL     1      35.631 -20.064 -19.948  0.00  0.00    -0.446 OA
ATOM     20  O   UNL     1      32.130 -21.749 -18.806  0.00  0.00    -0.286 OA
ATOM     21  C   UNL     1      34.433 -19.651 -20.494  0.00  0.00    +0.202 C 
ATOM     22  C   UNL     1      33.237 -20.161 -20.167  0.00  0.00    +0.084 C 
ATOM     23  C   UNL     1      33.190 -21.239 -19.153  0.00  0.00    +0.202 C 
ATOM     24  C   UNL     1      35.593 -21.065 -19.006  0.00  0.00    +0.183 C 
ATOM     25  C   UNL     1      34.482 -21.671 -18.578  0.00  0.00    +0.083 C 
ENDBRANCH  17  21
ENDBRANCH  14  16
ENDBRANCH   1  14
TORSDOF 5
ENDMDL
MODEL 6
REMARK VINA RESULT:     -11.1      4.386      7.456
REMARK  Name = 24815904
REMARK  5 active torsions:
REMARK  status: ('A' for Active; 'I' for Inactive)
REMARK    1  A    between atoms: C_1  and  C_3
REMARK    2  A    between atoms: C_1  and  C_14
REMARK    3  A    between atoms: C_9  and  O_12
REMARK    4  A    between atoms: C_14  and  N_16
REMARK    5  A    between atoms: C_17  and  C_21
REMARK                            x       y       z     vdW  Elec       q    Type
REMARK                         _______ _______ _______ _____ _____    ______ ____
ROOT
ATOM      1  C   UNL     1      32.675 -12.316 -21.332  0.00  0.00    +0.049 C 
ENDROOT
BRANCH   1   3
ATOM      2  N   UNL     1      32.963 -14.119 -24.495  0.00  0.00    -0.312 N 
ATOM      3  C   UNL     1      32.923 -13.242 -22.455  0.00  0.00    -0.005 C 
ATOM      4  C   UNL     1      33.582 -14.501 -22.385  0.00  0.00    +0.014 C 
ATOM      5  C   UNL     1      33.593 -15.031 -23.677  0.00  0.00    +0.048 C 
ATOM      6  C   UNL     1      32.554 -13.034 -23.765  0.00  0.00    +0.058 C 
ATOM      7  C   UNL     1      34.172 -15.244 -21.343  0.00  0.00    +0.038 C 
ATOM      8  C   UNL     1      34.168 -16.270 -23.981  0.00  0.00    +0.018 C 
ATOM      9  C   UNL     1      34.750 -16.485 -21.632  0.00  0.00    +0.139 C 
ATOM     10  C   UNL     1      34.746 -16.989 -22.931  0.00  0.00    +0.038 C 
ATOM     11  H   UNL     1      32.826 -14.231 -25.463  0.00  0.00    +0.152 HD
BRANCH   9  12
ATOM     12  O   UNL     1      35.321 -17.209 -20.628  0.00  0.00    -0.471 OA
ATOM     13  C   UNL     1      36.104 -18.338 -21.009  0.00  0.00    +0.252 C 
ENDBRANCH   9  12
ENDBRANCH   1   3
BRANCH   1  14
ATOM     14  C   UNL     1      31.251 -11.729 -21.304  0.00  0.00    +0.095 C 
BRANCH  14  16
ATOM     15  O   UNL     1      31.756  -9.639 -23.258  0.00  0.00    -0.267 OA
ATOM     16  N   UNL     1      31.255 -10.309 -21.081  0.00  0.00    -0.298 N 
ATOM     17  C   UNL     1      31.508  -9.388 -22.084  0.00  0.00    +0.281 C 
ATOM     18  H   UNL     1      31.068  -9.975 -20.173  0.00  0.00    +0.150 HD
BRANCH  17  21
ATOM     19  O   UNL     1      30.724  -7.093 -22.358  0.00  0.00    -0.446 OA
ATOM     20  O   UNL     1      32.629  -5.933 -18.979  0.00  0.00    -0.286 OA
ATOM     21  C   UNL     1      31.452  -7.994 -21.608  0.00  0.00    +0.202 C 
ATOM     22  C   UNL     1      32.108  -7.685 -20.482  0.00  0.00    +0.084 C 
ATOM     23  C   UNL     1      32.053  -6.284 -20.002  0.00  0.00    +0.202 C 
ATOM     24  C   UNL     1      30.669  -5.793 -21.918  0.00  0.00    +0.183 C 
ATOM     25  C   UNL     1      31.269  -5.331 -20.816  0.00  0.00    +0.083 C 
ENDBRANCH  17  21
ENDBRANCH  14  16
ENDBRANCH   1  14
TORSDOF 5
ENDMDL
MODEL 7
REMARK VINA RESULT:     -11.0      1.506      2.293
REMARK  Name = 24815904
REMARK  5 active torsions:
REMARK  status: ('A' for Active; 'I' for Inactive)
REMARK    1  A    between atoms: C_1  and  C_3
REMARK    2  A    between atoms: C_1  and  C_14
REMARK    3  A    between atoms: C_9  and  O_12
REMARK    4  A    between atoms: C_14  and  N_16
REMARK    5  A    between atoms: C_17  and  C_21
REMARK                            x       y       z     vdW  Elec       q    Type
REMARK                         _______ _______ _______ _____ _____    ______ ____
ROOT
ATOM      1  C   UNL     1      35.110 -20.205 -20.111  0.00  0.00    +0.049 C 
ENDROOT
BRANCH   1   3
ATOM      2  N   UNL     1      32.455 -22.086 -18.454  0.00  0.00    -0.312 N 
ATOM      3  C   UNL     1      34.232 -21.014 -19.243  0.00  0.00    -0.005 C 
ATOM      4  C   UNL     1      34.589 -21.616 -18.003  0.00  0.00    +0.014 C 
ATOM      5  C   UNL     1      33.456 -22.282 -17.530  0.00  0.00    +0.048 C 
ATOM      6  C   UNL     1      32.914 -21.321 -19.493  0.00  0.00    +0.058 C 
ATOM      7  C   UNL     1      35.770 -21.659 -17.236  0.00  0.00    +0.038 C 
ATOM      8  C   UNL     1      33.447 -22.991 -16.323  0.00  0.00    +0.018 C 
ATOM      9  C   UNL     1      35.775 -22.364 -16.028  0.00  0.00    +0.139 C 
ATOM     10  C   UNL     1      34.630 -23.019 -15.580  0.00  0.00    +0.038 C 
ATOM     11  H   UNL     1      31.541 -22.444 -18.379  0.00  0.00    +0.152 HD
BRANCH   9  12
ATOM     12  O   UNL     1      36.914 -22.408 -15.281  0.00  0.00    -0.471 OA
ATOM     13  C   UNL     1      37.107 -23.559 -14.462  0.00  0.00    +0.252 C 
ENDBRANCH   9  12
ENDBRANCH   1   3
BRANCH   1  14
ATOM     14  C   UNL     1      34.477 -19.821 -21.462  0.00  0.00    +0.095 C 
BRANCH  14  16
ATOM     15  O   UNL     1      36.309 -17.627 -21.977  0.00  0.00    -0.267 OA
ATOM     16  N   UNL     1      34.162 -18.420 -21.533  0.00  0.00    -0.298 N 
ATOM     17  C   UNL     1      35.112 -17.445 -21.786  0.00  0.00    +0.281 C 
ATOM     18  H   UNL     1      33.227 -18.141 -21.397  0.00  0.00    +0.150 HD
BRANCH  17  21
ATOM     19  O   UNL     1      34.346 -15.452 -20.604  0.00  0.00    -0.446 OA
ATOM     20  O   UNL     1      33.396 -13.627 -24.092  0.00  0.00    -0.286 OA
ATOM     21  C   UNL     1      34.544 -16.085 -21.814  0.00  0.00    +0.202 C 
ATOM     22  C   UNL     1      34.254 -15.547 -23.006  0.00  0.00    +0.084 C 
ATOM     23  C   UNL     1      33.683 -14.180 -23.036  0.00  0.00    +0.202 C 
ATOM     24  C   UNL     1      33.816 -14.184 -20.626  0.00  0.00    +0.183 C 
ATOM     25  C   UNL     1      33.476 -13.515 -21.732  0.00  0.00    +0.083 C 
ENDBRANCH  17  21
ENDBRANCH  14  16
ENDBRANCH   1  14
TORSDOF 5
ENDMDL
MODEL 8
REMARK VINA RESULT:     -11.0      2.645      3.955
REMARK  Name = 24815904
REMARK  5 active torsions:
REMARK  status: ('A' for Active; 'I' for Inactive)
REMARK    1  A    between atoms: C_1  and  C_3
REMARK    2  A    between atoms: C_1  and  C_14
REMARK    3  A    between atoms: C_9  and  O_12
REMARK    4  A    between atoms: C_14  and  N_16
REMARK    5  A    between atoms: C_17  and  C_21
REMARK                            x       y       z     vdW  Elec       q    Type
REMARK                         _______ _______ _______ _____ _____    ______ ____
ROOT
ATOM      1  C   UNL     1      33.935 -21.165 -19.319  0.00  0.00    +0.049 C 
ENDROOT
BRANCH   1   3
ATOM      2  N   UNL     1      35.751 -22.135 -16.303  0.00  0.00    -0.312 N 
ATOM      3  C   UNL     1      34.417 -21.653 -18.012  0.00  0.00    -0.005 C 
ATOM      4  C   UNL     1      33.637 -22.283 -17.002  0.00  0.00    +0.014 C 
ATOM      5  C   UNL     1      34.497 -22.575 -15.941  0.00  0.00    +0.048 C 
ATOM      6  C   UNL     1      35.713 -21.577 -17.553  0.00  0.00    +0.058 C 
ATOM      7  C   UNL     1      32.277 -22.632 -16.887  0.00  0.00    +0.038 C 
ATOM      8  C   UNL     1      34.063 -23.202 -14.768  0.00  0.00    +0.018 C 
ATOM      9  C   UNL     1      31.829 -23.259 -15.720  0.00  0.00    +0.139 C 
ATOM     10  C   UNL     1      32.710 -23.539 -14.677  0.00  0.00    +0.038 C 
ATOM     11  H   UNL     1      36.558 -22.212 -15.745  0.00  0.00    +0.152 HD
BRANCH   9  12
ATOM     12  O   UNL     1      30.515 -23.601 -15.603  0.00  0.00    -0.471 OA
ATOM     13  C   UNL     1      29.554 -22.579 -15.857  0.00  0.00    +0.252 C 
ENDBRANCH   9  12
ENDBRANCH   1   3
BRANCH   1  14
ATOM     14  C   UNL     1      35.038 -20.570 -20.214  0.00  0.00    +0.095 C 
BRANCH  14  16
ATOM     15  O   UNL     1      36.741 -18.227 -20.440  0.00  0.00    -0.267 OA
ATOM     16  N   UNL     1      34.678 -19.276 -20.728  0.00  0.00    -0.298 N 
ATOM     17  C   UNL     1      35.567 -18.217 -20.795  0.00  0.00    +0.281 C 
ATOM     18  H   UNL     1      33.757 -19.137 -21.048  0.00  0.00    +0.150 HD
BRANCH  17  21
ATOM     19  O   UNL     1      34.537 -16.026 -20.481  0.00  0.00    -0.446 OA
ATOM     20  O   UNL     1      34.140 -15.529 -24.479  0.00  0.00    -0.286 OA
ATOM     21  C   UNL     1      34.964 -16.998 -21.363  0.00  0.00    +0.202 C 
ATOM     22  C   UNL     1      34.866 -16.904 -22.696  0.00  0.00    +0.084 C 
ATOM     23  C   UNL     1      34.260 -15.680 -23.269  0.00  0.00    +0.202 C 
ATOM     24  C   UNL     1      33.974 -14.889 -21.006  0.00  0.00    +0.183 C 
ATOM     25  C   UNL     1      33.807 -14.650 -22.310  0.00  0.00    +0.083 C 
ENDBRANCH  17  21
ENDBRANCH  14  16
ENDBRANCH   1  14
TORSDOF 5
ENDMDL
MODEL 9
REMARK VINA RESULT:     -10.8      1.945      8.785
REMARK  Name = 24815904
REMARK  5 active torsions:
REMARK  status: ('A' for Active; 'I' for Inactive)
REMARK    1  A    between atoms: C_1  and  C_3
REMARK    2  A    between atoms: C_1  and  C_14
REMARK    3  A    between atoms: C_9  and  O_12
REMARK    4  A    between atoms: C_14  and  N_16
REMARK    5  A    between atoms: C_17  and  C_21
REMARK                            x       y       z     vdW  Elec       q    Type
REMARK                         _______ _______ _______ _____ _____    ______ ____
ROOT
ATOM      1  C   UNL     1      35.355 -17.727 -20.963  0.00  0.00    +0.049 C 
ENDROOT
BRANCH   1   3
ATOM      2  N   UNL     1      33.802 -17.790 -24.268  0.00  0.00    -0.312 N 
ATOM      3  C   UNL     1      34.702 -17.473 -22.262  0.00  0.00    -0.005 C 
ATOM      4  C   UNL     1      34.272 -16.212 -22.762  0.00  0.00    +0.014 C 
ATOM      5  C   UNL     1      33.711 -16.439 -24.021  0.00  0.00    +0.048 C 
ATOM      6  C   UNL     1      34.400 -18.424 -23.210  0.00  0.00    +0.058 C 
ATOM      7  C   UNL     1      34.304 -14.895 -22.262  0.00  0.00    +0.038 C 
ATOM      8  C   UNL     1      33.180 -15.410 -24.807  0.00  0.00    +0.018 C 
ATOM      9  C   UNL     1      33.777 -13.857 -23.037  0.00  0.00    +0.139 C 
ATOM     10  C   UNL     1      33.224 -14.112 -24.291  0.00  0.00    +0.038 C 
ATOM     11  H   UNL     1      33.485 -18.237 -25.086  0.00  0.00    +0.152 HD
BRANCH   9  12
ATOM     12  O   UNL     1      33.807 -12.581 -22.560  0.00  0.00    -0.471 OA
ATOM     13  C   UNL     1      33.187 -11.576 -23.360  0.00  0.00    +0.252 C 
ENDBRANCH   9  12
ENDBRANCH   1   3
BRANCH   1  14
ATOM     14  C   UNL     1      36.302 -18.942 -20.963  0.00  0.00    +0.095 C 
BRANCH  14  16
ATOM     15  O   UNL     1      34.105 -20.717 -20.287  0.00  0.00    -0.267 OA
ATOM     16  N   UNL     1      36.159 -19.740 -19.775  0.00  0.00    -0.298 N 
ATOM     17  C   UNL     1      35.067 -20.560 -19.544  0.00  0.00    +0.281 C 
ATOM     18  H   UNL     1      36.871 -19.703 -19.095  0.00  0.00    +0.150 HD
BRANCH  17  21
ATOM     19  O   UNL     1      34.026 -21.947 -17.827  0.00  0.00    -0.446 OA
ATOM     20  O   UNL     1      37.433 -21.969 -15.638  0.00  0.00    -0.286 OA
ATOM     21  C   UNL     1      35.152 -21.278 -18.260  0.00  0.00    +0.202 C 
ATOM     22  C   UNL     1      36.313 -21.240 -17.592  0.00  0.00    +0.084 C 
ATOM     23  C   UNL     1      36.401 -21.961 -16.301  0.00  0.00    +0.202 C 
ATOM     24  C   UNL     1      34.102 -22.618 -16.630  0.00  0.00    +0.183 C 
ATOM     25  C   UNL     1      35.186 -22.672 -15.851  0.00  0.00    +0.083 C 
ENDBRANCH  17  21
ENDBRANCH  14  16
ENDBRANCH   1  14
TORSDOF 5
ENDMDL
