MODEL 1
REMARK VINA RESULT:     -12.5      0.000      0.000
REMARK  Name = 9963057
REMARK  12 active torsions:
REMARK  status: ('A' for Active; 'I' for Inactive)
REMARK    1  A    between atoms: N_1  and  C_4
REMARK    2  A    between atoms: N_1  and  C_21
REMARK    3  A    between atoms: C_12  and  O_14
REMARK    4  A    between atoms: O_14  and  C_15
REMARK    5  A    between atoms: C_15  and  C_18
REMARK    6  A    between atoms: C_21  and  C_22
REMARK    7  A    between atoms: C_22  and  C_23
REMARK    8  A    between atoms: C_22  and  O_35
REMARK    9  A    between atoms: C_26  and  C_31
REMARK   10  A    between atoms: C_28  and  O_29
REMARK   11  A    between atoms: C_31  and  C_32
REMARK   12  A    between atoms: C_32  and  O_33
REMARK                            x       y       z     vdW  Elec       q    Type
REMARK                         _______ _______ _______ _____ _____    ______ ____
ROOT
ATOM      1  N   UNL     1      32.400 -22.084 -18.431  0.00  0.00    +0.387 N 
ATOM      2  H   UNL     1      32.122 -22.620 -19.253  0.00  0.00    -0.084 HD
ATOM      3  H   UNL     1      31.592 -21.608 -18.028  0.00  0.00    -0.084 HD
ENDROOT
BRANCH   1   4
ATOM      4  C   UNL     1      33.386 -21.078 -18.825  0.00  0.00    -0.057 C 
ATOM      5  C   UNL     1      34.783 -21.701 -18.868  0.00  0.00    -0.016 C 
ATOM      6  C   UNL     1      33.033 -20.491 -20.198  0.00  0.00    +0.005 C 
ATOM      7  C   UNL     1      35.833 -20.631 -19.168  0.00  0.00    +0.024 C 
ATOM      8  C   UNL     1      34.132 -19.632 -20.775  0.00  0.00    -0.025 C 
ATOM      9  C   UNL     1      35.459 -19.729 -20.317  0.00  0.00    -0.026 C 
ATOM     10  C   UNL     1      33.831 -18.761 -21.833  0.00  0.00    +0.032 C 
ATOM     11  C   UNL     1      36.450 -18.927 -20.902  0.00  0.00    -0.001 C 
ATOM     12  C   UNL     1      34.828 -17.976 -22.414  0.00  0.00    +0.139 C 
ATOM     13  C   UNL     1      36.136 -18.058 -21.946  0.00  0.00    +0.037 C 
BRANCH  12  14
ATOM     14  O   UNL     1      34.521 -17.133 -23.436  0.00  0.00    -0.466 OA
BRANCH  14  15
ATOM     15  C   UNL     1      34.286 -15.766 -23.103  0.00  0.00    +0.290 C 
BRANCH  15  18
ATOM     16  O   UNL     1      33.379 -15.713 -25.291  0.00  0.00    -0.271 OA
ATOM     17  N   UNL     1      33.306 -13.714 -24.111  0.00  0.00    -0.273 N 
ATOM     18  C   UNL     1      33.620 -15.065 -24.268  0.00  0.00    +0.270 C 
ATOM     19  C   UNL     1      32.656 -12.998 -25.201  0.00  0.00    +0.115 C 
ATOM     20  C   UNL     1      33.562 -12.919 -22.913  0.00  0.00    +0.115 C 
ENDBRANCH  15  18
ENDBRANCH  14  15
ENDBRANCH  12  14
ENDBRANCH   1   4
BRANCH   1  21
ATOM     21  C   UNL     1      32.956 -22.988 -17.436  0.00  0.00    -0.047 C 
BRANCH  21  22
ATOM     22  C   UNL     1      32.652 -22.491 -16.018  0.00  0.00    +0.112 C 
BRANCH  22  23
ATOM     23  C   UNL     1      31.476 -23.226 -15.413  0.00  0.00    +0.002 C 
ATOM     24  C   UNL     1      30.196 -23.042 -15.936  0.00  0.00    -0.003 C 
ATOM     25  C   UNL     1      31.671 -24.086 -14.333  0.00  0.00    +0.001 C 
ATOM     26  C   UNL     1      29.112 -23.720 -15.379  0.00  0.00    +0.014 C 
ATOM     27  C   UNL     1      30.587 -24.762 -13.774  0.00  0.00    +0.036 C 
ATOM     28  C   UNL     1      29.307 -24.579 -14.297  0.00  0.00    +0.130 C 
BRANCH  28  29
ATOM     29  O   UNL     1      28.259 -25.249 -13.741  0.00  0.00    -0.506 OA
ATOM     30  H   UNL     1      27.890 -25.990 -14.181  0.00  0.00    +0.292 HD
ENDBRANCH  28  29
BRANCH  26  31
ATOM     31  C   UNL     1      27.748 -23.513 -15.951  0.00  0.00    +0.061 C 
BRANCH  31  32
ATOM     32  C   UNL     1      27.142 -22.159 -15.571  0.00  0.00    +0.142 C 
BRANCH  32  33
ATOM     33  O   UNL     1      26.966 -21.371 -16.742  0.00  0.00    -0.382 OA
ATOM     34  H   UNL     1      27.004 -21.943 -17.525  0.00  0.00    +0.210 HD
ENDBRANCH  32  33
ENDBRANCH  31  32
ENDBRANCH  26  31
ENDBRANCH  22  23
BRANCH  22  35
ATOM     35  O   UNL     1      33.784 -22.686 -15.171  0.00  0.00    -0.382 OA
ATOM     36  H   UNL     1      34.322 -21.880 -15.160  0.00  0.00    +0.211 HD
ENDBRANCH  22  35
ENDBRANCH  21  22
ENDBRANCH   1  21
TORSDOF 12
ENDMDL
MODEL 2
REMARK VINA RESULT:     -12.5      4.076     10.919
REMARK  Name = 9963057
REMARK  12 active torsions:
REMARK  status: ('A' for Active; 'I' for Inactive)
REMARK    1  A    between atoms: N_1  and  C_4
REMARK    2  A    between atoms: N_1  and  C_21
REMARK    3  A    between atoms: C_12  and  O_14
REMARK    4  A    between atoms: O_14  and  C_15
REMARK    5  A    between atoms: C_15  and  C_18
REMARK    6  A    between atoms: C_21  and  C_22
REMARK    7  A    between atoms: C_22  and  C_23
REMARK    8  A    between atoms: C_22  and  O_35
REMARK    9  A    between atoms: C_26  and  C_31
REMARK   10  A    between atoms: C_28  and  O_29
REMARK   11  A    between atoms: C_31  and  C_32
REMARK   12  A    between atoms: C_32  and  O_33
REMARK                            x       y       z     vdW  Elec       q    Type
REMARK                         _______ _______ _______ _____ _____    ______ ____
ROOT
ATOM      1  N   UNL     1      34.465 -20.161 -21.133  0.00  0.00    +0.387 N 
ATOM      2  H   UNL     1      33.972 -20.831 -21.723  0.00  0.00    -0.084 HD
ATOM      3  H   UNL     1      35.464 -20.171 -21.343  0.00  0.00    -0.084 HD
ENDROOT
BRANCH   1   4
ATOM      4  C   UNL     1      34.278 -20.530 -19.730  0.00  0.00    -0.057 C 
ATOM      5  C   UNL     1      33.258 -21.665 -19.617  0.00  0.00    -0.016 C 
ATOM      6  C   UNL     1      35.611 -20.961 -19.107  0.00  0.00    +0.005 C 
ATOM      7  C   UNL     1      32.972 -21.978 -18.148  0.00  0.00    +0.024 C 
ATOM      8  C   UNL     1      35.452 -21.586 -17.742  0.00  0.00    -0.025 C 
ATOM      9  C   UNL     1      34.218 -22.102 -17.308  0.00  0.00    -0.026 C 
ATOM     10  C   UNL     1      36.579 -21.706 -16.913  0.00  0.00    +0.032 C 
ATOM     11  C   UNL     1      34.126 -22.696 -16.040  0.00  0.00    -0.001 C 
ATOM     12  C   UNL     1      36.477 -22.308 -15.659  0.00  0.00    +0.139 C 
ATOM     13  C   UNL     1      35.250 -22.800 -15.222  0.00  0.00    +0.037 C 
BRANCH  12  14
ATOM     14  O   UNL     1      37.576 -22.414 -14.864  0.00  0.00    -0.466 OA
BRANCH  14  15
ATOM     15  C   UNL     1      38.175 -23.704 -14.753  0.00  0.00    +0.290 C 
BRANCH  15  18
ATOM     16  O   UNL     1      38.363 -23.655 -12.391  0.00  0.00    -0.271 OA
ATOM     17  N   UNL     1      37.191 -25.451 -13.280  0.00  0.00    -0.273 N 
ATOM     18  C   UNL     1      37.923 -24.266 -13.369  0.00  0.00    +0.270 C 
ATOM     19  C   UNL     1      36.915 -26.026 -11.970  0.00  0.00    +0.115 C 
ATOM     20  C   UNL     1      36.643 -26.194 -14.412  0.00  0.00    +0.115 C 
ENDBRANCH  15  18
ENDBRANCH  14  15
ENDBRANCH  12  14
ENDBRANCH   1   4
BRANCH   1  21
ATOM     21  C   UNL     1      33.947 -18.826 -21.389  0.00  0.00    -0.047 C 
BRANCH  21  22
ATOM     22  C   UNL     1      35.086 -17.854 -21.719  0.00  0.00    +0.112 C 
BRANCH  22  23
ATOM     23  C   UNL     1      34.558 -16.558 -22.296  0.00  0.00    +0.002 C 
ATOM     24  C   UNL     1      34.261 -15.489 -21.451  0.00  0.00    -0.003 C 
ATOM     25  C   UNL     1      34.370 -16.433 -23.672  0.00  0.00    +0.001 C 
ATOM     26  C   UNL     1      33.775 -14.295 -21.983  0.00  0.00    +0.014 C 
ATOM     27  C   UNL     1      33.882 -15.240 -24.204  0.00  0.00    +0.036 C 
ATOM     28  C   UNL     1      33.585 -14.171 -23.359  0.00  0.00    +0.130 C 
BRANCH  28  29
ATOM     29  O   UNL     1      33.111 -13.011 -23.895  0.00  0.00    -0.506 OA
ATOM     30  H   UNL     1      33.288 -12.802 -24.792  0.00  0.00    +0.292 HD
ENDBRANCH  28  29
BRANCH  26  31
ATOM     31  C   UNL     1      33.461 -13.160 -21.065  0.00  0.00    +0.061 C 
BRANCH  31  32
ATOM     32  C   UNL     1      31.997 -13.143 -20.617  0.00  0.00    +0.142 C 
BRANCH  32  33
ATOM     33  O   UNL     1      31.238 -12.327 -21.501  0.00  0.00    -0.382 OA
ATOM     34  H   UNL     1      31.408 -11.392 -21.303  0.00  0.00    +0.210 HD
ENDBRANCH  32  33
ENDBRANCH  31  32
ENDBRANCH  26  31
ENDBRANCH  22  23
BRANCH  22  35
ATOM     35  O   UNL     1      35.833 -17.547 -20.542  0.00  0.00    -0.382 OA
ATOM     36  H   UNL     1      35.243 -17.563 -19.772  0.00  0.00    +0.211 HD
ENDBRANCH  22  35
ENDBRANCH  21  22
ENDBRANCH   1  21
TORSDOF 12
ENDMDL
MODEL 3
REMARK VINA RESULT:     -12.3      3.697     10.944
REMARK  Name = 9963057
REMARK  12 active torsions:
REMARK  status: ('A' for Active; 'I' for Inactive)
REMARK    1  A    between atoms: N_1  and  C_4
REMARK    2  A    between atoms: N_1  and  C_21
REMARK    3  A    between atoms: C_12  and  O_14
REMARK    4  A    between atoms: O_14  and  C_15
REMARK    5  A    between atoms: C_15  and  C_18
REMARK    6  A    between atoms: C_21  and  C_22
REMARK    7  A    between atoms: C_22  and  C_23
REMARK    8  A    between atoms: C_22  and  O_35
REMARK    9  A    between atoms: C_26  and  C_31
REMARK   10  A    between atoms: C_28  and  O_29
REMARK   11  A    between atoms: C_31  and  C_32
REMARK   12  A    between atoms: C_32  and  O_33
REMARK                            x       y       z     vdW  Elec       q    Type
REMARK                         _______ _______ _______ _____ _____    ______ ____
ROOT
ATOM      1  N   UNL     1      35.331 -20.916 -19.788  0.00  0.00    +0.387 N 
ATOM      2  H   UNL     1      35.348 -21.739 -20.389  0.00  0.00    -0.084 HD
ATOM      3  H   UNL     1      36.282 -20.616 -19.569  0.00  0.00    -0.084 HD
ENDROOT
BRANCH   1   4
ATOM      4  C   UNL     1      34.646 -21.248 -18.539  0.00  0.00    -0.057 C 
ATOM      5  C   UNL     1      33.656 -22.391 -18.771  0.00  0.00    -0.016 C 
ATOM      6  C   UNL     1      35.662 -21.647 -17.460  0.00  0.00    +0.005 C 
ATOM      7  C   UNL     1      32.856 -22.669 -17.499  0.00  0.00    +0.024 C 
ATOM      8  C   UNL     1      35.017 -22.237 -16.230  0.00  0.00    -0.025 C 
ATOM      9  C   UNL     1      33.710 -22.755 -16.259  0.00  0.00    -0.026 C 
ATOM     10  C   UNL     1      35.765 -22.321 -15.044  0.00  0.00    +0.032 C 
ATOM     11  C   UNL     1      33.164 -23.315 -15.095  0.00  0.00    -0.001 C 
ATOM     12  C   UNL     1      35.214 -22.890 -13.896  0.00  0.00    +0.139 C 
ATOM     13  C   UNL     1      33.913 -23.384 -13.921  0.00  0.00    +0.037 C 
BRANCH  12  14
ATOM     14  O   UNL     1      35.948 -22.962 -12.753  0.00  0.00    -0.466 OA
BRANCH  14  15
ATOM     15  C   UNL     1      36.463 -24.242 -12.390  0.00  0.00    +0.290 C 
BRANCH  15  18
ATOM     16  O   UNL     1      38.743 -23.600 -12.338  0.00  0.00    -0.271 OA
ATOM     17  N   UNL     1      38.207 -25.328 -13.793  0.00  0.00    -0.273 N 
ATOM     18  C   UNL     1      37.905 -24.357 -12.838  0.00  0.00    +0.270 C 
ATOM     19  C   UNL     1      39.582 -25.483 -14.248  0.00  0.00    +0.115 C 
ATOM     20  C   UNL     1      37.247 -26.250 -14.395  0.00  0.00    +0.115 C 
ENDBRANCH  15  18
ENDBRANCH  14  15
ENDBRANCH  12  14
ENDBRANCH   1   4
BRANCH   1  21
ATOM     21  C   UNL     1      34.647 -19.833 -20.478  0.00  0.00    -0.047 C 
BRANCH  21  22
ATOM     22  C   UNL     1      35.627 -19.034 -21.345  0.00  0.00    +0.112 C 
BRANCH  22  23
ATOM     23  C   UNL     1      34.899 -18.172 -22.353  0.00  0.00    +0.002 C 
ATOM     24  C   UNL     1      34.902 -16.785 -22.214  0.00  0.00    -0.003 C 
ATOM     25  C   UNL     1      34.225 -18.765 -23.421  0.00  0.00    +0.001 C 
ATOM     26  C   UNL     1      34.231 -15.990 -23.144  0.00  0.00    +0.014 C 
ATOM     27  C   UNL     1      33.553 -17.971 -24.350  0.00  0.00    +0.036 C 
ATOM     28  C   UNL     1      33.556 -16.583 -24.211  0.00  0.00    +0.130 C 
BRANCH  28  29
ATOM     29  O   UNL     1      32.896 -15.821 -25.128  0.00  0.00    -0.506 OA
ATOM     30  H   UNL     1      32.392 -15.083 -24.848  0.00  0.00    +0.292 HD
ENDBRANCH  28  29
BRANCH  26  31
ATOM     31  C   UNL     1      34.244 -14.506 -22.981  0.00  0.00    +0.061 C 
BRANCH  31  32
ATOM     32  C   UNL     1      33.354 -14.025 -21.832  0.00  0.00    +0.142 C 
BRANCH  32  33
ATOM     33  O   UNL     1      34.087 -14.061 -20.614  0.00  0.00    -0.382 OA
ATOM     34  H   UNL     1      34.779 -13.380 -20.633  0.00  0.00    +0.210 HD
ENDBRANCH  32  33
ENDBRANCH  31  32
ENDBRANCH  26  31
ENDBRANCH  22  23
BRANCH  22  35
ATOM     35  O   UNL     1      36.432 -18.184 -20.529  0.00  0.00    -0.382 OA
ATOM     36  H   UNL     1      36.941 -17.582 -21.094  0.00  0.00    +0.211 HD
ENDBRANCH  22  35
ENDBRANCH  21  22
ENDBRANCH   1  21
TORSDOF 12
ENDMDL
MODEL 4
REMARK VINA RESULT:     -12.1      4.614      8.130
REMARK  Name = 9963057
REMARK  12 active torsions:
REMARK  status: ('A' for Active; 'I' for Inactive)
REMARK    1  A    between atoms: N_1  and  C_4
REMARK    2  A    between atoms: N_1  and  C_21
REMARK    3  A    between atoms: C_12  and  O_14
REMARK    4  A    between atoms: O_14  and  C_15
REMARK    5  A    between atoms: C_15  and  C_18
REMARK    6  A    between atoms: C_21  and  C_22
REMARK    7  A    between atoms: C_22  and  C_23
REMARK    8  A    between atoms: C_22  and  O_35
REMARK    9  A    between atoms: C_26  and  C_31
REMARK   10  A    between atoms: C_28  and  O_29
REMARK   11  A    between atoms: C_31  and  C_32
REMARK   12  A    between atoms: C_32  and  O_33
REMARK                            x       y       z     vdW  Elec       q    Type
REMARK                         _______ _______ _______ _____ _____    ______ ____
ROOT
ATOM      1  N   UNL     1      35.020 -15.866 -22.835  0.00  0.00    +0.387 N 
ATOM      2  H   UNL     1      35.887 -15.573 -22.387  0.00  0.00    -0.084 HD
ATOM      3  H   UNL     1      35.087 -15.752 -23.847  0.00  0.00    -0.084 HD
ENDROOT
BRANCH   1   4
ATOM      4  C   UNL     1      33.921 -15.037 -22.342  0.00  0.00    -0.057 C 
ATOM      5  C   UNL     1      34.007 -14.902 -20.820  0.00  0.00    -0.016 C 
ATOM      6  C   UNL     1      33.962 -13.649 -22.994  0.00  0.00    +0.005 C 
ATOM      7  C   UNL     1      32.799 -14.132 -20.286  0.00  0.00    +0.024 C 
ATOM      8  C   UNL     1      33.013 -12.666 -22.353  0.00  0.00    -0.025 C 
ATOM      9  C   UNL     1      32.499 -12.874 -21.061  0.00  0.00    -0.026 C 
ATOM     10  C   UNL     1      32.686 -11.488 -23.043  0.00  0.00    +0.032 C 
ATOM     11  C   UNL     1      31.639 -11.918 -20.499  0.00  0.00    -0.001 C 
ATOM     12  C   UNL     1      31.838 -10.540 -22.469  0.00  0.00    +0.139 C 
ATOM     13  C   UNL     1      31.313 -10.757 -21.199  0.00  0.00    +0.037 C 
BRANCH  12  14
ATOM     14  O   UNL     1      31.525  -9.405 -23.151  0.00  0.00    -0.466 OA
BRANCH  14  15
ATOM     15  C   UNL     1      32.429  -8.308 -23.035  0.00  0.00    +0.290 C 
BRANCH  15  18
ATOM     16  O   UNL     1      31.125  -6.454 -23.727  0.00  0.00    -0.271 OA
ATOM     17  N   UNL     1      31.574  -6.589 -21.453  0.00  0.00    -0.273 N 
ATOM     18  C   UNL     1      31.654  -7.034 -22.773  0.00  0.00    +0.270 C 
ATOM     19  C   UNL     1      30.832  -5.373 -21.149  0.00  0.00    +0.115 C 
ATOM     20  C   UNL     1      32.174  -7.254 -20.298  0.00  0.00    +0.115 C 
ENDBRANCH  15  18
ENDBRANCH  14  15
ENDBRANCH  12  14
ENDBRANCH   1   4
BRANCH   1  21
ATOM     21  C   UNL     1      34.779 -17.270 -22.539  0.00  0.00    -0.047 C 
BRANCH  21  22
ATOM     22  C   UNL     1      35.762 -17.779 -21.477  0.00  0.00    +0.112 C 
BRANCH  22  23
ATOM     23  C   UNL     1      35.196 -18.961 -20.720  0.00  0.00    +0.002 C 
ATOM     24  C   UNL     1      36.005 -19.672 -19.833  0.00  0.00    -0.003 C 
ATOM     25  C   UNL     1      33.867 -19.339 -20.909  0.00  0.00    +0.001 C 
ATOM     26  C   UNL     1      35.483 -20.761 -19.135  0.00  0.00    +0.014 C 
ATOM     27  C   UNL     1      33.346 -20.429 -20.212  0.00  0.00    +0.036 C 
ATOM     28  C   UNL     1      34.154 -21.139 -19.325  0.00  0.00    +0.130 C 
BRANCH  28  29
ATOM     29  O   UNL     1      33.629 -22.201 -18.650  0.00  0.00    -0.506 OA
ATOM     30  H   UNL     1      34.187 -22.755 -18.140  0.00  0.00    +0.292 HD
ENDBRANCH  28  29
BRANCH  26  31
ATOM     31  C   UNL     1      36.362 -21.511 -18.189  0.00  0.00    +0.061 C 
BRANCH  31  32
ATOM     32  C   UNL     1      36.368 -20.912 -16.780  0.00  0.00    +0.142 C 
BRANCH  32  33
ATOM     33  O   UNL     1      37.237 -19.787 -16.745  0.00  0.00    -0.382 OA
ATOM     34  H   UNL     1      36.774 -19.034 -16.343  0.00  0.00    +0.210 HD
ENDBRANCH  32  33
ENDBRANCH  31  32
ENDBRANCH  26  31
ENDBRANCH  22  23
BRANCH  22  35
ATOM     35  O   UNL     1      36.986 -18.186 -22.089  0.00  0.00    -0.382 OA
ATOM     36  H   UNL     1      37.224 -17.554 -22.785  0.00  0.00    +0.211 HD
ENDBRANCH  22  35
ENDBRANCH  21  22
ENDBRANCH   1  21
TORSDOF 12
ENDMDL
MODEL 5
REMARK VINA RESULT:     -11.9      2.438      4.539
REMARK  Name = 9963057
REMARK  12 active torsions:
REMARK  status: ('A' for Active; 'I' for Inactive)
REMARK    1  A    between atoms: N_1  and  C_4
REMARK    2  A    between atoms: N_1  and  C_21
REMARK    3  A    between atoms: C_12  and  O_14
REMARK    4  A    between atoms: O_14  and  C_15
REMARK    5  A    between atoms: C_15  and  C_18
REMARK    6  A    between atoms: C_21  and  C_22
REMARK    7  A    between atoms: C_22  and  C_23
REMARK    8  A    between atoms: C_22  and  O_35
REMARK    9  A    between atoms: C_26  and  C_31
REMARK   10  A    between atoms: C_28  and  O_29
REMARK   11  A    between atoms: C_31  and  C_32
REMARK   12  A    between atoms: C_32  and  O_33
REMARK                            x       y       z     vdW  Elec       q    Type
REMARK                         _______ _______ _______ _____ _____    ______ ____
ROOT
ATOM      1  N   UNL     1      32.398 -22.022 -18.449  0.00  0.00    +0.387 N 
ATOM      2  H   UNL     1      31.842 -22.301 -19.257  0.00  0.00    -0.084 HD
ATOM      3  H   UNL     1      31.802 -21.603 -17.735  0.00  0.00    -0.084 HD
ENDROOT
BRANCH   1   4
ATOM      4  C   UNL     1      33.390 -21.033 -18.869  0.00  0.00    -0.057 C 
ATOM      5  C   UNL     1      34.775 -21.678 -18.948  0.00  0.00    -0.016 C 
ATOM      6  C   UNL     1      33.011 -20.439 -20.232  0.00  0.00    +0.005 C 
ATOM      7  C   UNL     1      35.834 -20.626 -19.276  0.00  0.00    +0.024 C 
ATOM      8  C   UNL     1      34.109 -19.599 -20.838  0.00  0.00    -0.025 C 
ATOM      9  C   UNL     1      35.445 -19.718 -20.415  0.00  0.00    -0.026 C 
ATOM     10  C   UNL     1      33.794 -18.723 -21.888  0.00  0.00    +0.032 C 
ATOM     11  C   UNL     1      36.434 -18.932 -21.026  0.00  0.00    -0.001 C 
ATOM     12  C   UNL     1      34.788 -17.954 -22.495  0.00  0.00    +0.139 C 
ATOM     13  C   UNL     1      36.107 -18.058 -22.062  0.00  0.00    +0.037 C 
BRANCH  12  14
ATOM     14  O   UNL     1      34.469 -17.106 -23.509  0.00  0.00    -0.466 OA
BRANCH  14  15
ATOM     15  C   UNL     1      34.177 -15.755 -23.158  0.00  0.00    +0.290 C 
BRANCH  15  18
ATOM     16  O   UNL     1      33.289 -15.701 -25.354  0.00  0.00    -0.271 OA
ATOM     17  N   UNL     1      33.252 -13.690 -24.194  0.00  0.00    -0.273 N 
ATOM     18  C   UNL     1      33.536 -15.049 -24.335  0.00  0.00    +0.270 C 
ATOM     19  C   UNL     1      32.628 -12.970 -25.296  0.00  0.00    +0.115 C 
ATOM     20  C   UNL     1      33.517 -12.890 -23.001  0.00  0.00    +0.115 C 
ENDBRANCH  15  18
ENDBRANCH  14  15
ENDBRANCH  12  14
ENDBRANCH   1   4
BRANCH   1  21
ATOM     21  C   UNL     1      33.048 -23.196 -17.887  0.00  0.00    -0.047 C 
BRANCH  21  22
ATOM     22  C   UNL     1      32.830 -23.265 -16.370  0.00  0.00    +0.112 C 
BRANCH  22  23
ATOM     23  C   UNL     1      34.143 -23.215 -15.620  0.00  0.00    +0.002 C 
ATOM     24  C   UNL     1      34.611 -24.350 -14.958  0.00  0.00    -0.003 C 
ATOM     25  C   UNL     1      34.885 -22.034 -15.590  0.00  0.00    +0.001 C 
ATOM     26  C   UNL     1      35.822 -24.304 -14.266  0.00  0.00    +0.014 C 
ATOM     27  C   UNL     1      36.095 -21.988 -14.897  0.00  0.00    +0.036 C 
ATOM     28  C   UNL     1      36.563 -23.123 -14.235  0.00  0.00    +0.130 C 
BRANCH  28  29
ATOM     29  O   UNL     1      37.747 -23.061 -13.564  0.00  0.00    -0.506 OA
ATOM     30  H   UNL     1      38.549 -22.947 -14.037  0.00  0.00    +0.292 HD
ENDBRANCH  28  29
BRANCH  26  31
ATOM     31  C   UNL     1      36.309 -25.528 -13.564  0.00  0.00    +0.061 C 
BRANCH  31  32
ATOM     32  C   UNL     1      37.076 -26.479 -14.486  0.00  0.00    +0.142 C 
BRANCH  32  33
ATOM     33  O   UNL     1      38.268 -25.848 -14.936  0.00  0.00    -0.382 OA
ATOM     34  H   UNL     1      38.887 -25.758 -14.193  0.00  0.00    +0.210 HD
ENDBRANCH  32  33
ENDBRANCH  31  32
ENDBRANCH  26  31
ENDBRANCH  22  23
BRANCH  22  35
ATOM     35  O   UNL     1      32.025 -22.171 -15.934  0.00  0.00    -0.382 OA
ATOM     36  H   UNL     1      32.595 -21.479 -15.564  0.00  0.00    +0.211 HD
ENDBRANCH  22  35
ENDBRANCH  21  22
ENDBRANCH   1  21
TORSDOF 12
ENDMDL
MODEL 6
REMARK VINA RESULT:     -11.8      1.963      3.689
REMARK  Name = 9963057
REMARK  12 active torsions:
REMARK  status: ('A' for Active; 'I' for Inactive)
REMARK    1  A    between atoms: N_1  and  C_4
REMARK    2  A    between atoms: N_1  and  C_21
REMARK    3  A    between atoms: C_12  and  O_14
REMARK    4  A    between atoms: O_14  and  C_15
REMARK    5  A    between atoms: C_15  and  C_18
REMARK    6  A    between atoms: C_21  and  C_22
REMARK    7  A    between atoms: C_22  and  C_23
REMARK    8  A    between atoms: C_22  and  O_35
REMARK    9  A    between atoms: C_26  and  C_31
REMARK   10  A    between atoms: C_28  and  O_29
REMARK   11  A    between atoms: C_31  and  C_32
REMARK   12  A    between atoms: C_32  and  O_33
REMARK                            x       y       z     vdW  Elec       q    Type
REMARK                         _______ _______ _______ _____ _____    ______ ____
ROOT
ATOM      1  N   UNL     1      32.340 -21.940 -18.660  0.00  0.00    +0.387 N 
ATOM      2  H   UNL     1      32.038 -22.422 -19.506  0.00  0.00    -0.084 HD
ATOM      3  H   UNL     1      31.551 -21.463 -18.222  0.00  0.00    -0.084 HD
ENDROOT
BRANCH   1   4
ATOM      4  C   UNL     1      33.353 -20.945 -19.012  0.00  0.00    -0.057 C 
ATOM      5  C   UNL     1      34.740 -21.589 -19.025  0.00  0.00    -0.016 C 
ATOM      6  C   UNL     1      33.047 -20.332 -20.384  0.00  0.00    +0.005 C 
ATOM      7  C   UNL     1      35.815 -20.533 -19.280  0.00  0.00    +0.024 C 
ATOM      8  C   UNL     1      34.176 -19.483 -20.918  0.00  0.00    -0.025 C 
ATOM      9  C   UNL     1      35.488 -19.608 -20.425  0.00  0.00    -0.026 C 
ATOM     10  C   UNL     1      33.918 -18.592 -21.971  0.00  0.00    +0.032 C 
ATOM     11  C   UNL     1      36.507 -18.814 -20.971  0.00  0.00    -0.001 C 
ATOM     12  C   UNL     1      34.943 -17.815 -22.512  0.00  0.00    +0.139 C 
ATOM     13  C   UNL     1      36.236 -17.925 -22.010  0.00  0.00    +0.037 C 
BRANCH  12  14
ATOM     14  O   UNL     1      34.678 -16.952 -23.530  0.00  0.00    -0.466 OA
BRANCH  14  15
ATOM     15  C   UNL     1      34.165 -15.669 -23.177  0.00  0.00    +0.290 C 
BRANCH  15  18
ATOM     16  O   UNL     1      33.267 -15.740 -25.369  0.00  0.00    -0.271 OA
ATOM     17  N   UNL     1      33.197 -13.675 -24.308  0.00  0.00    -0.273 N 
ATOM     18  C   UNL     1      33.506 -15.034 -24.384  0.00  0.00    +0.270 C 
ATOM     19  C   UNL     1      32.555 -13.022 -25.440  0.00  0.00    +0.115 C 
ATOM     20  C   UNL     1      33.452 -12.813 -23.156  0.00  0.00    +0.115 C 
ENDBRANCH  15  18
ENDBRANCH  14  15
ENDBRANCH  12  14
ENDBRANCH   1   4
BRANCH   1  21
ATOM     21  C   UNL     1      32.878 -22.912 -17.721  0.00  0.00    -0.047 C 
BRANCH  21  22
ATOM     22  C   UNL     1      31.880 -23.186 -16.589  0.00  0.00    +0.112 C 
BRANCH  22  23
ATOM     23  C   UNL     1      32.583 -23.350 -15.259  0.00  0.00    +0.002 C 
ATOM     24  C   UNL     1      33.953 -23.110 -15.161  0.00  0.00    -0.003 C 
ATOM     25  C   UNL     1      31.860 -23.740 -14.132  0.00  0.00    +0.001 C 
ATOM     26  C   UNL     1      34.601 -23.261 -13.935  0.00  0.00    +0.014 C 
ATOM     27  C   UNL     1      32.508 -23.892 -12.906  0.00  0.00    +0.036 C 
ATOM     28  C   UNL     1      33.879 -23.652 -12.808  0.00  0.00    +0.130 C 
BRANCH  28  29
ATOM     29  O   UNL     1      34.496 -23.803 -11.603  0.00  0.00    -0.506 OA
ATOM     30  H   UNL     1      34.650 -24.662 -11.259  0.00  0.00    +0.292 HD
ENDBRANCH  28  29
BRANCH  26  31
ATOM     31  C   UNL     1      36.069 -23.000 -13.847  0.00  0.00    +0.061 C 
BRANCH  31  32
ATOM     32  C   UNL     1      36.908 -24.276 -13.951  0.00  0.00    +0.142 C 
BRANCH  32  33
ATOM     33  O   UNL     1      36.724 -24.864 -15.233  0.00  0.00    -0.382 OA
ATOM     34  H   UNL     1      36.054 -24.362 -15.725  0.00  0.00    +0.210 HD
ENDBRANCH  32  33
ENDBRANCH  31  32
ENDBRANCH  26  31
ENDBRANCH  22  23
BRANCH  22  35
ATOM     35  O   UNL     1      30.952 -22.108 -16.474  0.00  0.00    -0.382 OA
ATOM     36  H   UNL     1      30.807 -21.712 -17.348  0.00  0.00    +0.211 HD
ENDBRANCH  22  35
ENDBRANCH  21  22
ENDBRANCH   1  21
TORSDOF 12
ENDMDL
MODEL 7
REMARK VINA RESULT:     -11.8      3.593     11.174
REMARK  Name = 9963057
REMARK  12 active torsions:
REMARK  status: ('A' for Active; 'I' for Inactive)
REMARK    1  A    between atoms: N_1  and  C_4
REMARK    2  A    between atoms: N_1  and  C_21
REMARK    3  A    between atoms: C_12  and  O_14
REMARK    4  A    between atoms: O_14  and  C_15
REMARK    5  A    between atoms: C_15  and  C_18
REMARK    6  A    between atoms: C_21  and  C_22
REMARK    7  A    between atoms: C_22  and  C_23
REMARK    8  A    between atoms: C_22  and  O_35
REMARK    9  A    between atoms: C_26  and  C_31
REMARK   10  A    between atoms: C_28  and  O_29
REMARK   11  A    between atoms: C_31  and  C_32
REMARK   12  A    between atoms: C_32  and  O_33
REMARK                            x       y       z     vdW  Elec       q    Type
REMARK                         _______ _______ _______ _____ _____    ______ ____
ROOT
ATOM      1  N   UNL     1      35.453 -18.686 -21.769  0.00  0.00    +0.387 N 
ATOM      2  H   UNL     1      35.767 -19.445 -22.375  0.00  0.00    -0.084 HD
ATOM      3  H   UNL     1      36.254 -18.179 -21.391  0.00  0.00    -0.084 HD
ENDROOT
BRANCH   1   4
ATOM      4  C   UNL     1      34.686 -19.246 -20.658  0.00  0.00    -0.057 C 
ATOM      5  C   UNL     1      33.432 -19.947 -21.185  0.00  0.00    -0.016 C 
ATOM      6  C   UNL     1      35.543 -20.238 -19.861  0.00  0.00    +0.005 C 
ATOM      7  C   UNL     1      32.568 -20.436 -20.023  0.00  0.00    +0.024 C 
ATOM      8  C   UNL     1      34.747 -21.034 -18.856  0.00  0.00    -0.025 C 
ATOM      9  C   UNL     1      33.350 -21.161 -18.957  0.00  0.00    -0.026 C 
ATOM     10  C   UNL     1      35.427 -21.711 -17.831  0.00  0.00    +0.032 C 
ATOM     11  C   UNL     1      32.657 -21.932 -18.012  0.00  0.00    -0.001 C 
ATOM     12  C   UNL     1      34.728 -22.484 -16.904  0.00  0.00    +0.139 C 
ATOM     13  C   UNL     1      33.343 -22.592 -16.993  0.00  0.00    +0.037 C 
BRANCH  12  14
ATOM     14  O   UNL     1      35.399 -23.132 -15.914  0.00  0.00    -0.466 OA
BRANCH  14  15
ATOM     15  C   UNL     1      34.655 -24.053 -15.119  0.00  0.00    +0.290 C 
BRANCH  15  18
ATOM     16  O   UNL     1      35.750 -26.119 -15.498  0.00  0.00    -0.271 OA
ATOM     17  N   UNL     1      36.104 -25.149 -13.419  0.00  0.00    -0.273 N 
ATOM     18  C   UNL     1      35.548 -25.201 -14.698  0.00  0.00    +0.270 C 
ATOM     19  C   UNL     1      36.977 -26.226 -12.972  0.00  0.00    +0.115 C 
ATOM     20  C   UNL     1      35.899 -24.074 -12.451  0.00  0.00    +0.115 C 
ENDBRANCH  15  18
ENDBRANCH  14  15
ENDBRANCH  12  14
ENDBRANCH   1   4
BRANCH   1  21
ATOM     21  C   UNL     1      34.639 -17.762 -22.544  0.00  0.00    -0.047 C 
BRANCH  21  22
ATOM     22  C   UNL     1      34.946 -16.310 -22.159  0.00  0.00    +0.112 C 
BRANCH  22  23
ATOM     23  C   UNL     1      34.237 -15.333 -23.070  0.00  0.00    +0.002 C 
ATOM     24  C   UNL     1      33.891 -14.066 -22.600  0.00  0.00    -0.003 C 
ATOM     25  C   UNL     1      33.928 -15.699 -24.380  0.00  0.00    +0.001 C 
ATOM     26  C   UNL     1      33.237 -13.165 -23.441  0.00  0.00    +0.014 C 
ATOM     27  C   UNL     1      33.273 -14.799 -25.220  0.00  0.00    +0.036 C 
ATOM     28  C   UNL     1      32.927 -13.532 -24.750  0.00  0.00    +0.130 C 
BRANCH  28  29
ATOM     29  O   UNL     1      32.289 -12.664 -25.584  0.00  0.00    -0.506 OA
ATOM     30  H   UNL     1      32.074 -12.926 -26.458  0.00  0.00    +0.292 HD
ENDBRANCH  28  29
BRANCH  26  31
ATOM     31  C   UNL     1      32.874 -11.813 -22.922  0.00  0.00    +0.061 C 
BRANCH  31  32
ATOM     32  C   UNL     1      32.114 -11.869 -21.594  0.00  0.00    +0.142 C 
BRANCH  32  33
ATOM     33  O   UNL     1      30.715 -11.914 -21.848  0.00  0.00    -0.382 OA
ATOM     34  H   UNL     1      30.425 -11.060 -22.208  0.00  0.00    +0.210 HD
ENDBRANCH  32  33
ENDBRANCH  31  32
ENDBRANCH  26  31
ENDBRANCH  22  23
BRANCH  22  35
ATOM     35  O   UNL     1      34.529 -16.054 -20.818  0.00  0.00    -0.382 OA
ATOM     36  H   UNL     1      34.813 -16.784 -20.247  0.00  0.00    +0.211 HD
ENDBRANCH  22  35
ENDBRANCH  21  22
ENDBRANCH   1  21
TORSDOF 12
ENDMDL
MODEL 8
REMARK VINA RESULT:     -11.7      2.354      4.220
REMARK  Name = 9963057
REMARK  12 active torsions:
REMARK  status: ('A' for Active; 'I' for Inactive)
REMARK    1  A    between atoms: N_1  and  C_4
REMARK    2  A    between atoms: N_1  and  C_21
REMARK    3  A    between atoms: C_12  and  O_14
REMARK    4  A    between atoms: O_14  and  C_15
REMARK    5  A    between atoms: C_15  and  C_18
REMARK    6  A    between atoms: C_21  and  C_22
REMARK    7  A    between atoms: C_22  and  C_23
REMARK    8  A    between atoms: C_22  and  O_35
REMARK    9  A    between atoms: C_26  and  C_31
REMARK   10  A    between atoms: C_28  and  O_29
REMARK   11  A    between atoms: C_31  and  C_32
REMARK   12  A    between atoms: C_32  and  O_33
REMARK                            x       y       z     vdW  Elec       q    Type
REMARK                         _______ _______ _______ _____ _____    ______ ____
ROOT
ATOM      1  N   UNL     1      32.385 -22.070 -18.314  0.00  0.00    +0.387 N 
ATOM      2  H   UNL     1      31.860 -22.418 -19.116  0.00  0.00    -0.084 HD
ATOM      3  H   UNL     1      31.757 -21.628 -17.643  0.00  0.00    -0.084 HD
ENDROOT
BRANCH   1   4
ATOM      4  C   UNL     1      33.356 -21.076 -18.771  0.00  0.00    -0.057 C 
ATOM      5  C   UNL     1      34.744 -21.709 -18.879  0.00  0.00    -0.016 C 
ATOM      6  C   UNL     1      32.935 -20.503 -20.131  0.00  0.00    +0.005 C 
ATOM      7  C   UNL     1      35.784 -20.650 -19.246  0.00  0.00    +0.024 C 
ATOM      8  C   UNL     1      34.008 -19.659 -20.775  0.00  0.00    -0.025 C 
ATOM      9  C   UNL     1      35.356 -19.759 -20.385  0.00  0.00    -0.026 C 
ATOM     10  C   UNL     1      33.658 -18.798 -21.826  0.00  0.00    +0.032 C 
ATOM     11  C   UNL     1      36.321 -18.971 -21.031  0.00  0.00    -0.001 C 
ATOM     12  C   UNL     1      34.628 -18.027 -22.468  0.00  0.00    +0.139 C 
ATOM     13  C   UNL     1      35.958 -18.112 -22.068  0.00  0.00    +0.037 C 
BRANCH  12  14
ATOM     14  O   UNL     1      34.273 -17.194 -23.483  0.00  0.00    -0.466 OA
BRANCH  14  15
ATOM     15  C   UNL     1      34.226 -15.798 -23.192  0.00  0.00    +0.290 C 
BRANCH  15  18
ATOM     16  O   UNL     1      33.345 -15.675 -25.388  0.00  0.00    -0.271 OA
ATOM     17  N   UNL     1      33.265 -13.713 -24.149  0.00  0.00    -0.273 N 
ATOM     18  C   UNL     1      33.576 -15.059 -24.343  0.00  0.00    +0.270 C 
ATOM     19  C   UNL     1      32.631 -12.962 -25.225  0.00  0.00    +0.115 C 
ATOM     20  C   UNL     1      33.510 -12.955 -22.924  0.00  0.00    +0.115 C 
ENDBRANCH  15  18
ENDBRANCH  14  15
ENDBRANCH  12  14
ENDBRANCH   1   4
BRANCH   1  21
ATOM     21  C   UNL     1      33.057 -23.185 -17.663  0.00  0.00    -0.047 C 
BRANCH  21  22
ATOM     22  C   UNL     1      32.711 -23.232 -16.170  0.00  0.00    +0.112 C 
BRANCH  22  23
ATOM     23  C   UNL     1      33.953 -23.130 -15.311  0.00  0.00    +0.002 C 
ATOM     24  C   UNL     1      33.996 -23.767 -14.071  0.00  0.00    -0.003 C 
ATOM     25  C   UNL     1      35.053 -22.399 -15.759  0.00  0.00    +0.001 C 
ATOM     26  C   UNL     1      35.141 -23.673 -13.279  0.00  0.00    +0.014 C 
ATOM     27  C   UNL     1      36.197 -22.304 -14.967  0.00  0.00    +0.036 C 
ATOM     28  C   UNL     1      36.240 -22.941 -13.727  0.00  0.00    +0.130 C 
BRANCH  28  29
ATOM     29  O   UNL     1      37.366 -22.840 -12.965  0.00  0.00    -0.506 OA
ATOM     30  H   UNL     1      37.429 -23.310 -12.157  0.00  0.00    +0.292 HD
ENDBRANCH  28  29
BRANCH  26  31
ATOM     31  C   UNL     1      35.171 -24.361 -11.954  0.00  0.00    +0.061 C 
BRANCH  31  32
ATOM     32  C   UNL     1      35.008 -23.395 -10.778  0.00  0.00    +0.142 C 
BRANCH  32  33
ATOM     33  O   UNL     1      35.241 -24.087  -9.557  0.00  0.00    -0.382 OA
ATOM     34  H   UNL     1      34.631 -24.839  -9.491  0.00  0.00    +0.210 HD
ENDBRANCH  32  33
ENDBRANCH  31  32
ENDBRANCH  26  31
ENDBRANCH  22  23
BRANCH  22  35
ATOM     35  O   UNL     1      31.842 -22.154 -15.828  0.00  0.00    -0.382 OA
ATOM     36  H   UNL     1      31.509 -21.737 -16.638  0.00  0.00    +0.211 HD
ENDBRANCH  22  35
ENDBRANCH  21  22
ENDBRANCH   1  21
TORSDOF 12
ENDMDL
MODEL 9
REMARK VINA RESULT:     -11.3      4.056     11.559
REMARK  Name = 9963057
REMARK  12 active torsions:
REMARK  status: ('A' for Active; 'I' for Inactive)
REMARK    1  A    between atoms: N_1  and  C_4
REMARK    2  A    between atoms: N_1  and  C_21
REMARK    3  A    between atoms: C_12  and  O_14
REMARK    4  A    between atoms: O_14  and  C_15
REMARK    5  A    between atoms: C_15  and  C_18
REMARK    6  A    between atoms: C_21  and  C_22
REMARK    7  A    between atoms: C_22  and  C_23
REMARK    8  A    between atoms: C_22  and  O_35
REMARK    9  A    between atoms: C_26  and  C_31
REMARK   10  A    between atoms: C_28  and  O_29
REMARK   11  A    between atoms: C_31  and  C_32
REMARK   12  A    between atoms: C_32  and  O_33
REMARK                            x       y       z     vdW  Elec       q    Type
REMARK                         _______ _______ _______ _____ _____    ______ ____
ROOT
ATOM      1  N   UNL     1      33.717 -13.323 -23.296  0.00  0.00    +0.387 N 
ATOM      2  H   UNL     1      34.390 -13.108 -24.032  0.00  0.00    -0.084 HD
ATOM      3  H   UNL     1      34.042 -12.958 -22.400  0.00  0.00    -0.084 HD
ENDROOT
BRANCH   1   4
ATOM      4  C   UNL     1      33.575 -14.774 -23.186  0.00  0.00    -0.057 C 
ATOM      5  C   UNL     1      33.909 -15.438 -24.523  0.00  0.00    -0.016 C 
ATOM      6  C   UNL     1      34.494 -15.321 -22.085  0.00  0.00    +0.005 C 
ATOM      7  C   UNL     1      33.653 -16.944 -24.448  0.00  0.00    +0.024 C 
ATOM      8  C   UNL     1      34.582 -16.827 -22.082  0.00  0.00    -0.025 C 
ATOM      9  C   UNL     1      34.225 -17.588 -23.210  0.00  0.00    -0.026 C 
ATOM     10  C   UNL     1      35.089 -17.477 -20.946  0.00  0.00    +0.032 C 
ATOM     11  C   UNL     1      34.348 -18.985 -23.167  0.00  0.00    -0.001 C 
ATOM     12  C   UNL     1      35.217 -18.866 -20.919  0.00  0.00    +0.139 C 
ATOM     13  C   UNL     1      34.844 -19.619 -22.028  0.00  0.00    +0.037 C 
BRANCH  12  14
ATOM     14  O   UNL     1      35.705 -19.483 -19.810  0.00  0.00    -0.466 OA
BRANCH  14  15
ATOM     15  C   UNL     1      35.681 -20.909 -19.795  0.00  0.00    +0.290 C 
BRANCH  15  18
ATOM     16  O   UNL     1      36.430 -21.294 -17.580  0.00  0.00    -0.271 OA
ATOM     17  N   UNL     1      34.250 -21.946 -18.043  0.00  0.00    -0.273 N 
ATOM     18  C   UNL     1      35.491 -21.402 -18.375  0.00  0.00    +0.270 C 
ATOM     19  C   UNL     1      34.018 -22.425 -16.687  0.00  0.00    +0.115 C 
ATOM     20  C   UNL     1      33.113 -22.077 -18.951  0.00  0.00    +0.115 C 
ENDBRANCH  15  18
ENDBRANCH  14  15
ENDBRANCH  12  14
ENDBRANCH   1   4
BRANCH   1  21
ATOM     21  C   UNL     1      32.441 -12.703 -23.619  0.00  0.00    -0.047 C 
BRANCH  21  22
ATOM     22  C   UNL     1      32.579 -11.178 -23.689  0.00  0.00    +0.112 C 
BRANCH  22  23
ATOM     23  C   UNL     1      32.054 -10.516 -22.434  0.00  0.00    +0.002 C 
ATOM     24  C   UNL     1      31.997  -9.125 -22.352  0.00  0.00    -0.003 C 
ATOM     25  C   UNL     1      31.627 -11.296 -21.360  0.00  0.00    +0.001 C 
ATOM     26  C   UNL     1      31.512  -8.514 -21.195  0.00  0.00    +0.014 C 
ATOM     27  C   UNL     1      31.144 -10.686 -20.203  0.00  0.00    +0.036 C 
ATOM     28  C   UNL     1      31.087  -9.295 -20.120  0.00  0.00    +0.130 C 
BRANCH  28  29
ATOM     29  O   UNL     1      30.611  -8.715 -18.983  0.00  0.00    -0.506 OA
ATOM     30  H   UNL     1      29.867  -8.145 -19.023  0.00  0.00    +0.292 HD
ENDBRANCH  28  29
BRANCH  26  31
ATOM     31  C   UNL     1      31.457  -7.024 -21.123  0.00  0.00    +0.061 C 
BRANCH  31  32
ATOM     32  C   UNL     1      32.768  -6.403 -20.632  0.00  0.00    +0.142 C 
BRANCH  32  33
ATOM     33  O   UNL     1      32.796  -6.412 -19.210  0.00  0.00    -0.382 OA
ATOM     34  H   UNL     1      33.071  -7.289 -18.898  0.00  0.00    +0.210 HD
ENDBRANCH  32  33
ENDBRANCH  31  32
ENDBRANCH  26  31
ENDBRANCH  22  23
BRANCH  22  35
ATOM     35  O   UNL     1      33.948 -10.810 -23.848  0.00  0.00    -0.382 OA
ATOM     36  H   UNL     1      34.515 -11.514 -23.496  0.00  0.00    +0.211 HD
ENDBRANCH  22  35
ENDBRANCH  21  22
ENDBRANCH   1  21
TORSDOF 12
ENDMDL
