MODEL 1
REMARK VINA RESULT:     -12.7      0.000      0.000
REMARK  Name = 4566
REMARK  6 active torsions:
REMARK  status: ('A' for Active; 'I' for Inactive)
REMARK    1  A    between atoms: N_4  and  C_14
REMARK    2  A    between atoms: C_6  and  O_26
REMARK    3  A    between atoms: C_15  and  S_20
REMARK    4  A    between atoms: S_20  and  N_23
REMARK    5  A    between atoms: O_26  and  C_27
REMARK    6  A    between atoms: C_27  and  C_28
REMARK                            x       y       z     vdW  Elec       q    Type
REMARK                         _______ _______ _______ _____ _____    ______ ____
ROOT
ATOM      1  N   UNL     1      33.339 -23.278 -15.714  0.00  0.00    -0.293 NA
ATOM      2  N   UNL     1      29.960 -22.236 -16.728  0.00  0.00    -0.266 NA
ATOM      3  N   UNL     1      31.642 -23.579 -13.988  0.00  0.00    -0.316 NA
ATOM      4  N   UNL     1      33.876 -24.159 -13.613  0.00  0.00    -0.238 N 
ATOM      5  N   UNL     1      29.412 -22.886 -14.668  0.00  0.00    -0.296 N 
ATOM      6  C   UNL     1      32.429 -22.779 -16.581  0.00  0.00    +0.288 C 
ATOM      7  C   UNL     1      31.121 -22.676 -16.157  0.00  0.00    +0.215 C 
ATOM      8  C   UNL     1      30.754 -23.075 -14.879  0.00  0.00    +0.196 C 
ATOM      9  C   UNL     1      32.894 -23.642 -14.488  0.00  0.00    +0.207 C 
ATOM     10  C   UNL     1      28.965 -22.381 -15.797  0.00  0.00    +0.164 C 
ATOM     11  H   UNL     1      29.857 -21.880 -17.640  0.00  0.00    +0.126 HD
ATOM     12  H   UNL     1      33.525 -24.416 -12.729  0.00  0.00    +0.166 HD
ATOM     13  H   UNL     1      28.898 -23.086 -13.852  0.00  0.00    +0.150 HD
ENDROOT
BRANCH   4  14
ATOM     14  C   UNL     1      35.258 -24.379 -13.757  0.00  0.00    +0.059 C 
ATOM     15  C   UNL     1      38.003 -24.815 -14.041  0.00  0.00    +0.122 C 
ATOM     16  C   UNL     1      35.723 -25.427 -14.554  0.00  0.00    +0.017 C 
ATOM     17  C   UNL     1      36.172 -23.549 -13.102  0.00  0.00    +0.017 C 
ATOM     18  C   UNL     1      37.093 -25.645 -14.696  0.00  0.00    +0.021 C 
ATOM     19  C   UNL     1      37.543 -23.768 -13.244  0.00  0.00    +0.021 C 
BRANCH  15  20
ATOM     20  S   UNL     1      39.719 -25.088 -14.218  0.00  0.00    +0.057 S 
ATOM     21  O   UNL     1      40.412 -23.830 -13.981  0.00  0.00    -0.153 OA
ATOM     22  O   UNL     1      40.080 -26.271 -13.448  0.00  0.00    -0.153 OA
BRANCH  20  23
ATOM     23  N   UNL     1      39.817 -25.468 -15.881  0.00  0.00    -0.203 NA
ATOM     24  H   UNL     1      38.893 -25.726 -16.227  0.00  0.00    +0.144 HD
ATOM     25  H   UNL     1      40.460 -26.249 -16.014  0.00  0.00    +0.144 HD
ENDBRANCH  20  23
ENDBRANCH  15  20
ENDBRANCH   4  14
BRANCH   6  26
ATOM     26  O   UNL     1      32.847 -22.399 -17.832  0.00  0.00    -0.453 OA
BRANCH  26  27
ATOM     27  C   UNL     1      34.221 -22.098 -17.989  0.00  0.00    +0.208 C 
BRANCH  27  28
ATOM     28  C   UNL     1      34.409 -21.372 -19.319  0.00  0.00    +0.044 C 
ATOM     29  C   UNL     1      33.195 -20.486 -19.631  0.00  0.00    +0.004 C 
ATOM     30  C   UNL     1      35.701 -20.544 -19.306  0.00  0.00    +0.004 C 
ATOM     31  C   UNL     1      33.383 -19.708 -20.931  0.00  0.00    +0.000 C 
ATOM     32  C   UNL     1      35.885 -19.765 -20.608  0.00  0.00    +0.000 C 
ATOM     33  C   UNL     1      34.672 -18.892 -20.917  0.00  0.00    +0.000 C 
ENDBRANCH  27  28
ENDBRANCH  26  27
ENDBRANCH   6  26
TORSDOF 6
ENDMDL
MODEL 2
REMARK VINA RESULT:     -12.3      1.272      1.481
REMARK  Name = 4566
REMARK  6 active torsions:
REMARK  status: ('A' for Active; 'I' for Inactive)
REMARK    1  A    between atoms: N_4  and  C_14
REMARK    2  A    between atoms: C_6  and  O_26
REMARK    3  A    between atoms: C_15  and  S_20
REMARK    4  A    between atoms: S_20  and  N_23
REMARK    5  A    between atoms: O_26  and  C_27
REMARK    6  A    between atoms: C_27  and  C_28
REMARK                            x       y       z     vdW  Elec       q    Type
REMARK                         _______ _______ _______ _____ _____    ______ ____
ROOT
ATOM      1  N   UNL     1      32.003 -22.961 -15.512  0.00  0.00    -0.293 NA
ATOM      2  N   UNL     1      28.706 -22.088 -16.889  0.00  0.00    -0.266 NA
ATOM      3  N   UNL     1      30.150 -23.319 -13.966  0.00  0.00    -0.316 NA
ATOM      4  N   UNL     1      32.357 -23.790 -13.351  0.00  0.00    -0.238 N 
ATOM      5  N   UNL     1      27.975 -22.738 -14.886  0.00  0.00    -0.296 N 
ATOM      6  C   UNL     1      31.168 -22.515 -16.477  0.00  0.00    +0.288 C 
ATOM      7  C   UNL     1      29.819 -22.467 -16.193  0.00  0.00    +0.215 C 
ATOM      8  C   UNL     1      29.339 -22.867 -14.953  0.00  0.00    +0.196 C 
ATOM      9  C   UNL     1      31.449 -23.330 -14.332  0.00  0.00    +0.207 C 
ATOM     10  C   UNL     1      27.626 -22.268 -16.064  0.00  0.00    +0.164 C 
ATOM     11  H   UNL     1      28.683 -21.748 -17.812  0.00  0.00    +0.126 HD
ATOM     12  H   UNL     1      31.927 -24.052 -12.505  0.00  0.00    +0.166 HD
ATOM     13  H   UNL     1      27.388 -22.951 -14.124  0.00  0.00    +0.150 HD
ENDROOT
BRANCH   4  14
ATOM     14  C   UNL     1      33.754 -23.947 -13.347  0.00  0.00    +0.059 C 
ATOM     15  C   UNL     1      36.531 -24.261 -13.337  0.00  0.00    +0.122 C 
ATOM     16  C   UNL     1      34.418 -24.358 -14.505  0.00  0.00    +0.017 C 
ATOM     17  C   UNL     1      34.486 -23.694 -12.183  0.00  0.00    +0.017 C 
ATOM     18  C   UNL     1      35.804 -24.515 -14.501  0.00  0.00    +0.021 C 
ATOM     19  C   UNL     1      35.872 -23.851 -12.180  0.00  0.00    +0.021 C 
BRANCH  15  20
ATOM     20  S   UNL     1      38.266 -24.458 -13.332  0.00  0.00    +0.057 S 
ATOM     21  O   UNL     1      38.830 -23.540 -12.353  0.00  0.00    -0.153 OA
ATOM     22  O   UNL     1      38.569 -25.880 -13.249  0.00  0.00    -0.153 OA
BRANCH  20  23
ATOM     23  N   UNL     1      38.661 -23.905 -14.899  0.00  0.00    -0.203 NA
ATOM     24  H   UNL     1      37.847 -23.996 -15.507  0.00  0.00    +0.144 HD
ATOM     25  H   UNL     1      39.428 -24.465 -15.274  0.00  0.00    +0.144 HD
ENDBRANCH  20  23
ENDBRANCH  15  20
ENDBRANCH   4  14
BRANCH   6  26
ATOM     26  O   UNL     1      31.697 -22.131 -17.684  0.00  0.00    -0.453 OA
BRANCH  26  27
ATOM     27  C   UNL     1      33.058 -22.439 -17.918  0.00  0.00    +0.208 C 
BRANCH  27  28
ATOM     28  C   UNL     1      33.509 -21.712 -19.183  0.00  0.00    +0.044 C 
ATOM     29  C   UNL     1      32.532 -20.583 -19.538  0.00  0.00    +0.004 C 
ATOM     30  C   UNL     1      34.935 -21.169 -19.018  0.00  0.00    +0.004 C 
ATOM     31  C   UNL     1      32.990 -19.806 -20.770  0.00  0.00    +0.000 C 
ATOM     32  C   UNL     1      35.388 -20.391 -20.252  0.00  0.00    +0.000 C 
ATOM     33  C   UNL     1      34.410 -19.275 -20.604  0.00  0.00    +0.000 C 
ENDBRANCH  27  28
ENDBRANCH  26  27
ENDBRANCH   6  26
TORSDOF 6
ENDMDL
MODEL 3
REMARK VINA RESULT:     -11.8      3.300      7.020
REMARK  Name = 4566
REMARK  6 active torsions:
REMARK  status: ('A' for Active; 'I' for Inactive)
REMARK    1  A    between atoms: N_4  and  C_14
REMARK    2  A    between atoms: C_6  and  O_26
REMARK    3  A    between atoms: C_15  and  S_20
REMARK    4  A    between atoms: S_20  and  N_23
REMARK    5  A    between atoms: O_26  and  C_27
REMARK    6  A    between atoms: C_27  and  C_28
REMARK                            x       y       z     vdW  Elec       q    Type
REMARK                         _______ _______ _______ _____ _____    ______ ____
ROOT
ATOM      1  N   UNL     1      34.155 -23.538 -14.259  0.00  0.00    -0.293 NA
ATOM      2  N   UNL     1      37.704 -23.805 -13.334  0.00  0.00    -0.266 NA
ATOM      3  N   UNL     1      34.538 -23.979 -11.890  0.00  0.00    -0.316 NA
ATOM      4  N   UNL     1      32.375 -23.763 -12.754  0.00  0.00    -0.238 N 
ATOM      5  N   UNL     1      36.887 -24.155 -11.290  0.00  0.00    -0.296 N 
ATOM      6  C   UNL     1      35.482 -23.528 -14.515  0.00  0.00    +0.288 C 
ATOM      7  C   UNL     1      36.346 -23.744 -13.462  0.00  0.00    +0.215 C 
ATOM      8  C   UNL     1      35.861 -23.963 -12.180  0.00  0.00    +0.196 C 
ATOM      9  C   UNL     1      33.770 -23.760 -12.979  0.00  0.00    +0.207 C 
ATOM     10  C   UNL     1      37.981 -24.053 -12.015  0.00  0.00    +0.164 C 
ATOM     11  H   UNL     1      38.364 -23.691 -14.056  0.00  0.00    +0.126 HD
ATOM     12  H   UNL     1      32.125 -23.926 -11.816  0.00  0.00    +0.166 HD
ATOM     13  H   UNL     1      36.820 -24.329 -10.323  0.00  0.00    +0.150 HD
ENDROOT
BRANCH   4  14
ATOM     14  C   UNL     1      31.274 -23.577 -13.609  0.00  0.00    +0.059 C 
ATOM     15  C   UNL     1      29.083 -23.209 -15.304  0.00  0.00    +0.122 C 
ATOM     16  C   UNL     1      31.101 -22.364 -14.279  0.00  0.00    +0.017 C 
ATOM     17  C   UNL     1      30.345 -24.606 -13.790  0.00  0.00    +0.017 C 
ATOM     18  C   UNL     1      30.008 -22.180 -15.126  0.00  0.00    +0.021 C 
ATOM     19  C   UNL     1      29.252 -24.422 -14.637  0.00  0.00    +0.021 C 
BRANCH  15  20
ATOM     20  S   UNL     1      27.714 -22.979 -16.364  0.00  0.00    +0.057 S 
ATOM     21  O   UNL     1      28.004 -21.861 -17.252  0.00  0.00    -0.153 OA
ATOM     22  O   UNL     1      27.341 -24.270 -16.924  0.00  0.00    -0.153 OA
BRANCH  20  23
ATOM     23  N   UNL     1      26.515 -22.499 -15.246  0.00  0.00    -0.203 NA
ATOM     24  H   UNL     1      25.682 -23.075 -15.373  0.00  0.00    +0.144 HD
ATOM     25  H   UNL     1      26.277 -21.520 -15.402  0.00  0.00    +0.144 HD
ENDBRANCH  20  23
ENDBRANCH  15  20
ENDBRANCH   4  14
BRANCH   6  26
ATOM     26  O   UNL     1      35.905 -23.306 -15.802  0.00  0.00    -0.453 OA
BRANCH  26  27
ATOM     27  C   UNL     1      35.870 -21.972 -16.271  0.00  0.00    +0.208 C 
BRANCH  27  28
ATOM     28  C   UNL     1      35.280 -21.969 -17.681  0.00  0.00    +0.044 C 
ATOM     29  C   UNL     1      33.749 -21.889 -17.628  0.00  0.00    +0.004 C 
ATOM     30  C   UNL     1      35.860 -20.814 -18.508  0.00  0.00    +0.004 C 
ATOM     31  C   UNL     1      33.138 -21.832 -19.026  0.00  0.00    +0.000 C 
ATOM     32  C   UNL     1      35.245 -20.758 -19.905  0.00  0.00    +0.000 C 
ATOM     33  C   UNL     1      33.722 -20.687 -19.848  0.00  0.00    +0.000 C 
ENDBRANCH  27  28
ENDBRANCH  26  27
ENDBRANCH   6  26
TORSDOF 6
ENDMDL
MODEL 4
REMARK VINA RESULT:     -11.7      3.352      6.978
REMARK  Name = 4566
REMARK  6 active torsions:
REMARK  status: ('A' for Active; 'I' for Inactive)
REMARK    1  A    between atoms: N_4  and  C_14
REMARK    2  A    between atoms: C_6  and  O_26
REMARK    3  A    between atoms: C_15  and  S_20
REMARK    4  A    between atoms: S_20  and  N_23
REMARK    5  A    between atoms: O_26  and  C_27
REMARK    6  A    between atoms: C_27  and  C_28
REMARK                            x       y       z     vdW  Elec       q    Type
REMARK                         _______ _______ _______ _____ _____    ______ ____
ROOT
ATOM      1  N   UNL     1      34.048 -23.148 -15.210  0.00  0.00    -0.293 NA
ATOM      2  N   UNL     1      37.706 -23.396 -14.922  0.00  0.00    -0.266 NA
ATOM      3  N   UNL     1      34.816 -24.240 -13.168  0.00  0.00    -0.316 NA
ATOM      4  N   UNL     1      32.538 -23.948 -13.610  0.00  0.00    -0.238 N 
ATOM      5  N   UNL     1      37.236 -24.399 -12.988  0.00  0.00    -0.296 N 
ATOM      6  C   UNL     1      35.317 -22.957 -15.636  0.00  0.00    +0.288 C 
ATOM      7  C   UNL     1      36.343 -23.407 -14.832  0.00  0.00    +0.215 C 
ATOM      8  C   UNL     1      36.075 -24.035 -13.623  0.00  0.00    +0.196 C 
ATOM      9  C   UNL     1      33.879 -23.769 -14.018  0.00  0.00    +0.207 C 
ATOM     10  C   UNL     1      38.196 -24.002 -13.794  0.00  0.00    +0.164 C 
ATOM     11  H   UNL     1      38.239 -23.022 -15.660  0.00  0.00    +0.126 HD
ATOM     12  H   UNL     1      32.445 -24.401 -12.740  0.00  0.00    +0.166 HD
ATOM     13  H   UNL     1      37.328 -24.857 -12.121  0.00  0.00    +0.150 HD
ENDROOT
BRANCH   4  14
ATOM     14  C   UNL     1      31.309 -23.605 -14.202  0.00  0.00    +0.059 C 
ATOM     15  C   UNL     1      28.870 -22.921 -15.381  0.00  0.00    +0.122 C 
ATOM     16  C   UNL     1      30.500 -24.595 -14.764  0.00  0.00    +0.017 C 
ATOM     17  C   UNL     1      30.894 -22.271 -14.233  0.00  0.00    +0.017 C 
ATOM     18  C   UNL     1      29.281 -24.254 -15.352  0.00  0.00    +0.021 C 
ATOM     19  C   UNL     1      29.675 -21.931 -14.822  0.00  0.00    +0.021 C 
BRANCH  15  20
ATOM     20  S   UNL     1      27.345 -22.495 -16.118  0.00  0.00    +0.057 S 
ATOM     21  O   UNL     1      26.316 -22.513 -15.088  0.00  0.00    -0.153 OA
ATOM     22  O   UNL     1      27.541 -21.298 -16.924  0.00  0.00    -0.153 OA
BRANCH  20  23
ATOM     23  N   UNL     1      27.105 -23.825 -17.162  0.00  0.00    -0.203 NA
ATOM     24  H   UNL     1      28.008 -24.176 -17.480  0.00  0.00    +0.144 HD
ATOM     25  H   UNL     1      26.553 -23.530 -17.968  0.00  0.00    +0.144 HD
ENDBRANCH  20  23
ENDBRANCH  15  20
ENDBRANCH   4  14
BRANCH   6  26
ATOM     26  O   UNL     1      35.523 -22.332 -16.840  0.00  0.00    -0.453 OA
BRANCH  26  27
ATOM     27  C   UNL     1      34.472 -22.393 -17.786  0.00  0.00    +0.208 C 
BRANCH  27  28
ATOM     28  C   UNL     1      34.475 -21.099 -18.598  0.00  0.00    +0.044 C 
ATOM     29  C   UNL     1      35.774 -20.967 -19.404  0.00  0.00    +0.004 C 
ATOM     30  C   UNL     1      33.250 -21.034 -19.520  0.00  0.00    +0.004 C 
ATOM     31  C   UNL     1      35.778 -19.706 -20.266  0.00  0.00    +0.000 C 
ATOM     32  C   UNL     1      33.259 -19.773 -20.381  0.00  0.00    +0.000 C 
ATOM     33  C   UNL     1      34.555 -19.642 -21.175  0.00  0.00    +0.000 C 
ENDBRANCH  27  28
ENDBRANCH  26  27
ENDBRANCH   6  26
TORSDOF 6
ENDMDL
MODEL 5
REMARK VINA RESULT:     -11.6      3.377      7.117
REMARK  Name = 4566
REMARK  6 active torsions:
REMARK  status: ('A' for Active; 'I' for Inactive)
REMARK    1  A    between atoms: N_4  and  C_14
REMARK    2  A    between atoms: C_6  and  O_26
REMARK    3  A    between atoms: C_15  and  S_20
REMARK    4  A    between atoms: S_20  and  N_23
REMARK    5  A    between atoms: O_26  and  C_27
REMARK    6  A    between atoms: C_27  and  C_28
REMARK                            x       y       z     vdW  Elec       q    Type
REMARK                         _______ _______ _______ _____ _____    ______ ____
ROOT
ATOM      1  N   UNL     1      33.348 -22.399 -16.099  0.00  0.00    -0.293 NA
ATOM      2  N   UNL     1      32.468 -24.300 -13.076  0.00  0.00    -0.266 NA
ATOM      3  N   UNL     1      31.107 -23.362 -16.143  0.00  0.00    -0.316 NA
ATOM      4  N   UNL     1      31.928 -22.104 -17.936  0.00  0.00    -0.238 N 
ATOM      5  N   UNL     1      30.536 -24.617 -14.141  0.00  0.00    -0.296 N 
ATOM      6  C   UNL     1      33.589 -22.908 -14.870  0.00  0.00    +0.288 C 
ATOM      7  C   UNL     1      32.591 -23.648 -14.270  0.00  0.00    +0.215 C 
ATOM      8  C   UNL     1      31.379 -23.859 -14.913  0.00  0.00    +0.196 C 
ATOM      9  C   UNL     1      32.139 -22.655 -16.652  0.00  0.00    +0.207 C 
ATOM     10  C   UNL     1      31.220 -24.865 -13.045  0.00  0.00    +0.164 C 
ATOM     11  H   UNL     1      33.150 -24.355 -12.367  0.00  0.00    +0.126 HD
ATOM     12  H   UNL     1      31.040 -22.304 -18.313  0.00  0.00    +0.166 HD
ATOM     13  H   UNL     1      29.621 -24.909 -14.359  0.00  0.00    +0.150 HD
ENDROOT
BRANCH   4  14
ATOM     14  C   UNL     1      32.738 -21.325 -18.782  0.00  0.00    +0.059 C 
ATOM     15  C   UNL     1      34.346 -19.775 -20.461  0.00  0.00    +0.122 C 
ATOM     16  C   UNL     1      34.126 -21.479 -18.762  0.00  0.00    +0.017 C 
ATOM     17  C   UNL     1      32.157 -20.392 -19.645  0.00  0.00    +0.017 C 
ATOM     18  C   UNL     1      34.929 -20.705 -19.600  0.00  0.00    +0.021 C 
ATOM     19  C   UNL     1      32.961 -19.619 -20.484  0.00  0.00    +0.021 C 
BRANCH  15  20
ATOM     20  S   UNL     1      35.351 -18.807 -21.510  0.00  0.00    +0.057 S 
ATOM     21  O   UNL     1      36.745 -19.063 -21.175  0.00  0.00    -0.153 OA
ATOM     22  O   UNL     1      34.892 -18.983 -22.881  0.00  0.00    -0.153 OA
BRANCH  20  23
ATOM     23  N   UNL     1      34.939 -17.232 -20.993  0.00  0.00    -0.203 NA
ATOM     24  H   UNL     1      34.109 -16.915 -21.494  0.00  0.00    +0.144 HD
ATOM     25  H   UNL     1      35.715 -16.597 -21.186  0.00  0.00    +0.144 HD
ENDBRANCH  20  23
ENDBRANCH  15  20
ENDBRANCH   4  14
BRANCH   6  26
ATOM     26  O   UNL     1      34.806 -22.670 -14.281  0.00  0.00    -0.453 OA
BRANCH  26  27
ATOM     27  C   UNL     1      35.930 -22.590 -15.137  0.00  0.00    +0.208 C 
BRANCH  27  28
ATOM     28  C   UNL     1      36.853 -23.769 -14.835  0.00  0.00    +0.044 C 
ATOM     29  C   UNL     1      38.307 -23.425 -15.187  0.00  0.00    +0.004 C 
ATOM     30  C   UNL     1      36.732 -24.188 -13.363  0.00  0.00    +0.004 C 
ATOM     31  C   UNL     1      39.257 -24.570 -14.844  0.00  0.00    +0.000 C 
ATOM     32  C   UNL     1      37.686 -25.332 -13.023  0.00  0.00    +0.000 C 
ATOM     33  C   UNL     1      39.128 -24.988 -13.383  0.00  0.00    +0.000 C 
ENDBRANCH  27  28
ENDBRANCH  26  27
ENDBRANCH   6  26
TORSDOF 6
ENDMDL
MODEL 6
REMARK VINA RESULT:     -11.5      2.731      5.444
REMARK  Name = 4566
REMARK  6 active torsions:
REMARK  status: ('A' for Active; 'I' for Inactive)
REMARK    1  A    between atoms: N_4  and  C_14
REMARK    2  A    between atoms: C_6  and  O_26
REMARK    3  A    between atoms: C_15  and  S_20
REMARK    4  A    between atoms: S_20  and  N_23
REMARK    5  A    between atoms: O_26  and  C_27
REMARK    6  A    between atoms: C_27  and  C_28
REMARK                            x       y       z     vdW  Elec       q    Type
REMARK                         _______ _______ _______ _____ _____    ______ ____
ROOT
ATOM      1  N   UNL     1      34.558 -21.831 -17.541  0.00  0.00    -0.293 NA
ATOM      2  N   UNL     1      33.290 -20.272 -20.621  0.00  0.00    -0.266 NA
ATOM      3  N   UNL     1      36.211 -20.489 -18.733  0.00  0.00    -0.316 NA
ATOM      4  N   UNL     1      36.747 -21.595 -16.743  0.00  0.00    -0.238 N 
ATOM      5  N   UNL     1      35.362 -19.464 -20.768  0.00  0.00    -0.296 N 
ATOM      6  C   UNL     1      33.609 -21.559 -18.463  0.00  0.00    +0.288 C 
ATOM      7  C   UNL     1      33.954 -20.752 -19.528  0.00  0.00    +0.215 C 
ATOM      8  C   UNL     1      35.238 -20.236 -19.641  0.00  0.00    +0.196 C 
ATOM      9  C   UNL     1      35.784 -21.287 -17.730  0.00  0.00    +0.207 C 
ATOM     10  C   UNL     1      34.175 -19.506 -21.334  0.00  0.00    +0.164 C 
ATOM     11  H   UNL     1      32.349 -20.444 -20.854  0.00  0.00    +0.126 HD
ATOM     12  H   UNL     1      37.628 -21.185 -16.906  0.00  0.00    +0.166 HD
ATOM     13  H   UNL     1      36.163 -18.985 -21.083  0.00  0.00    +0.150 HD
ENDROOT
BRANCH   4  14
ATOM     14  C   UNL     1      36.693 -22.372 -15.572  0.00  0.00    +0.059 C 
ATOM     15  C   UNL     1      36.584 -23.918 -13.247  0.00  0.00    +0.122 C 
ATOM     16  C   UNL     1      37.711 -23.286 -15.288  0.00  0.00    +0.017 C 
ATOM     17  C   UNL     1      35.620 -22.235 -14.688  0.00  0.00    +0.017 C 
ATOM     18  C   UNL     1      37.657 -24.058 -14.128  0.00  0.00    +0.021 C 
ATOM     19  C   UNL     1      35.566 -23.007 -13.527  0.00  0.00    +0.021 C 
BRANCH  15  20
ATOM     20  S   UNL     1      36.516 -24.884 -11.794  0.00  0.00    +0.057 S 
ATOM     21  O   UNL     1      36.704 -26.281 -12.161  0.00  0.00    -0.153 OA
ATOM     22  O   UNL     1      37.383 -24.276 -10.794  0.00  0.00    -0.153 OA
BRANCH  20  23
ATOM     23  N   UNL     1      34.891 -24.651 -11.323  0.00  0.00    -0.203 NA
ATOM     24  H   UNL     1      34.709 -25.164 -10.460  0.00  0.00    +0.144 HD
ATOM     25  H   UNL     1      34.271 -24.994 -12.058  0.00  0.00    +0.144 HD
ENDBRANCH  20  23
ENDBRANCH  15  20
ENDBRANCH   4  14
BRANCH   6  26
ATOM     26  O   UNL     1      32.356 -22.096 -18.302  0.00  0.00    -0.453 OA
BRANCH  26  27
ATOM     27  C   UNL     1      32.221 -23.143 -17.359  0.00  0.00    +0.208 C 
BRANCH  27  28
ATOM     28  C   UNL     1      31.527 -22.588 -16.116  0.00  0.00    +0.044 C 
ATOM     29  C   UNL     1      30.017 -22.851 -16.175  0.00  0.00    +0.004 C 
ATOM     30  C   UNL     1      32.138 -23.188 -14.842  0.00  0.00    +0.004 C 
ATOM     31  C   UNL     1      29.308 -22.353 -14.917  0.00  0.00    +0.000 C 
ATOM     32  C   UNL     1      31.425 -22.689 -13.587  0.00  0.00    +0.000 C 
ATOM     33  C   UNL     1      29.922 -22.946 -13.653  0.00  0.00    +0.000 C 
ENDBRANCH  27  28
ENDBRANCH  26  27
ENDBRANCH   6  26
TORSDOF 6
ENDMDL
MODEL 7
REMARK VINA RESULT:     -10.5      5.299      7.937
REMARK  Name = 4566
REMARK  6 active torsions:
REMARK  status: ('A' for Active; 'I' for Inactive)
REMARK    1  A    between atoms: N_4  and  C_14
REMARK    2  A    between atoms: C_6  and  O_26
REMARK    3  A    between atoms: C_15  and  S_20
REMARK    4  A    between atoms: S_20  and  N_23
REMARK    5  A    between atoms: O_26  and  C_27
REMARK    6  A    between atoms: C_27  and  C_28
REMARK                            x       y       z     vdW  Elec       q    Type
REMARK                         _______ _______ _______ _____ _____    ______ ____
ROOT
ATOM      1  N   UNL     1      34.565 -18.276 -20.808  0.00  0.00    -0.293 NA
ATOM      2  N   UNL     1      34.049 -15.885 -23.555  0.00  0.00    -0.266 NA
ATOM      3  N   UNL     1      34.088 -19.319 -22.961  0.00  0.00    -0.316 NA
ATOM      4  N   UNL     1      34.458 -20.604 -21.042  0.00  0.00    -0.238 N 
ATOM      5  N   UNL     1      33.748 -17.729 -24.770  0.00  0.00    -0.296 N 
ATOM      6  C   UNL     1      34.484 -17.037 -21.342  0.00  0.00    +0.288 C 
ATOM      7  C   UNL     1      34.204 -16.930 -22.688  0.00  0.00    +0.215 C 
ATOM      8  C   UNL     1      34.014 -18.064 -23.467  0.00  0.00    +0.196 C 
ATOM      9  C   UNL     1      34.364 -19.326 -21.640  0.00  0.00    +0.207 C 
ATOM     10  C   UNL     1      33.777 -16.414 -24.789  0.00  0.00    +0.164 C 
ATOM     11  H   UNL     1      34.120 -14.929 -23.333  0.00  0.00    +0.126 HD
ATOM     12  H   UNL     1      34.309 -21.347 -21.670  0.00  0.00    +0.166 HD
ATOM     13  H   UNL     1      33.576 -18.339 -25.524  0.00  0.00    +0.150 HD
ENDROOT
BRANCH   4  14
ATOM     14  C   UNL     1      34.722 -21.020 -19.726  0.00  0.00    +0.059 C 
ATOM     15  C   UNL     1      35.247 -21.851 -17.110  0.00  0.00    +0.122 C 
ATOM     16  C   UNL     1      35.980 -20.803 -19.160  0.00  0.00    +0.017 C 
ATOM     17  C   UNL     1      33.727 -21.656 -18.977  0.00  0.00    +0.017 C 
ATOM     18  C   UNL     1      36.243 -21.218 -17.854  0.00  0.00    +0.021 C 
ATOM     19  C   UNL     1      33.990 -22.070 -17.671  0.00  0.00    +0.021 C 
BRANCH  15  20
ATOM     20  S   UNL     1      35.576 -22.370 -15.475  0.00  0.00    +0.057 S 
ATOM     21  O   UNL     1      35.795 -23.810 -15.485  0.00  0.00    -0.153 OA
ATOM     22  O   UNL     1      36.586 -21.489 -14.906  0.00  0.00    -0.153 OA
BRANCH  20  23
ATOM     23  N   UNL     1      34.078 -22.044 -14.722  0.00  0.00    -0.203 NA
ATOM     24  H   UNL     1      33.836 -21.063 -14.858  0.00  0.00    +0.144 HD
ATOM     25  H   UNL     1      34.149 -22.242 -13.724  0.00  0.00    +0.144 HD
ENDBRANCH  20  23
ENDBRANCH  15  20
ENDBRANCH   4  14
BRANCH   6  26
ATOM     26  O   UNL     1      34.681 -15.951 -20.525  0.00  0.00    -0.453 OA
BRANCH  26  27
ATOM     27  C   UNL     1      33.531 -15.370 -19.939  0.00  0.00    +0.208 C 
BRANCH  27  28
ATOM     28  C   UNL     1      33.399 -13.936 -20.451  0.00  0.00    +0.044 C 
ATOM     29  C   UNL     1      33.785 -13.851 -21.934  0.00  0.00    +0.004 C 
ATOM     30  C   UNL     1      31.976 -13.409 -20.224  0.00  0.00    +0.004 C 
ATOM     31  C   UNL     1      33.610 -12.437 -22.482  0.00  0.00    +0.000 C 
ATOM     32  C   UNL     1      31.804 -11.995 -20.776  0.00  0.00    +0.000 C 
ATOM     33  C   UNL     1      32.196 -11.914 -22.248  0.00  0.00    +0.000 C 
ENDBRANCH  27  28
ENDBRANCH  26  27
ENDBRANCH   6  26
TORSDOF 6
ENDMDL
MODEL 8
REMARK VINA RESULT:     -10.0      3.230      6.827
REMARK  Name = 4566
REMARK  6 active torsions:
REMARK  status: ('A' for Active; 'I' for Inactive)
REMARK    1  A    between atoms: N_4  and  C_14
REMARK    2  A    between atoms: C_6  and  O_26
REMARK    3  A    between atoms: C_15  and  S_20
REMARK    4  A    between atoms: S_20  and  N_23
REMARK    5  A    between atoms: O_26  and  C_27
REMARK    6  A    between atoms: C_27  and  C_28
REMARK                            x       y       z     vdW  Elec       q    Type
REMARK                         _______ _______ _______ _____ _____    ______ ____
ROOT
ATOM      1  N   UNL     1      34.965 -22.971 -15.302  0.00  0.00    -0.293 NA
ATOM      2  N   UNL     1      38.638 -23.078 -15.468  0.00  0.00    -0.266 NA
ATOM      3  N   UNL     1      35.957 -24.922 -14.223  0.00  0.00    -0.316 NA
ATOM      4  N   UNL     1      33.640 -24.601 -14.267  0.00  0.00    -0.238 N 
ATOM      5  N   UNL     1      38.385 -24.982 -14.339  0.00  0.00    -0.296 N 
ATOM      6  C   UNL     1      36.181 -22.496 -15.655  0.00  0.00    +0.288 C 
ATOM      7  C   UNL     1      37.292 -23.230 -15.296  0.00  0.00    +0.215 C 
ATOM      8  C   UNL     1      37.160 -24.420 -14.591  0.00  0.00    +0.196 C 
ATOM      9  C   UNL     1      34.930 -24.139 -14.617  0.00  0.00    +0.207 C 
ATOM     10  C   UNL     1      39.251 -24.152 -14.878  0.00  0.00    +0.164 C 
ATOM     11  H   UNL     1      39.086 -22.334 -15.931  0.00  0.00    +0.126 HD
ATOM     12  H   UNL     1      33.645 -25.451 -13.769  0.00  0.00    +0.166 HD
ATOM     13  H   UNL     1      38.573 -25.822 -13.859  0.00  0.00    +0.150 HD
ENDROOT
BRANCH   4  14
ATOM     14  C   UNL     1      32.352 -24.083 -14.490  0.00  0.00    +0.059 C 
ATOM     15  C   UNL     1      29.792 -23.054 -14.932  0.00  0.00    +0.122 C 
ATOM     16  C   UNL     1      32.037 -23.487 -15.713  0.00  0.00    +0.017 C 
ATOM     17  C   UNL     1      31.381 -24.162 -13.488  0.00  0.00    +0.017 C 
ATOM     18  C   UNL     1      30.759 -22.973 -15.935  0.00  0.00    +0.021 C 
ATOM     19  C   UNL     1      30.103 -23.648 -13.709  0.00  0.00    +0.021 C 
BRANCH  15  20
ATOM     20  S   UNL     1      28.193 -22.410 -15.208  0.00  0.00    +0.057 S 
ATOM     21  O   UNL     1      27.287 -23.521 -15.464  0.00  0.00    -0.153 OA
ATOM     22  O   UNL     1      27.888 -21.459 -14.148  0.00  0.00    -0.153 OA
BRANCH  20  23
ATOM     23  N   UNL     1      28.435 -21.548 -16.663  0.00  0.00    -0.203 NA
ATOM     24  H   UNL     1      28.043 -20.611 -16.573  0.00  0.00    +0.144 HD
ATOM     25  H   UNL     1      27.973 -22.038 -17.429  0.00  0.00    +0.144 HD
ENDBRANCH  20  23
ENDBRANCH  15  20
ENDBRANCH   4  14
BRANCH   6  26
ATOM     26  O   UNL     1      36.252 -21.315 -16.352  0.00  0.00    -0.453 OA
BRANCH  26  27
ATOM     27  C   UNL     1      36.793 -21.371 -17.659  0.00  0.00    +0.208 C 
BRANCH  27  28
ATOM     28  C   UNL     1      35.641 -21.495 -18.654  0.00  0.00    +0.044 C 
ATOM     29  C   UNL     1      34.302 -21.644 -17.919  0.00  0.00    +0.004 C 
ATOM     30  C   UNL     1      35.612 -20.288 -19.602  0.00  0.00    +0.004 C 
ATOM     31  C   UNL     1      33.128 -21.716 -18.893  0.00  0.00    +0.000 C 
ATOM     32  C   UNL     1      34.436 -20.363 -20.574  0.00  0.00    +0.000 C 
ATOM     33  C   UNL     1      33.108 -20.519 -19.839  0.00  0.00    +0.000 C 
ENDBRANCH  27  28
ENDBRANCH  26  27
ENDBRANCH   6  26
TORSDOF 6
ENDMDL
MODEL 9
REMARK VINA RESULT:      -9.9      7.583     10.826
REMARK  Name = 4566
REMARK  6 active torsions:
REMARK  status: ('A' for Active; 'I' for Inactive)
REMARK    1  A    between atoms: N_4  and  C_14
REMARK    2  A    between atoms: C_6  and  O_26
REMARK    3  A    between atoms: C_15  and  S_20
REMARK    4  A    between atoms: S_20  and  N_23
REMARK    5  A    between atoms: O_26  and  C_27
REMARK    6  A    between atoms: C_27  and  C_28
REMARK                            x       y       z     vdW  Elec       q    Type
REMARK                         _______ _______ _______ _____ _____    ______ ____
ROOT
ATOM      1  N   UNL     1      33.830 -15.406 -22.509  0.00  0.00    -0.293 NA
ATOM      2  N   UNL     1      32.777 -12.322 -24.216  0.00  0.00    -0.266 NA
ATOM      3  N   UNL     1      33.711 -15.601 -24.938  0.00  0.00    -0.316 NA
ATOM      4  N   UNL     1      34.353 -17.410 -23.601  0.00  0.00    -0.238 N 
ATOM      5  N   UNL     1      33.013 -13.557 -26.056  0.00  0.00    -0.296 N 
ATOM      6  C   UNL     1      33.438 -14.113 -22.552  0.00  0.00    +0.288 C 
ATOM      7  C   UNL     1      33.179 -13.555 -23.787  0.00  0.00    +0.215 C 
ATOM      8  C   UNL     1      33.320 -14.304 -24.947  0.00  0.00    +0.196 C 
ATOM      9  C   UNL     1      33.940 -16.061 -23.690  0.00  0.00    +0.207 C 
ATOM     10  C   UNL     1      32.691 -12.373 -25.583  0.00  0.00    +0.164 C 
ATOM     11  H   UNL     1      32.584 -11.541 -23.649  0.00  0.00    +0.126 HD
ATOM     12  H   UNL     1      34.425 -17.860 -24.474  0.00  0.00    +0.166 HD
ATOM     13  H   UNL     1      33.031 -13.845 -26.998  0.00  0.00    +0.150 HD
ENDROOT
BRANCH   4  14
ATOM     14  C   UNL     1      34.680 -18.234 -22.511  0.00  0.00    +0.059 C 
ATOM     15  C   UNL     1      35.330 -19.876 -20.345  0.00  0.00    +0.122 C 
ATOM     16  C   UNL     1      35.961 -18.190 -21.956  0.00  0.00    +0.017 C 
ATOM     17  C   UNL     1      33.725 -19.104 -21.977  0.00  0.00    +0.017 C 
ATOM     18  C   UNL     1      36.287 -19.009 -20.875  0.00  0.00    +0.021 C 
ATOM     19  C   UNL     1      34.050 -19.923 -20.895  0.00  0.00    +0.021 C 
BRANCH  15  20
ATOM     20  S   UNL     1      35.737 -20.901 -18.991  0.00  0.00    +0.057 S 
ATOM     21  O   UNL     1      36.368 -22.110 -19.503  0.00  0.00    -0.153 OA
ATOM     22  O   UNL     1      36.423 -20.095 -17.991  0.00  0.00    -0.153 OA
BRANCH  20  23
ATOM     23  N   UNL     1      34.183 -21.297 -18.403  0.00  0.00    -0.203 NA
ATOM     24  H   UNL     1      34.013 -20.798 -17.529  0.00  0.00    +0.144 HD
ATOM     25  H   UNL     1      34.128 -22.302 -18.236  0.00  0.00    +0.144 HD
ENDBRANCH  20  23
ENDBRANCH  15  20
ENDBRANCH   4  14
BRANCH   6  26
ATOM     26  O   UNL     1      33.315 -13.420 -21.373  0.00  0.00    -0.453 OA
BRANCH  26  27
ATOM     27  C   UNL     1      32.010 -13.031 -20.988  0.00  0.00    +0.208 C 
BRANCH  27  28
ATOM     28  C   UNL     1      31.989 -11.514 -20.809  0.00  0.00    +0.044 C 
ATOM     29  C   UNL     1      30.951 -10.872 -21.739  0.00  0.00    +0.004 C 
ATOM     30  C   UNL     1      31.715 -11.145 -19.345  0.00  0.00    +0.004 C 
ATOM     31  C   UNL     1      30.874  -9.360 -21.540  0.00  0.00    +0.000 C 
ATOM     32  C   UNL     1      31.637  -9.632 -19.151  0.00  0.00    +0.000 C 
ATOM     33  C   UNL     1      30.609  -8.997 -20.082  0.00  0.00    +0.000 C 
ENDBRANCH  27  28
ENDBRANCH  26  27
ENDBRANCH   6  26
TORSDOF 6
ENDMDL
