MODEL 1
REMARK VINA RESULT:     -10.9      0.000      0.000
REMARK  Name = 2766552
REMARK  3 active torsions:
REMARK  status: ('A' for Active; 'I' for Inactive)
REMARK    1  A    between atoms: N_1  and  C_16
REMARK    2  A    between atoms: C_5  and  C_10
REMARK    3  A    between atoms: C_16  and  C_19
REMARK                            x       y       z     vdW  Elec       q    Type
REMARK                         _______ _______ _______ _____ _____    ______ ____
ROOT
ATOM      1  N   UNL     1      34.465 -16.880 -22.642  0.00  0.00    -0.276 N 
ATOM      2  N   UNL     1      33.616 -18.906 -22.777  0.00  0.00    -0.391 NA
ATOM      3  C   UNL     1      33.772 -17.761 -23.402  0.00  0.00    +0.161 C 
ATOM      4  C   UNL     1      34.780 -17.471 -21.464  0.00  0.00    +0.155 C 
ATOM      5  C   UNL     1      34.242 -18.733 -21.568  0.00  0.00    +0.160 C 
ATOM      6  C   UNL     1      33.273 -17.435 -24.754  0.00  0.00    +0.084 C 
ENDROOT
BRANCH   5  10
ATOM      7  N   UNL     1      33.138 -20.196 -20.083  0.00  0.00    -0.335 NA
ATOM      8  N   UNL     1      34.362 -21.661 -18.611  0.00  0.00    -0.170 NA
ATOM      9  N   UNL     1      32.015 -21.639 -18.614  0.00  0.00    -0.293 N 
ATOM     10  C   UNL     1      34.318 -19.738 -20.554  0.00  0.00    +0.173 C 
ATOM     11  C   UNL     1      35.545 -20.191 -20.105  0.00  0.00    +0.057 C 
ATOM     12  C   UNL     1      35.505 -21.161 -19.125  0.00  0.00    +0.114 C 
ATOM     13  C   UNL     1      33.232 -21.140 -19.128  0.00  0.00    +0.141 C 
ATOM     14  H   UNL     1      31.158 -21.296 -18.955  0.00  0.00    +0.155 HD
ATOM     15  H   UNL     1      32.023 -22.332 -17.914  0.00  0.00    +0.155 HD
ENDBRANCH   5  10
BRANCH   1  16
ATOM     16  C   UNL     1      34.825 -15.511 -23.015  0.00  0.00    +0.122 C 
BRANCH  16  19
ATOM     17 CL   UNL     1      34.255 -15.193 -20.033  0.00  0.00    -0.082 Cl
ATOM     18 CL   UNL     1      33.430 -14.039 -25.297  0.00  0.00    -0.082 Cl
ATOM     19  C   UNL     1      33.753 -14.534 -22.633  0.00  0.00    +0.019 C 
ATOM     20  C   UNL     1      33.438 -14.335 -21.289  0.00  0.00    +0.056 C 
ATOM     21  C   UNL     1      33.072 -13.824 -23.622  0.00  0.00    +0.056 C 
ATOM     22  C   UNL     1      32.441 -13.426 -20.934  0.00  0.00    +0.011 C 
ATOM     23  C   UNL     1      32.076 -12.916 -23.266  0.00  0.00    +0.011 C 
ATOM     24  C   UNL     1      31.760 -12.717 -21.922  0.00  0.00    +0.002 C 
ENDBRANCH  16  19
ENDBRANCH   1  16
TORSDOF 3
ENDMDL
MODEL 2
REMARK VINA RESULT:     -10.4      0.740      2.379
REMARK  Name = 2766552
REMARK  3 active torsions:
REMARK  status: ('A' for Active; 'I' for Inactive)
REMARK    1  A    between atoms: N_1  and  C_16
REMARK    2  A    between atoms: C_5  and  C_10
REMARK    3  A    between atoms: C_16  and  C_19
REMARK                            x       y       z     vdW  Elec       q    Type
REMARK                         _______ _______ _______ _____ _____    ______ ____
ROOT
ATOM      1  N   UNL     1      34.426 -17.041 -22.540  0.00  0.00    -0.276 N 
ATOM      2  N   UNL     1      33.496 -19.029 -22.708  0.00  0.00    -0.391 NA
ATOM      3  C   UNL     1      33.761 -17.909 -23.341  0.00  0.00    +0.161 C 
ATOM      4  C   UNL     1      34.607 -17.617 -21.327  0.00  0.00    +0.155 C 
ATOM      5  C   UNL     1      34.020 -18.855 -21.452  0.00  0.00    +0.160 C 
ATOM      6  C   UNL     1      33.401 -17.594 -24.739  0.00  0.00    +0.084 C 
ENDROOT
BRANCH   5  10
ATOM      7  N   UNL     1      35.132 -20.150 -19.824  0.00  0.00    -0.335 NA
ATOM      8  N   UNL     1      33.942 -21.708 -18.422  0.00  0.00    -0.170 NA
ATOM      9  N   UNL     1      36.263 -21.428 -18.214  0.00  0.00    -0.293 N 
ATOM     10  C   UNL     1      33.958 -19.837 -20.415  0.00  0.00    +0.173 C 
ATOM     11  C   UNL     1      32.751 -20.413 -20.064  0.00  0.00    +0.057 C 
ATOM     12  C   UNL     1      32.805 -21.350 -19.053  0.00  0.00    +0.114 C 
ATOM     13  C   UNL     1      35.053 -21.078 -18.852  0.00  0.00    +0.141 C 
ATOM     14  H   UNL     1      37.105 -20.998 -18.488  0.00  0.00    +0.155 HD
ATOM     15  H   UNL     1      36.264 -22.101 -17.496  0.00  0.00    +0.155 HD
ENDBRANCH   5  10
BRANCH   1  16
ATOM     16  C   UNL     1      34.883 -15.700 -22.907  0.00  0.00    +0.122 C 
BRANCH  16  19
ATOM     17 CL   UNL     1      33.625 -14.362 -25.346  0.00  0.00    -0.082 Cl
ATOM     18 CL   UNL     1      34.213 -15.142 -19.982  0.00  0.00    -0.082 Cl
ATOM     19  C   UNL     1      33.831 -14.666 -22.642  0.00  0.00    +0.019 C 
ATOM     20  C   UNL     1      33.211 -14.013 -23.706  0.00  0.00    +0.056 C 
ATOM     21  C   UNL     1      33.472 -14.357 -21.329  0.00  0.00    +0.056 C 
ATOM     22  C   UNL     1      32.231 -13.050 -23.459  0.00  0.00    +0.011 C 
ATOM     23  C   UNL     1      32.492 -13.396 -21.083  0.00  0.00    +0.011 C 
ATOM     24  C   UNL     1      31.872 -12.742 -22.148  0.00  0.00    +0.002 C 
ENDBRANCH  16  19
ENDBRANCH   1  16
TORSDOF 3
ENDMDL
MODEL 3
REMARK VINA RESULT:      -9.9      6.825     10.872
REMARK  Name = 2766552
REMARK  3 active torsions:
REMARK  status: ('A' for Active; 'I' for Inactive)
REMARK    1  A    between atoms: N_1  and  C_16
REMARK    2  A    between atoms: C_5  and  C_10
REMARK    3  A    between atoms: C_16  and  C_19
REMARK                            x       y       z     vdW  Elec       q    Type
REMARK                         _______ _______ _______ _____ _____    ______ ____
ROOT
ATOM      1  N   UNL     1      34.537 -23.812 -14.245  0.00  0.00    -0.276 N 
ATOM      2  N   UNL     1      32.900 -23.112 -15.540  0.00  0.00    -0.391 NA
ATOM      3  C   UNL     1      33.196 -23.734 -14.421  0.00  0.00    +0.161 C 
ATOM      4  C   UNL     1      35.152 -23.214 -15.294  0.00  0.00    +0.155 C 
ATOM      5  C   UNL     1      34.115 -22.785 -16.090  0.00  0.00    +0.160 C 
ATOM      6  C   UNL     1      32.227 -24.291 -13.454  0.00  0.00    +0.084 C 
ENDROOT
BRANCH   5  10
ATOM      7  N   UNL     1      33.144 -21.902 -18.050  0.00  0.00    -0.335 NA
ATOM      8  N   UNL     1      34.469 -20.772 -19.717  0.00  0.00    -0.170 NA
ATOM      9  N   UNL     1      32.153 -21.034 -19.991  0.00  0.00    -0.293 N 
ATOM     10  C   UNL     1      34.271 -22.090 -17.329  0.00  0.00    +0.173 C 
ATOM     11  C   UNL     1      35.518 -21.652 -17.737  0.00  0.00    +0.057 C 
ATOM     12  C   UNL     1      35.556 -20.993 -18.949  0.00  0.00    +0.114 C 
ATOM     13  C   UNL     1      33.312 -21.247 -19.214  0.00  0.00    +0.141 C 
ATOM     14  H   UNL     1      31.280 -21.358 -19.672  0.00  0.00    +0.155 HD
ATOM     15  H   UNL     1      32.217 -20.560 -20.851  0.00  0.00    +0.155 HD
ENDBRANCH   5  10
BRANCH   1  16
ATOM     16  C   UNL     1      35.227 -24.434 -13.114  0.00  0.00    +0.122 C 
BRANCH  16  19
ATOM     17 CL   UNL     1      37.100 -22.511 -11.660  0.00  0.00    -0.082 Cl
ATOM     18 CL   UNL     1      36.044 -26.645 -15.055  0.00  0.00    -0.082 Cl
ATOM     19  C   UNL     1      36.694 -24.591 -13.379  0.00  0.00    +0.019 C 
ATOM     20  C   UNL     1      37.610 -23.749 -12.750  0.00  0.00    +0.056 C 
ATOM     21  C   UNL     1      37.143 -25.580 -14.255  0.00  0.00    +0.056 C 
ATOM     22  C   UNL     1      38.976 -23.895 -12.997  0.00  0.00    +0.011 C 
ATOM     23  C   UNL     1      38.508 -25.725 -14.501  0.00  0.00    +0.011 C 
ATOM     24  C   UNL     1      39.425 -24.883 -13.873  0.00  0.00    +0.002 C 
ENDBRANCH  16  19
ENDBRANCH   1  16
TORSDOF 3
ENDMDL
MODEL 4
REMARK VINA RESULT:      -9.8      6.750     10.894
REMARK  Name = 2766552
REMARK  3 active torsions:
REMARK  status: ('A' for Active; 'I' for Inactive)
REMARK    1  A    between atoms: N_1  and  C_16
REMARK    2  A    between atoms: C_5  and  C_10
REMARK    3  A    between atoms: C_16  and  C_19
REMARK                            x       y       z     vdW  Elec       q    Type
REMARK                         _______ _______ _______ _____ _____    ______ ____
ROOT
ATOM      1  N   UNL     1      34.494 -23.758 -14.298  0.00  0.00    -0.276 N 
ATOM      2  N   UNL     1      32.875 -23.048 -15.611  0.00  0.00    -0.391 NA
ATOM      3  C   UNL     1      33.155 -23.672 -14.489  0.00  0.00    +0.161 C 
ATOM      4  C   UNL     1      35.123 -23.163 -15.341  0.00  0.00    +0.155 C 
ATOM      5  C   UNL     1      34.097 -22.727 -16.147  0.00  0.00    +0.160 C 
ATOM      6  C   UNL     1      32.172 -24.224 -13.533  0.00  0.00    +0.084 C 
ENDROOT
BRANCH   5  10
ATOM      7  N   UNL     1      33.146 -21.792 -18.092  0.00  0.00    -0.335 NA
ATOM      8  N   UNL     1      34.501 -20.709 -19.766  0.00  0.00    -0.170 NA
ATOM      9  N   UNL     1      32.173 -20.873 -20.019  0.00  0.00    -0.293 N 
ATOM     10  C   UNL     1      34.271 -22.032 -17.384  0.00  0.00    +0.173 C 
ATOM     11  C   UNL     1      35.531 -21.644 -17.801  0.00  0.00    +0.057 C 
ATOM     12  C   UNL     1      35.585 -20.980 -19.009  0.00  0.00    +0.114 C 
ATOM     13  C   UNL     1      33.330 -21.138 -19.255  0.00  0.00    +0.141 C 
ATOM     14  H   UNL     1      31.291 -21.162 -19.694  0.00  0.00    +0.155 HD
ATOM     15  H   UNL     1      32.249 -20.397 -20.878  0.00  0.00    +0.155 HD
ENDBRANCH   5  10
BRANCH   1  16
ATOM     16  C   UNL     1      35.168 -24.386 -13.160  0.00  0.00    +0.122 C 
BRANCH  16  19
ATOM     17 CL   UNL     1      36.018 -26.614 -15.065  0.00  0.00    -0.082 Cl
ATOM     18 CL   UNL     1      37.014 -22.439 -11.704  0.00  0.00    -0.082 Cl
ATOM     19  C   UNL     1      36.639 -24.539 -13.406  0.00  0.00    +0.019 C 
ATOM     20  C   UNL     1      37.102 -25.535 -14.265  0.00  0.00    +0.056 C 
ATOM     21  C   UNL     1      37.544 -23.686 -12.775  0.00  0.00    +0.056 C 
ATOM     22  C   UNL     1      38.471 -25.678 -14.494  0.00  0.00    +0.011 C 
ATOM     23  C   UNL     1      38.912 -23.829 -13.004  0.00  0.00    +0.011 C 
ATOM     24  C   UNL     1      39.376 -24.825 -13.863  0.00  0.00    +0.002 C 
ENDBRANCH  16  19
ENDBRANCH   1  16
TORSDOF 3
ENDMDL
MODEL 5
REMARK VINA RESULT:      -9.8      5.250      8.140
REMARK  Name = 2766552
REMARK  3 active torsions:
REMARK  status: ('A' for Active; 'I' for Inactive)
REMARK    1  A    between atoms: N_1  and  C_16
REMARK    2  A    between atoms: C_5  and  C_10
REMARK    3  A    between atoms: C_16  and  C_19
REMARK                            x       y       z     vdW  Elec       q    Type
REMARK                         _______ _______ _______ _____ _____    ______ ____
ROOT
ATOM      1  N   UNL     1      31.199  -9.335 -21.792  0.00  0.00    -0.276 N 
ATOM      2  N   UNL     1      31.631 -11.132 -20.595  0.00  0.00    -0.391 NA
ATOM      3  C   UNL     1      31.126  -9.919 -20.571  0.00  0.00    +0.161 C 
ATOM      4  C   UNL     1      31.778 -10.202 -22.657  0.00  0.00    +0.155 C 
ATOM      5  C   UNL     1      32.040 -11.315 -21.892  0.00  0.00    +0.160 C 
ATOM      6  C   UNL     1      30.544  -9.243 -19.393  0.00  0.00    +0.084 C 
ENDROOT
BRANCH   5  10
ATOM      7  N   UNL     1      32.467 -12.790 -23.683  0.00  0.00    -0.335 NA
ATOM      8  N   UNL     1      33.797 -14.778 -23.392  0.00  0.00    -0.170 NA
ATOM      9  N   UNL     1      32.873 -14.241 -25.481  0.00  0.00    -0.293 N 
ATOM     10  C   UNL     1      32.658 -12.510 -22.375  0.00  0.00    +0.173 C 
ATOM     11  C   UNL     1      33.399 -13.311 -21.525  0.00  0.00    +0.057 C 
ATOM     12  C   UNL     1      33.950 -14.441 -22.094  0.00  0.00    +0.114 C 
ATOM     13  C   UNL     1      33.054 -13.921 -24.118  0.00  0.00    +0.141 C 
ATOM     14  H   UNL     1      32.340 -13.649 -26.059  0.00  0.00    +0.155 HD
ATOM     15  H   UNL     1      33.281 -15.056 -25.853  0.00  0.00    +0.155 HD
ENDBRANCH   5  10
BRANCH   1  16
ATOM     16  C   UNL     1      30.734  -7.991 -22.138  0.00  0.00    +0.122 C 
BRANCH  16  19
ATOM     17 CL   UNL     1      32.864  -6.912 -20.237  0.00  0.00    -0.082 Cl
ATOM     18 CL   UNL     1      30.610  -7.561 -25.158  0.00  0.00    -0.082 Cl
ATOM     19  C   UNL     1      31.829  -7.168 -22.748  0.00  0.00    +0.019 C 
ATOM     20  C   UNL     1      32.838  -6.642 -21.942  0.00  0.00    +0.056 C 
ATOM     21  C   UNL     1      31.839  -6.929 -24.123  0.00  0.00    +0.056 C 
ATOM     22  C   UNL     1      33.857  -5.877 -22.510  0.00  0.00    +0.011 C 
ATOM     23  C   UNL     1      32.858  -6.164 -24.689  0.00  0.00    +0.011 C 
ATOM     24  C   UNL     1      33.867  -5.637 -23.883  0.00  0.00    +0.002 C 
ENDBRANCH  16  19
ENDBRANCH   1  16
TORSDOF 3
ENDMDL
MODEL 6
REMARK VINA RESULT:      -9.8      5.247      8.342
REMARK  Name = 2766552
REMARK  3 active torsions:
REMARK  status: ('A' for Active; 'I' for Inactive)
REMARK    1  A    between atoms: N_1  and  C_16
REMARK    2  A    between atoms: C_5  and  C_10
REMARK    3  A    between atoms: C_16  and  C_19
REMARK                            x       y       z     vdW  Elec       q    Type
REMARK                         _______ _______ _______ _____ _____    ______ ____
ROOT
ATOM      1  N   UNL     1      31.197  -9.340 -21.788  0.00  0.00    -0.276 N 
ATOM      2  N   UNL     1      31.629 -11.134 -20.587  0.00  0.00    -0.391 NA
ATOM      3  C   UNL     1      31.123  -9.921 -20.566  0.00  0.00    +0.161 C 
ATOM      4  C   UNL     1      31.777 -10.209 -22.651  0.00  0.00    +0.155 C 
ATOM      5  C   UNL     1      32.038 -11.320 -21.883  0.00  0.00    +0.160 C 
ATOM      6  C   UNL     1      30.541  -9.243 -19.389  0.00  0.00    +0.084 C 
ENDROOT
BRANCH   5  10
ATOM      7  N   UNL     1      32.465 -12.799 -23.670  0.00  0.00    -0.335 NA
ATOM      8  N   UNL     1      33.797 -14.786 -23.375  0.00  0.00    -0.170 NA
ATOM      9  N   UNL     1      32.872 -14.254 -25.465  0.00  0.00    -0.293 N 
ATOM     10  C   UNL     1      32.656 -12.516 -22.364  0.00  0.00    +0.173 C 
ATOM     11  C   UNL     1      33.398 -13.315 -21.512  0.00  0.00    +0.057 C 
ATOM     12  C   UNL     1      33.949 -14.446 -22.078  0.00  0.00    +0.114 C 
ATOM     13  C   UNL     1      33.053 -13.931 -24.103  0.00  0.00    +0.141 C 
ATOM     14  H   UNL     1      32.338 -13.664 -26.045  0.00  0.00    +0.155 HD
ATOM     15  H   UNL     1      33.280 -15.070 -25.836  0.00  0.00    +0.155 HD
ENDBRANCH   5  10
BRANCH   1  16
ATOM     16  C   UNL     1      30.732  -7.997 -22.137  0.00  0.00    +0.122 C 
BRANCH  16  19
ATOM     17 CL   UNL     1      30.614  -7.544 -25.153  0.00  0.00    -0.082 Cl
ATOM     18 CL   UNL     1      32.862  -6.937 -20.224  0.00  0.00    -0.082 Cl
ATOM     19  C   UNL     1      31.830  -7.171 -22.739  0.00  0.00    +0.019 C 
ATOM     20  C   UNL     1      31.841  -6.921 -24.111  0.00  0.00    +0.056 C 
ATOM     21  C   UNL     1      32.838  -6.653 -21.926  0.00  0.00    +0.056 C 
ATOM     22  C   UNL     1      32.862  -6.153 -24.671  0.00  0.00    +0.011 C 
ATOM     23  C   UNL     1      33.858  -5.885 -22.487  0.00  0.00    +0.011 C 
ATOM     24  C   UNL     1      33.871  -5.635 -23.859  0.00  0.00    +0.002 C 
ENDBRANCH  16  19
ENDBRANCH   1  16
TORSDOF 3
ENDMDL
MODEL 7
REMARK VINA RESULT:      -9.6      4.494      7.078
REMARK  Name = 2766552
REMARK  3 active torsions:
REMARK  status: ('A' for Active; 'I' for Inactive)
REMARK    1  A    between atoms: N_1  and  C_16
REMARK    2  A    between atoms: C_5  and  C_10
REMARK    3  A    between atoms: C_16  and  C_19
REMARK                            x       y       z     vdW  Elec       q    Type
REMARK                         _______ _______ _______ _____ _____    ______ ____
ROOT
ATOM      1  N   UNL     1      31.585 -10.477 -22.331  0.00  0.00    -0.276 N 
ATOM      2  N   UNL     1      33.486 -11.211 -23.164  0.00  0.00    -0.391 NA
ATOM      3  C   UNL     1      32.673 -10.182 -23.083  0.00  0.00    +0.161 C 
ATOM      4  C   UNL     1      31.686 -11.757 -21.898  0.00  0.00    +0.155 C 
ATOM      5  C   UNL     1      32.877 -12.197 -22.428  0.00  0.00    +0.160 C 
ATOM      6  C   UNL     1      32.878  -8.861 -23.712  0.00  0.00    +0.084 C 
ENDROOT
BRANCH   5  10
ATOM      7  N   UNL     1      33.693 -14.200 -23.369  0.00  0.00    -0.335 NA
ATOM      8  N   UNL     1      34.454 -16.025 -21.992  0.00  0.00    -0.170 NA
ATOM      9  N   UNL     1      34.499 -16.181 -24.333  0.00  0.00    -0.293 N 
ATOM     10  C   UNL     1      33.418 -13.507 -22.243  0.00  0.00    +0.173 C 
ATOM     11  C   UNL     1      33.633 -14.006 -20.971  0.00  0.00    +0.057 C 
ATOM     12  C   UNL     1      34.157 -15.280 -20.907  0.00  0.00    +0.114 C 
ATOM     13  C   UNL     1      34.200 -15.432 -23.174  0.00  0.00    +0.141 C 
ATOM     14  H   UNL     1      34.335 -15.797 -25.224  0.00  0.00    +0.155 HD
ATOM     15  H   UNL     1      34.872 -17.088 -24.249  0.00  0.00    +0.155 HD
ENDBRANCH   5  10
BRANCH   1  16
ATOM     16  C   UNL     1      30.473  -9.575 -22.025  0.00  0.00    +0.122 C 
BRANCH  16  19
ATOM     17 CL   UNL     1      31.539  -9.837 -19.177  0.00  0.00    -0.082 Cl
ATOM     18 CL   UNL     1      30.278  -7.005 -23.662  0.00  0.00    -0.082 Cl
ATOM     19  C   UNL     1      30.948  -8.316 -21.364  0.00  0.00    +0.019 C 
ATOM     20  C   UNL     1      31.450  -8.359 -20.063  0.00  0.00    +0.056 C 
ATOM     21  C   UNL     1      30.890  -7.103 -22.050  0.00  0.00    +0.056 C 
ATOM     22  C   UNL     1      31.893  -7.187 -19.448  0.00  0.00    +0.011 C 
ATOM     23  C   UNL     1      31.333  -5.933 -21.435  0.00  0.00    +0.011 C 
ATOM     24  C   UNL     1      31.835  -5.974 -20.134  0.00  0.00    +0.002 C 
ENDBRANCH  16  19
ENDBRANCH   1  16
TORSDOF 3
ENDMDL
MODEL 8
REMARK VINA RESULT:      -9.3      8.130     11.065
REMARK  Name = 2766552
REMARK  3 active torsions:
REMARK  status: ('A' for Active; 'I' for Inactive)
REMARK    1  A    between atoms: N_1  and  C_16
REMARK    2  A    between atoms: C_5  and  C_10
REMARK    3  A    between atoms: C_16  and  C_19
REMARK                            x       y       z     vdW  Elec       q    Type
REMARK                         _______ _______ _______ _____ _____    ______ ____
ROOT
ATOM      1  N   UNL     1      34.499 -22.609 -14.654  0.00  0.00    -0.276 N 
ATOM      2  N   UNL     1      33.112 -22.756 -16.357  0.00  0.00    -0.391 NA
ATOM      3  C   UNL     1      34.338 -22.458 -15.991  0.00  0.00    +0.161 C 
ATOM      4  C   UNL     1      33.327 -23.024 -14.116  0.00  0.00    +0.155 C 
ATOM      5  C   UNL     1      32.476 -23.110 -15.193  0.00  0.00    +0.160 C 
ATOM      6  C   UNL     1      35.427 -22.014 -16.885  0.00  0.00    +0.084 C 
ENDROOT
BRANCH   5  10
ATOM      7  N   UNL     1      30.264 -22.911 -15.986  0.00  0.00    -0.335 NA
ATOM      8  N   UNL     1      28.464 -24.216 -15.054  0.00  0.00    -0.170 NA
ATOM      9  N   UNL     1      28.072 -22.690 -16.794  0.00  0.00    -0.293 N 
ATOM     10  C   UNL     1      31.106 -23.513 -15.120  0.00  0.00    +0.173 C 
ATOM     11  C   UNL     1      30.702 -24.465 -14.202  0.00  0.00    +0.057 C 
ATOM     12  C   UNL     1      29.358 -24.780 -14.216  0.00  0.00    +0.114 C 
ATOM     13  C   UNL     1      28.978 -23.302 -15.901  0.00  0.00    +0.141 C 
ATOM     14  H   UNL     1      28.392 -22.016 -17.435  0.00  0.00    +0.155 HD
ATOM     15  H   UNL     1      27.119 -22.939 -16.776  0.00  0.00    +0.155 HD
ENDBRANCH   5  10
BRANCH   1  16
ATOM     16  C   UNL     1      35.729 -22.367 -13.898  0.00  0.00    +0.122 C 
BRANCH  16  19
ATOM     17 CL   UNL     1      38.084 -22.768 -15.799  0.00  0.00    -0.082 Cl
ATOM     18 CL   UNL     1      34.839 -24.270 -11.683  0.00  0.00    -0.082 Cl
ATOM     19  C   UNL     1      36.529 -23.624 -13.726  0.00  0.00    +0.019 C 
ATOM     20  C   UNL     1      37.620 -23.875 -14.558  0.00  0.00    +0.056 C 
ATOM     21  C   UNL     1      36.182 -24.541 -12.734  0.00  0.00    +0.056 C 
ATOM     22  C   UNL     1      38.364 -25.044 -14.397  0.00  0.00    +0.011 C 
ATOM     23  C   UNL     1      36.926 -25.709 -12.575  0.00  0.00    +0.011 C 
ATOM     24  C   UNL     1      38.017 -25.961 -13.406  0.00  0.00    +0.002 C 
ENDBRANCH  16  19
ENDBRANCH   1  16
TORSDOF 3
ENDMDL
MODEL 9
REMARK VINA RESULT:      -9.3      8.123     10.941
REMARK  Name = 2766552
REMARK  3 active torsions:
REMARK  status: ('A' for Active; 'I' for Inactive)
REMARK    1  A    between atoms: N_1  and  C_16
REMARK    2  A    between atoms: C_5  and  C_10
REMARK    3  A    between atoms: C_16  and  C_19
REMARK                            x       y       z     vdW  Elec       q    Type
REMARK                         _______ _______ _______ _____ _____    ______ ____
ROOT
ATOM      1  N   UNL     1      34.487 -22.605 -14.651  0.00  0.00    -0.276 N 
ATOM      2  N   UNL     1      33.100 -22.757 -16.354  0.00  0.00    -0.391 NA
ATOM      3  C   UNL     1      34.325 -22.454 -15.987  0.00  0.00    +0.161 C 
ATOM      4  C   UNL     1      33.316 -23.025 -14.113  0.00  0.00    +0.155 C 
ATOM      5  C   UNL     1      32.465 -23.114 -15.190  0.00  0.00    +0.160 C 
ATOM      6  C   UNL     1      35.413 -22.004 -16.881  0.00  0.00    +0.084 C 
ENDROOT
BRANCH   5  10
ATOM      7  N   UNL     1      30.252 -22.922 -15.984  0.00  0.00    -0.335 NA
ATOM      8  N   UNL     1      28.459 -24.236 -15.054  0.00  0.00    -0.170 NA
ATOM      9  N   UNL     1      28.060 -22.709 -16.791  0.00  0.00    -0.293 N 
ATOM     10  C   UNL     1      31.097 -23.523 -15.118  0.00  0.00    +0.173 C 
ATOM     11  C   UNL     1      30.697 -24.478 -14.202  0.00  0.00    +0.057 C 
ATOM     12  C   UNL     1      29.355 -24.798 -14.217  0.00  0.00    +0.114 C 
ATOM     13  C   UNL     1      28.968 -23.319 -15.899  0.00  0.00    +0.141 C 
ATOM     14  H   UNL     1      28.378 -22.033 -17.431  0.00  0.00    +0.155 HD
ATOM     15  H   UNL     1      27.109 -22.962 -16.774  0.00  0.00    +0.155 HD
ENDBRANCH   5  10
BRANCH   1  16
ATOM     16  C   UNL     1      35.715 -22.358 -13.894  0.00  0.00    +0.122 C 
BRANCH  16  19
ATOM     17 CL   UNL     1      34.845 -24.270 -11.679  0.00  0.00    -0.082 Cl
ATOM     18 CL   UNL     1      38.066 -22.741 -15.804  0.00  0.00    -0.082 Cl
ATOM     19  C   UNL     1      36.523 -23.610 -13.728  0.00  0.00    +0.019 C 
ATOM     20  C   UNL     1      36.184 -24.532 -12.737  0.00  0.00    +0.056 C 
ATOM     21  C   UNL     1      37.612 -23.854 -14.564  0.00  0.00    +0.056 C 
ATOM     22  C   UNL     1      36.935 -25.697 -12.583  0.00  0.00    +0.011 C 
ATOM     23  C   UNL     1      38.362 -25.019 -14.410  0.00  0.00    +0.011 C 
ATOM     24  C   UNL     1      38.024 -25.941 -13.419  0.00  0.00    +0.002 C 
ENDBRANCH  16  19
ENDBRANCH   1  16
TORSDOF 3
ENDMDL
