MODEL 1
REMARK VINA RESULT:     -13.5      0.000      0.000
REMARK  Name = 58212050
REMARK  2 active torsions:
REMARK  status: ('A' for Active; 'I' for Inactive)
REMARK    1  A    between atoms: C_2  and  C_13
REMARK    2  A    between atoms: C_10  and  C_26
REMARK                            x       y       z     vdW  Elec       q    Type
REMARK                         _______ _______ _______ _____ _____    ______ ____
ROOT
ATOM      1  N   UNL     1      36.633 -22.431 -16.687  0.00  0.00    +0.389 N 
ATOM      2  C   UNL     1      34.189 -22.751 -16.920  0.00  0.00    +0.023 C 
ATOM      3  C   UNL     1      35.381 -22.609 -15.942  0.00  0.00    -0.068 C 
ATOM      4  C   UNL     1      34.225 -21.728 -18.049  0.00  0.00    -0.026 C 
ATOM      5  C   UNL     1      35.397 -20.984 -18.286  0.00  0.00    -0.047 C 
ATOM      6  C   UNL     1      36.607 -21.141 -17.395  0.00  0.00    -0.050 C 
ATOM      7  C   UNL     1      33.133 -21.571 -18.919  0.00  0.00    -0.004 C 
ATOM      8  C   UNL     1      35.431 -20.054 -19.335  0.00  0.00    -0.005 C 
ATOM      9  C   UNL     1      37.784 -22.494 -15.786  0.00  0.00    -0.100 C 
ATOM     10  C   UNL     1      34.328 -19.888 -20.171  0.00  0.00    +0.019 C 
ATOM     11  C   UNL     1      33.182 -20.652 -19.967  0.00  0.00    +0.001 C 
ATOM     12  H   UNL     1      36.722 -23.186 -17.368  0.00  0.00    -0.079 HD
ENDROOT
BRANCH   2  13
ATOM     13  C   UNL     1      32.888 -22.762 -16.126  0.00  0.00    -0.020 C 
ATOM     14  C   UNL     1      31.668 -22.603 -16.784  0.00  0.00    -0.004 C 
ATOM     15  C   UNL     1      32.918 -22.930 -14.745  0.00  0.00    -0.004 C 
ATOM     16  C   UNL     1      30.461 -22.610 -16.067  0.00  0.00    -0.000 C 
ATOM     17  C   UNL     1      30.491 -22.781 -14.662  0.00  0.00    -0.000 C 
ATOM     18  C   UNL     1      31.727 -22.939 -14.016  0.00  0.00    -0.000 C 
ATOM     19  C   UNL     1      29.224 -22.451 -16.714  0.00  0.00    -0.000 C 
ATOM     20  C   UNL     1      29.284 -22.787 -13.945  0.00  0.00    -0.000 C 
ATOM     21  C   UNL     1      28.034 -22.461 -15.985  0.00  0.00    -0.000 C 
ATOM     22  C   UNL     1      28.063 -22.628 -14.604  0.00  0.00    -0.000 C 
ENDBRANCH   2  13
BRANCH  10  26
ATOM     23  N   UNL     1      34.882 -17.720 -20.934  0.00  0.00    -0.147 NA
ATOM     24  N   UNL     1      34.964 -16.761 -21.895  0.00  0.00    -0.133 NA
ATOM     25  N   UNL     1      34.620 -16.047 -24.144  0.00  0.00    -0.341 N 
ATOM     26  C   UNL     1      34.376 -18.930 -21.254  0.00  0.00    +0.103 C 
ATOM     27  C   UNL     1      33.932 -19.247 -22.522  0.00  0.00    +0.024 C 
ATOM     28  C   UNL     1      34.014 -18.272 -23.499  0.00  0.00    +0.037 C 
ATOM     29  C   UNL     1      34.536 -17.044 -23.145  0.00  0.00    +0.147 C 
ATOM     30  H   UNL     1      34.987 -15.160 -23.925  0.00  0.00    +0.144 HD
ATOM     31  H   UNL     1      34.311 -16.239 -25.059  0.00  0.00    +0.144 HD
ENDBRANCH  10  26
TORSDOF 2
ENDMDL
MODEL 2
REMARK VINA RESULT:     -13.0      7.940     13.744
REMARK  Name = 58212050
REMARK  2 active torsions:
REMARK  status: ('A' for Active; 'I' for Inactive)
REMARK    1  A    between atoms: C_2  and  C_13
REMARK    2  A    between atoms: C_10  and  C_26
REMARK                            x       y       z     vdW  Elec       q    Type
REMARK                         _______ _______ _______ _____ _____    ______ ____
ROOT
ATOM      1  N   UNL     1      30.679  -9.839 -20.123  0.00  0.00    +0.389 N 
ATOM      2  C   UNL     1      31.561  -9.424 -22.398  0.00  0.00    +0.023 C 
ATOM      3  C   UNL     1      31.281  -8.827 -20.998  0.00  0.00    -0.068 C 
ATOM      4  C   UNL     1      32.201 -10.806 -22.335  0.00  0.00    -0.026 C 
ATOM      5  C   UNL     1      32.214 -11.520 -21.122  0.00  0.00    -0.047 C 
ATOM      6  C   UNL     1      31.656 -10.908 -19.857  0.00  0.00    -0.050 C 
ATOM      7  C   UNL     1      32.705 -11.423 -23.492  0.00  0.00    -0.004 C 
ATOM      8  C   UNL     1      32.792 -12.797 -21.071  0.00  0.00    -0.005 C 
ATOM      9  C   UNL     1      30.231  -9.238 -18.866  0.00  0.00    -0.100 C 
ATOM     10  C   UNL     1      33.315 -13.383 -22.222  0.00  0.00    +0.019 C 
ATOM     11  C   UNL     1      33.265 -12.699 -23.433  0.00  0.00    +0.001 C 
ATOM     12  H   UNL     1      29.865 -10.238 -20.590  0.00  0.00    -0.079 HD
ENDROOT
BRANCH   2  13
ATOM     13  C   UNL     1      32.339  -8.410 -23.229  0.00  0.00    -0.020 C 
ATOM     14  C   UNL     1      31.656  -7.493 -24.028  0.00  0.00    -0.004 C 
ATOM     15  C   UNL     1      33.730  -8.401 -23.192  0.00  0.00    -0.004 C 
ATOM     16  C   UNL     1      32.357  -6.553 -24.800  0.00  0.00    -0.000 C 
ATOM     17  C   UNL     1      33.771  -6.545 -24.762  0.00  0.00    -0.000 C 
ATOM     18  C   UNL     1      34.443  -7.475 -23.953  0.00  0.00    -0.000 C 
ATOM     19  C   UNL     1      31.685  -5.623 -25.610  0.00  0.00    -0.000 C 
ATOM     20  C   UNL     1      34.473  -5.605 -25.536  0.00  0.00    -0.000 C 
ATOM     21  C   UNL     1      32.398  -4.696 -26.371  0.00  0.00    -0.000 C 
ATOM     22  C   UNL     1      33.789  -4.687 -26.334  0.00  0.00    -0.000 C 
ENDBRANCH   2  13
BRANCH  10  26
ATOM     23  N   UNL     1      34.147 -15.171 -20.917  0.00  0.00    -0.147 NA
ATOM     24  N   UNL     1      34.699 -16.405 -20.769  0.00  0.00    -0.133 NA
ATOM     25  N   UNL     1      35.561 -18.417 -21.717  0.00  0.00    -0.341 N 
ATOM     26  C   UNL     1      33.902 -14.704 -22.160  0.00  0.00    +0.103 C 
ATOM     27  C   UNL     1      34.187 -15.425 -23.302  0.00  0.00    +0.024 C 
ATOM     28  C   UNL     1      34.748 -16.681 -23.152  0.00  0.00    +0.037 C 
ATOM     29  C   UNL     1      34.987 -17.132 -21.870  0.00  0.00    +0.147 C 
ATOM     30  H   UNL     1      35.745 -18.769 -20.817  0.00  0.00    +0.144 HD
ATOM     31  H   UNL     1      35.777 -18.957 -22.511  0.00  0.00    +0.144 HD
ENDBRANCH  10  26
TORSDOF 2
ENDMDL
MODEL 3
REMARK VINA RESULT:     -11.8      2.418      5.781
REMARK  Name = 58212050
REMARK  2 active torsions:
REMARK  status: ('A' for Active; 'I' for Inactive)
REMARK    1  A    between atoms: C_2  and  C_13
REMARK    2  A    between atoms: C_10  and  C_26
REMARK                            x       y       z     vdW  Elec       q    Type
REMARK                         _______ _______ _______ _____ _____    ______ ____
ROOT
ATOM      1  N   UNL     1      31.946 -23.086 -15.440  0.00  0.00    +0.389 N 
ATOM      2  C   UNL     1      34.411 -23.107 -15.214  0.00  0.00    +0.023 C 
ATOM      3  C   UNL     1      33.097 -23.908 -15.050  0.00  0.00    -0.068 C 
ATOM      4  C   UNL     1      34.477 -22.341 -16.529  0.00  0.00    -0.026 C 
ATOM      5  C   UNL     1      33.314 -22.177 -17.306  0.00  0.00    -0.047 C 
ATOM      6  C   UNL     1      32.006 -22.806 -16.884  0.00  0.00    -0.050 C 
ATOM      7  C   UNL     1      35.664 -21.715 -16.945  0.00  0.00    -0.004 C 
ATOM      8  C   UNL     1      33.375 -21.459 -18.510  0.00  0.00    -0.005 C 
ATOM      9  C   UNL     1      30.692 -23.760 -15.105  0.00  0.00    -0.100 C 
ATOM     10  C   UNL     1      34.569 -20.870 -18.923  0.00  0.00    +0.019 C 
ATOM     11  C   UNL     1      35.711 -20.993 -18.137  0.00  0.00    +0.001 C 
ATOM     12  H   UNL     1      31.980 -22.206 -14.926  0.00  0.00    -0.079 HD
ENDROOT
BRANCH   2  13
ATOM     13  C   UNL     1      35.597 -24.032 -14.967  0.00  0.00    -0.020 C 
ATOM     14  C   UNL     1      36.880 -23.500 -14.830  0.00  0.00    -0.004 C 
ATOM     15  C   UNL     1      35.400 -25.407 -14.881  0.00  0.00    -0.004 C 
ATOM     16  C   UNL     1      37.983 -24.339 -14.604  0.00  0.00    -0.000 C 
ATOM     17  C   UNL     1      37.782 -25.737 -14.516  0.00  0.00    -0.000 C 
ATOM     18  C   UNL     1      36.485 -26.255 -14.657  0.00  0.00    -0.000 C 
ATOM     19  C   UNL     1      39.280 -23.820 -14.463  0.00  0.00    -0.000 C 
ATOM     20  C   UNL     1      38.886 -26.576 -14.291  0.00  0.00    -0.000 C 
ATOM     21  C   UNL     1      40.365 -24.668 -14.239  0.00  0.00    -0.000 C 
ATOM     22  C   UNL     1      40.169 -26.043 -14.154  0.00  0.00    -0.000 C 
ENDBRANCH   2  13
BRANCH  10  26
ATOM     23  N   UNL     1      33.445 -20.017 -20.820  0.00  0.00    -0.147 NA
ATOM     24  N   UNL     1      33.404 -19.333 -21.995  0.00  0.00    -0.133 NA
ATOM     25  N   UNL     1      34.499 -18.069 -23.696  0.00  0.00    -0.341 N 
ATOM     26  C   UNL     1      34.619 -20.127 -20.163  0.00  0.00    +0.103 C 
ATOM     27  C   UNL     1      35.795 -19.573 -20.628  0.00  0.00    +0.024 C 
ATOM     28  C   UNL     1      35.754 -18.877 -21.823  0.00  0.00    +0.037 C 
ATOM     29  C   UNL     1      34.540 -18.781 -22.474  0.00  0.00    +0.147 C 
ATOM     30  H   UNL     1      33.649 -17.982 -24.186  0.00  0.00    +0.144 HD
ATOM     31  H   UNL     1      35.319 -17.663 -24.056  0.00  0.00    +0.144 HD
ENDBRANCH  10  26
TORSDOF 2
ENDMDL
MODEL 4
REMARK VINA RESULT:     -11.4      8.108     13.723
REMARK  Name = 58212050
REMARK  2 active torsions:
REMARK  status: ('A' for Active; 'I' for Inactive)
REMARK    1  A    between atoms: C_2  and  C_13
REMARK    2  A    between atoms: C_10  and  C_26
REMARK                            x       y       z     vdW  Elec       q    Type
REMARK                         _______ _______ _______ _____ _____    ______ ____
ROOT
ATOM      1  N   UNL     1      30.800  -9.749 -19.473  0.00  0.00    +0.389 N 
ATOM      2  C   UNL     1      30.951  -9.299 -21.903  0.00  0.00    +0.023 C 
ATOM      3  C   UNL     1      31.044  -8.706 -20.476  0.00  0.00    -0.068 C 
ATOM      4  C   UNL     1      31.686 -10.627 -22.041  0.00  0.00    -0.026 C 
ATOM      5  C   UNL     1      32.105 -11.321 -20.890  0.00  0.00    -0.047 C 
ATOM      6  C   UNL     1      31.891 -10.737 -19.512  0.00  0.00    -0.050 C 
ATOM      7  C   UNL     1      31.880 -11.220 -23.299  0.00  0.00    -0.004 C 
ATOM      8  C   UNL     1      32.768 -12.550 -21.020  0.00  0.00    -0.005 C 
ATOM      9  C   UNL     1      30.690  -9.167 -18.136  0.00  0.00    -0.100 C 
ATOM     10  C   UNL     1      32.980 -13.110 -22.279  0.00  0.00    +0.019 C 
ATOM     11  C   UNL     1      32.529 -12.449 -23.417  0.00  0.00    +0.001 C 
ATOM     12  H   UNL     1      29.918 -10.215 -19.689  0.00  0.00    -0.079 HD
ENDROOT
BRANCH   2  13
ATOM     13  C   UNL     1      31.375  -8.240 -22.915  0.00  0.00    -0.020 C 
ATOM     14  C   UNL     1      32.597  -7.584 -22.766  0.00  0.00    -0.004 C 
ATOM     15  C   UNL     1      30.541  -7.928 -23.984  0.00  0.00    -0.004 C 
ATOM     16  C   UNL     1      33.001  -6.606 -23.689  0.00  0.00    -0.000 C 
ATOM     17  C   UNL     1      32.154  -6.288 -24.776  0.00  0.00    -0.000 C 
ATOM     18  C   UNL     1      30.927  -6.958 -24.910  0.00  0.00    -0.000 C 
ATOM     19  C   UNL     1      34.228  -5.936 -23.554  0.00  0.00    -0.000 C 
ATOM     20  C   UNL     1      32.558  -5.309 -25.699  0.00  0.00    -0.000 C 
ATOM     21  C   UNL     1      34.614  -4.966 -24.480  0.00  0.00    -0.000 C 
ATOM     22  C   UNL     1      33.781  -4.653 -25.550  0.00  0.00    -0.000 C 
ENDBRANCH   2  13
BRANCH  10  26
ATOM     23  N   UNL     1      34.095 -14.920 -21.242  0.00  0.00    -0.147 NA
ATOM     24  N   UNL     1      34.745 -16.114 -21.268  0.00  0.00    -0.133 NA
ATOM     25  N   UNL     1      35.613 -17.974 -22.482  0.00  0.00    -0.341 N 
ATOM     26  C   UNL     1      33.660 -14.381 -22.401  0.00  0.00    +0.103 C 
ATOM     27  C   UNL     1      33.843 -14.990 -23.627  0.00  0.00    +0.024 C 
ATOM     28  C   UNL     1      34.504 -16.205 -23.654  0.00  0.00    +0.037 C 
ATOM     29  C   UNL     1      34.937 -16.732 -22.454  0.00  0.00    +0.147 C 
ATOM     30  H   UNL     1      35.936 -18.378 -21.644  0.00  0.00    +0.144 HD
ATOM     31  H   UNL     1      35.761 -18.434 -23.339  0.00  0.00    +0.144 HD
ENDBRANCH  10  26
TORSDOF 2
ENDMDL
MODEL 5
REMARK VINA RESULT:     -11.3      1.473      2.229
REMARK  Name = 58212050
REMARK  2 active torsions:
REMARK  status: ('A' for Active; 'I' for Inactive)
REMARK    1  A    between atoms: C_2  and  C_13
REMARK    2  A    between atoms: C_10  and  C_26
REMARK                            x       y       z     vdW  Elec       q    Type
REMARK                         _______ _______ _______ _____ _____    ______ ____
ROOT
ATOM      1  N   UNL     1      34.737 -23.958 -15.105  0.00  0.00    +0.389 N 
ATOM      2  C   UNL     1      32.463 -23.480 -15.960  0.00  0.00    +0.023 C 
ATOM      3  C   UNL     1      33.349 -23.694 -14.709  0.00  0.00    -0.068 C 
ATOM      4  C   UNL     1      33.110 -22.568 -16.994  0.00  0.00    -0.026 C 
ATOM      5  C   UNL     1      34.479 -22.252 -16.895  0.00  0.00    -0.047 C 
ATOM      6  C   UNL     1      35.308 -22.756 -15.735  0.00  0.00    -0.050 C 
ATOM      7  C   UNL     1      32.385 -22.101 -18.103  0.00  0.00    -0.004 C 
ATOM      8  C   UNL     1      35.075 -21.423 -17.857  0.00  0.00    -0.005 C 
ATOM      9  C   UNL     1      35.540 -24.354 -13.948  0.00  0.00    -0.100 C 
ATOM     10  C   UNL     1      34.333 -20.943 -18.935  0.00  0.00    +0.019 C 
ATOM     11  C   UNL     1      32.991 -21.288 -19.061  0.00  0.00    +0.001 C 
ATOM     12  H   UNL     1      34.748 -24.726 -15.776  0.00  0.00    -0.079 HD
ENDROOT
BRANCH   2  13
ATOM     13  C   UNL     1      31.071 -23.041 -15.520  0.00  0.00    -0.020 C 
ATOM     14  C   UNL     1      30.038 -22.963 -16.453  0.00  0.00    -0.004 C 
ATOM     15  C   UNL     1      30.833 -22.717 -14.188  0.00  0.00    -0.004 C 
ATOM     16  C   UNL     1      28.750 -22.559 -16.065  0.00  0.00    -0.000 C 
ATOM     17  C   UNL     1      28.508 -22.229 -14.710  0.00  0.00    -0.000 C 
ATOM     18  C   UNL     1      29.560 -22.313 -13.784  0.00  0.00    -0.000 C 
ATOM     19  C   UNL     1      27.698 -22.474 -16.992  0.00  0.00    -0.000 C 
ATOM     20  C   UNL     1      27.221 -21.824 -14.321  0.00  0.00    -0.000 C 
ATOM     21  C   UNL     1      26.425 -22.071 -16.588  0.00  0.00    -0.000 C 
ATOM     22  C   UNL     1      26.187 -21.746 -15.256  0.00  0.00    -0.000 C 
ENDBRANCH   2  13
BRANCH  10  26
ATOM     23  N   UNL     1      36.180 -19.621 -19.594  0.00  0.00    -0.147 NA
ATOM     24  N   UNL     1      36.838 -18.815 -20.470  0.00  0.00    -0.133 NA
ATOM     25  N   UNL     1      36.938 -17.671 -22.559  0.00  0.00    -0.341 N 
ATOM     26  C   UNL     1      34.959 -20.095 -19.925  0.00  0.00    +0.103 C 
ATOM     27  C   UNL     1      34.338 -19.798 -21.122  0.00  0.00    +0.024 C 
ATOM     28  C   UNL     1      35.008 -18.978 -22.013  0.00  0.00    +0.037 C 
ATOM     29  C   UNL     1      36.254 -18.509 -21.648  0.00  0.00    +0.147 C 
ATOM     30  H   UNL     1      37.829 -17.319 -22.330  0.00  0.00    +0.144 HD
ATOM     31  H   UNL     1      36.524 -17.439 -23.421  0.00  0.00    +0.144 HD
ENDBRANCH  10  26
TORSDOF 2
ENDMDL
MODEL 6
REMARK VINA RESULT:     -10.6      5.783     11.066
REMARK  Name = 58212050
REMARK  2 active torsions:
REMARK  status: ('A' for Active; 'I' for Inactive)
REMARK    1  A    between atoms: C_2  and  C_13
REMARK    2  A    between atoms: C_10  and  C_26
REMARK                            x       y       z     vdW  Elec       q    Type
REMARK                         _______ _______ _______ _____ _____    ______ ____
ROOT
ATOM      1  N   UNL     1      33.233 -13.170 -25.588  0.00  0.00    +0.389 N 
ATOM      2  C   UNL     1      33.388 -12.188 -23.321  0.00  0.00    +0.023 C 
ATOM      3  C   UNL     1      32.631 -12.196 -24.671  0.00  0.00    -0.068 C 
ATOM      4  C   UNL     1      33.686 -13.589 -22.801  0.00  0.00    -0.026 C 
ATOM      5  C   UNL     1      33.539 -14.701 -23.654  0.00  0.00    -0.047 C 
ATOM      6  C   UNL     1      33.029 -14.531 -25.066  0.00  0.00    -0.050 C 
ATOM      7  C   UNL     1      34.189 -13.790 -21.505  0.00  0.00    -0.004 C 
ATOM      8  C   UNL     1      33.828 -15.988 -23.176  0.00  0.00    -0.005 C 
ATOM      9  C   UNL     1      32.655 -13.048 -26.926  0.00  0.00    -0.100 C 
ATOM     10  C   UNL     1      34.298 -16.172 -21.877  0.00  0.00    +0.019 C 
ATOM     11  C   UNL     1      34.485 -15.072 -21.045  0.00  0.00    +0.001 C 
ATOM     12  H   UNL     1      34.234 -12.984 -25.657  0.00  0.00    -0.079 HD
ENDROOT
BRANCH   2  13
ATOM     13  C   UNL     1      32.643 -11.298 -22.333  0.00  0.00    -0.020 C 
ATOM     14  C   UNL     1      32.764  -9.911 -22.415  0.00  0.00    -0.004 C 
ATOM     15  C   UNL     1      31.843 -11.871 -21.348  0.00  0.00    -0.004 C 
ATOM     16  C   UNL     1      32.085  -9.078 -21.512  0.00  0.00    -0.000 C 
ATOM     17  C   UNL     1      31.272  -9.660 -20.511  0.00  0.00    -0.000 C 
ATOM     18  C   UNL     1      31.161 -11.058 -20.442  0.00  0.00    -0.000 C 
ATOM     19  C   UNL     1      32.196  -7.679 -21.581  0.00  0.00    -0.000 C 
ATOM     20  C   UNL     1      30.593  -8.826 -19.607  0.00  0.00    -0.000 C 
ATOM     21  C   UNL     1      31.514  -6.866 -20.675  0.00  0.00    -0.000 C 
ATOM     22  C   UNL     1      30.714  -7.438 -19.690  0.00  0.00    -0.000 C 
ENDBRANCH   2  13
BRANCH  10  26
ATOM     23  N   UNL     1      35.732 -17.616 -20.672  0.00  0.00    -0.147 NA
ATOM     24  N   UNL     1      36.087 -18.834 -20.183  0.00  0.00    -0.133 NA
ATOM     25  N   UNL     1      35.667 -21.167 -19.926  0.00  0.00    -0.341 N 
ATOM     26  C   UNL     1      34.598 -17.503 -21.397  0.00  0.00    +0.103 C 
ATOM     27  C   UNL     1      33.772 -18.575 -21.670  0.00  0.00    +0.024 C 
ATOM     28  C   UNL     1      34.134 -19.814 -21.172  0.00  0.00    +0.037 C 
ATOM     29  C   UNL     1      35.297 -19.900 -20.435  0.00  0.00    +0.147 C 
ATOM     30  H   UNL     1      36.491 -21.263 -19.396  0.00  0.00    +0.144 HD
ATOM     31  H   UNL     1      35.101 -21.953 -20.103  0.00  0.00    +0.144 HD
ENDBRANCH  10  26
TORSDOF 2
ENDMDL
