MODEL 1
REMARK VINA RESULT:     -12.6      0.000      0.000
REMARK  Name = 9910098
REMARK  9 active torsions:
REMARK  status: ('A' for Active; 'I' for Inactive)
REMARK    1  A    between atoms: N_1  and  C1*_12
REMARK    2  A    between atoms: C_9  and  O_25
REMARK    3  A    between atoms: C2*_11  and  O2*_15
REMARK    4  A    between atoms: C3*_13  and  O3*_17
REMARK    5  A    between atoms: C4*_14  and  C5*_19
REMARK    6  A    between atoms: C5*_19  and  O5*_20
REMARK    7  A    between atoms: O_25  and  C_26
REMARK    8  A    between atoms: C_26  and  C_27
REMARK    9  A    between atoms: C_27  and  C_29
REMARK                            x       y       z     vdW  Elec       q    Type
REMARK                         _______ _______ _______ _____ _____    ______ ____
ROOT
ATOM      1  N   UNL     1      34.259 -23.103 -14.957  0.00  0.00    -0.236 N 
ATOM      2  N   UNL     1      32.068 -23.094 -14.533  0.00  0.00    -0.240 NA
ATOM      3  N   UNL     1      34.232 -22.411 -17.287  0.00  0.00    -0.294 NA
ATOM      4  N   UNL     1      31.953 -22.037 -18.076  0.00  0.00    -0.295 NA
ATOM      5  C   UNL     1      33.647 -22.721 -16.120  0.00  0.00    +0.223 C 
ATOM      6  C   UNL     1      33.266 -23.316 -14.036  0.00  0.00    +0.224 C 
ATOM      7  C   UNL     1      32.291 -22.721 -15.835  0.00  0.00    +0.167 C 
ATOM      8  C   UNL     1      31.432 -22.362 -16.869  0.00  0.00    +0.214 C 
ATOM      9  C   UNL     1      33.301 -22.082 -18.208  0.00  0.00    +0.313 C 
ATOM     10  N   UNL     1      30.041 -22.337 -16.670  0.00  0.00    -0.331 N 
ATOM     11  H   UNL     1      29.443 -22.081 -17.408  0.00  0.00    +0.145 HD
ATOM     12  H   UNL     1      29.665 -22.574 -15.791  0.00  0.00    +0.145 HD
ENDROOT
BRANCH   1  15
ATOM     13  O4* UNL     1      36.141 -24.499 -15.336  0.00  0.00    -0.333 OA
ATOM     14  C2* UNL     1      36.086 -23.305 -13.255  0.00  0.00    +0.187 C 
ATOM     15  C1* UNL     1      35.696 -23.265 -14.733  0.00  0.00    +0.226 C 
ATOM     16  C3* UNL     1      36.336 -24.781 -13.013  0.00  0.00    +0.171 C 
ATOM     17  C4* UNL     1      36.882 -25.240 -14.354  0.00  0.00    +0.175 C 
BRANCH  14  18
ATOM     18  O2* UNL     1      37.275 -22.541 -13.061  0.00  0.00    -0.378 OA
ATOM     19  H2* UNL     1      37.893 -22.715 -13.789  0.00  0.00    +0.211 HD
ENDBRANCH  14  18
BRANCH  16  20
ATOM     20  O3* UNL     1      37.238 -25.034 -11.957  0.00  0.00    -0.379 OA
ATOM     21  H3* UNL     1      36.764 -24.998 -11.111  0.00  0.00    +0.211 HD
ENDBRANCH  16  20
BRANCH  17  22
ATOM     22  C5* UNL     1      36.713 -26.729 -14.598  0.00  0.00    +0.169 C 
BRANCH  22  23
ATOM     23  O5* UNL     1      36.381 -26.931 -15.960  0.00  0.00    -0.379 OA
ATOM     24  H5* UNL     1      35.970 -26.127 -16.317  0.00  0.00    +0.211 HD
ENDBRANCH  22  23
ENDBRANCH  17  22
ENDBRANCH   1  15
BRANCH   9  25
ATOM     25  O   UNL     1      33.789 -21.739 -19.450  0.00  0.00    -0.399 OA
BRANCH  25  26
ATOM     26  C   UNL     1      33.582 -20.395 -19.862  0.00  0.00    +0.227 C 
BRANCH  26  27
ATOM     27  C   UNL     1      34.892 -19.806 -20.374  0.00  0.00    +0.075 C 
BRANCH  27  29
ATOM     28 CL   UNL     1      34.013 -15.657 -24.621  0.00  0.00    -0.082 Cl
ATOM     29  C   UNL     1      34.672 -18.764 -21.443  0.00  0.00    -0.018 C 
ATOM     30  C   UNL     1      35.012 -17.445 -21.185  0.00  0.00    -0.003 C 
ATOM     31  C   UNL     1      34.134 -19.143 -22.663  0.00  0.00    -0.003 C 
ATOM     32  C   UNL     1      34.808 -16.480 -22.172  0.00  0.00    +0.011 C 
ATOM     33  C   UNL     1      33.929 -18.178 -23.649  0.00  0.00    +0.011 C 
ATOM     34  C   UNL     1      34.267 -16.847 -23.404  0.00  0.00    +0.058 C 
ENDBRANCH  27  29
ENDBRANCH  26  27
ENDBRANCH  25  26
ENDBRANCH   9  25
TORSDOF 9
ENDMDL
MODEL 2
REMARK VINA RESULT:     -12.5      0.751      1.504
REMARK  Name = 9910098
REMARK  9 active torsions:
REMARK  status: ('A' for Active; 'I' for Inactive)
REMARK    1  A    between atoms: N_1  and  C1*_12
REMARK    2  A    between atoms: C_9  and  O_25
REMARK    3  A    between atoms: C2*_11  and  O2*_15
REMARK    4  A    between atoms: C3*_13  and  O3*_17
REMARK    5  A    between atoms: C4*_14  and  C5*_19
REMARK    6  A    between atoms: C5*_19  and  O5*_20
REMARK    7  A    between atoms: O_25  and  C_26
REMARK    8  A    between atoms: C_26  and  C_27
REMARK    9  A    between atoms: C_27  and  C_29
REMARK                            x       y       z     vdW  Elec       q    Type
REMARK                         _______ _______ _______ _____ _____    ______ ____
ROOT
ATOM      1  N   UNL     1      34.426 -23.445 -15.287  0.00  0.00    -0.236 N 
ATOM      2  N   UNL     1      32.301 -23.331 -14.614  0.00  0.00    -0.240 NA
ATOM      3  N   UNL     1      34.193 -22.575 -17.544  0.00  0.00    -0.294 NA
ATOM      4  N   UNL     1      31.874 -21.997 -18.038  0.00  0.00    -0.295 NA
ATOM      5  C   UNL     1      33.719 -22.937 -16.341  0.00  0.00    +0.223 C 
ATOM      6  C   UNL     1      33.528 -23.666 -14.275  0.00  0.00    +0.224 C 
ATOM      7  C   UNL     1      32.406 -22.873 -15.904  0.00  0.00    +0.167 C 
ATOM      8  C   UNL     1      31.466 -22.382 -16.804  0.00  0.00    +0.214 C 
ATOM      9  C   UNL     1      33.192 -22.117 -18.326  0.00  0.00    +0.313 C 
ATOM     10  N   UNL     1      30.111 -22.284 -16.445  0.00  0.00    -0.331 N 
ATOM     11  H   UNL     1      29.455 -21.935 -17.090  0.00  0.00    +0.145 HD
ATOM     12  H   UNL     1      29.818 -22.565 -15.548  0.00  0.00    +0.145 HD
ENDROOT
BRANCH   1  15
ATOM     13  O4* UNL     1      36.089 -25.045 -14.729  0.00  0.00    -0.333 OA
ATOM     14  C2* UNL     1      36.643 -22.740 -14.356  0.00  0.00    +0.187 C 
ATOM     15  C1* UNL     1      35.864 -23.714 -15.241  0.00  0.00    +0.226 C 
ATOM     16  C3* UNL     1      36.904 -23.558 -13.105  0.00  0.00    +0.171 C 
ATOM     17  C4* UNL     1      37.047 -24.963 -13.663  0.00  0.00    +0.175 C 
BRANCH  14  18
ATOM     18  O2* UNL     1      37.863 -22.386 -15.006  0.00  0.00    -0.378 OA
ATOM     19  H2* UNL     1      38.010 -21.431 -14.919  0.00  0.00    +0.211 HD
ENDBRANCH  14  18
BRANCH  16  20
ATOM     20  O3* UNL     1      38.053 -23.148 -12.394  0.00  0.00    -0.379 OA
ATOM     21  H3* UNL     1      38.066 -23.578 -11.525  0.00  0.00    +0.211 HD
ENDBRANCH  16  20
BRANCH  17  22
ATOM     22  C5* UNL     1      36.772 -26.051 -12.639  0.00  0.00    +0.169 C 
BRANCH  22  23
ATOM     23  O5* UNL     1      36.420 -25.439 -11.411  0.00  0.00    -0.379 OA
ATOM     24  H5* UNL     1      36.922 -24.617 -11.302  0.00  0.00    +0.211 HD
ENDBRANCH  22  23
ENDBRANCH  17  22
ENDBRANCH   1  15
BRANCH   9  25
ATOM     25  O   UNL     1      33.563 -21.710 -19.589  0.00  0.00    -0.399 OA
BRANCH  25  26
ATOM     26  C   UNL     1      33.442 -20.323 -19.868  0.00  0.00    +0.227 C 
BRANCH  26  27
ATOM     27  C   UNL     1      34.773 -19.782 -20.378  0.00  0.00    +0.075 C 
BRANCH  27  29
ATOM     28 CL   UNL     1      34.069 -15.635 -24.660  0.00  0.00    -0.082 Cl
ATOM     29  C   UNL     1      34.594 -18.738 -21.453  0.00  0.00    -0.018 C 
ATOM     30  C   UNL     1      34.086 -19.115 -22.687  0.00  0.00    -0.003 C 
ATOM     31  C   UNL     1      34.944 -17.423 -21.190  0.00  0.00    -0.003 C 
ATOM     32  C   UNL     1      33.922 -18.151 -23.682  0.00  0.00    +0.011 C 
ATOM     33  C   UNL     1      34.780 -16.459 -22.185  0.00  0.00    +0.011 C 
ATOM     34  C   UNL     1      34.269 -16.824 -23.431  0.00  0.00    +0.058 C 
ENDBRANCH  27  29
ENDBRANCH  26  27
ENDBRANCH  25  26
ENDBRANCH   9  25
TORSDOF 9
ENDMDL
MODEL 3
REMARK VINA RESULT:     -11.9      1.141      1.462
REMARK  Name = 9910098
REMARK  9 active torsions:
REMARK  status: ('A' for Active; 'I' for Inactive)
REMARK    1  A    between atoms: N_1  and  C1*_12
REMARK    2  A    between atoms: C_9  and  O_25
REMARK    3  A    between atoms: C2*_11  and  O2*_15
REMARK    4  A    between atoms: C3*_13  and  O3*_17
REMARK    5  A    between atoms: C4*_14  and  C5*_19
REMARK    6  A    between atoms: C5*_19  and  O5*_20
REMARK    7  A    between atoms: O_25  and  C_26
REMARK    8  A    between atoms: C_26  and  C_27
REMARK    9  A    between atoms: C_27  and  C_29
REMARK                            x       y       z     vdW  Elec       q    Type
REMARK                         _______ _______ _______ _____ _____    ______ ____
ROOT
ATOM      1  N   UNL     1      34.970 -22.760 -14.530  0.00  0.00    -0.236 N 
ATOM      2  N   UNL     1      32.773 -23.143 -14.617  0.00  0.00    -0.240 NA
ATOM      3  N   UNL     1      35.365 -22.088 -16.832  0.00  0.00    -0.294 NA
ATOM      4  N   UNL     1      33.301 -22.129 -18.135  0.00  0.00    -0.295 NA
ATOM      5  C   UNL     1      34.588 -22.496 -15.817  0.00  0.00    +0.223 C 
ATOM      6  C   UNL     1      33.844 -23.146 -13.851  0.00  0.00    +0.224 C 
ATOM      7  C   UNL     1      33.224 -22.738 -15.849  0.00  0.00    +0.167 C 
ATOM      8  C   UNL     1      32.579 -22.541 -17.066  0.00  0.00    +0.214 C 
ATOM      9  C   UNL     1      34.630 -21.932 -17.954  0.00  0.00    +0.313 C 
ATOM     10  N   UNL     1      31.197 -22.765 -17.190  0.00  0.00    -0.331 N 
ATOM     11  H   UNL     1      30.752 -22.621 -18.056  0.00  0.00    +0.145 HD
ATOM     12  H   UNL     1      30.675 -23.064 -16.410  0.00  0.00    +0.145 HD
ENDROOT
BRANCH   1  15
ATOM     13  O4* UNL     1      37.142 -23.718 -14.522  0.00  0.00    -0.333 OA
ATOM     14  C2* UNL     1      36.372 -22.776 -12.454  0.00  0.00    +0.187 C 
ATOM     15  C1* UNL     1      36.322 -22.662 -13.978  0.00  0.00    +0.226 C 
ATOM     16  C3* UNL     1      36.869 -24.192 -12.238  0.00  0.00    +0.171 C 
ATOM     17  C4* UNL     1      37.785 -24.397 -13.432  0.00  0.00    +0.175 C 
BRANCH  14  18
ATOM     18  O2* UNL     1      37.297 -21.819 -11.940  0.00  0.00    -0.378 OA
ATOM     19  H2* UNL     1      36.834 -21.209 -11.344  0.00  0.00    +0.211 HD
ENDBRANCH  14  18
BRANCH  16  20
ATOM     20  O3* UNL     1      37.545 -24.371 -11.012  0.00  0.00    -0.379 OA
ATOM     21  H3* UNL     1      36.984 -24.060 -10.285  0.00  0.00    +0.211 HD
ENDBRANCH  16  20
BRANCH  17  22
ATOM     22  C5* UNL     1      37.996 -25.857 -13.789  0.00  0.00    +0.169 C 
BRANCH  22  23
ATOM     23  O5* UNL     1      38.645 -25.928 -15.046  0.00  0.00    -0.379 OA
ATOM     24  H5* UNL     1      38.513 -26.809 -15.430  0.00  0.00    +0.211 HD
ENDBRANCH  22  23
ENDBRANCH  17  22
ENDBRANCH   1  15
BRANCH   9  25
ATOM     25  O   UNL     1      35.325 -21.509 -19.066  0.00  0.00    -0.399 OA
BRANCH  25  26
ATOM     26  C   UNL     1      34.669 -20.565 -19.901  0.00  0.00    +0.227 C 
BRANCH  26  27
ATOM     27  C   UNL     1      35.652 -19.477 -20.318  0.00  0.00    +0.075 C 
BRANCH  27  29
ATOM     28 CL   UNL     1      33.461 -15.963 -24.663  0.00  0.00    -0.082 Cl
ATOM     29  C   UNL     1      35.099 -18.593 -21.409  0.00  0.00    -0.018 C 
ATOM     30  C   UNL     1      34.438 -19.171 -22.482  0.00  0.00    -0.003 C 
ATOM     31  C   UNL     1      35.265 -17.219 -21.321  0.00  0.00    -0.003 C 
ATOM     32  C   UNL     1      33.928 -18.354 -23.491  0.00  0.00    +0.011 C 
ATOM     33  C   UNL     1      34.756 -16.403 -22.332  0.00  0.00    +0.011 C 
ATOM     34  C   UNL     1      34.087 -16.971 -23.416  0.00  0.00    +0.058 C 
ENDBRANCH  27  29
ENDBRANCH  26  27
ENDBRANCH  25  26
ENDBRANCH   9  25
TORSDOF 9
ENDMDL
MODEL 4
REMARK VINA RESULT:     -11.8      1.273      1.937
REMARK  Name = 9910098
REMARK  9 active torsions:
REMARK  status: ('A' for Active; 'I' for Inactive)
REMARK    1  A    between atoms: N_1  and  C1*_12
REMARK    2  A    between atoms: C_9  and  O_25
REMARK    3  A    between atoms: C2*_11  and  O2*_15
REMARK    4  A    between atoms: C3*_13  and  O3*_17
REMARK    5  A    between atoms: C4*_14  and  C5*_19
REMARK    6  A    between atoms: C5*_19  and  O5*_20
REMARK    7  A    between atoms: O_25  and  C_26
REMARK    8  A    between atoms: C_26  and  C_27
REMARK    9  A    between atoms: C_27  and  C_29
REMARK                            x       y       z     vdW  Elec       q    Type
REMARK                         _______ _______ _______ _____ _____    ______ ____
ROOT
ATOM      1  N   UNL     1      33.537 -23.476 -13.904  0.00  0.00    -0.236 N 
ATOM      2  N   UNL     1      31.324 -23.193 -13.956  0.00  0.00    -0.240 NA
ATOM      3  N   UNL     1      34.070 -22.999 -16.227  0.00  0.00    -0.294 NA
ATOM      4  N   UNL     1      32.063 -22.455 -17.505  0.00  0.00    -0.295 NA
ATOM      5  C   UNL     1      33.226 -23.137 -15.193  0.00  0.00    +0.223 C 
ATOM      6  C   UNL     1      32.359 -23.497 -13.203  0.00  0.00    +0.224 C 
ATOM      7  C   UNL     1      31.851 -22.966 -15.203  0.00  0.00    +0.167 C 
ATOM      8  C   UNL     1      31.271 -22.611 -16.417  0.00  0.00    +0.214 C 
ATOM      9  C   UNL     1      33.393 -22.656 -17.344  0.00  0.00    +0.313 C 
ATOM     10  N   UNL     1      29.882 -22.419 -16.520  0.00  0.00    -0.331 N 
ATOM     11  H   UNL     1      29.483 -22.168 -17.384  0.00  0.00    +0.145 HD
ATOM     12  H   UNL     1      29.310 -22.534 -15.727  0.00  0.00    +0.145 HD
ENDROOT
BRANCH   1  15
ATOM     13  O4* UNL     1      35.783 -22.723 -13.756  0.00  0.00    -0.333 OA
ATOM     14  C2* UNL     1      35.446 -25.097 -13.864  0.00  0.00    +0.187 C 
ATOM     15  C1* UNL     1      34.867 -23.770 -13.370  0.00  0.00    +0.226 C 
ATOM     16  C3* UNL     1      36.454 -24.657 -14.909  0.00  0.00    +0.171 C 
ATOM     17  C4* UNL     1      36.942 -23.332 -14.348  0.00  0.00    +0.175 C 
BRANCH  14  18
ATOM     18  O2* UNL     1      36.087 -25.764 -12.777  0.00  0.00    -0.378 OA
ATOM     19  H2* UNL     1      36.146 -25.162 -12.018  0.00  0.00    +0.211 HD
ENDBRANCH  14  18
BRANCH  16  20
ATOM     20  O3* UNL     1      37.508 -25.575 -15.096  0.00  0.00    -0.379 OA
ATOM     21  H3* UNL     1      38.177 -25.446 -14.406  0.00  0.00    +0.211 HD
ENDBRANCH  16  20
BRANCH  17  22
ATOM     22  C5* UNL     1      37.527 -22.408 -15.400  0.00  0.00    +0.169 C 
BRANCH  22  23
ATOM     23  O5* UNL     1      36.792 -22.565 -16.601  0.00  0.00    -0.379 OA
ATOM     24  H5* UNL     1      37.403 -22.718 -17.339  0.00  0.00    +0.211 HD
ENDBRANCH  22  23
ENDBRANCH  17  22
ENDBRANCH   1  15
BRANCH   9  25
ATOM     25  O   UNL     1      34.161 -22.481 -18.475  0.00  0.00    -0.399 OA
BRANCH  25  26
ATOM     26  C   UNL     1      33.933 -21.292 -19.217  0.00  0.00    +0.227 C 
BRANCH  26  27
ATOM     27  C   UNL     1      35.264 -20.705 -19.672  0.00  0.00    +0.075 C 
BRANCH  27  29
ATOM     28 CL   UNL     1      34.567 -16.387 -23.782  0.00  0.00    -0.082 Cl
ATOM     29  C   UNL     1      35.089 -19.621 -20.707  0.00  0.00    -0.018 C 
ATOM     30  C   UNL     1      36.079 -18.662 -20.860  0.00  0.00    -0.003 C 
ATOM     31  C   UNL     1      33.942 -19.601 -21.484  0.00  0.00    -0.003 C 
ATOM     32  C   UNL     1      35.917 -17.659 -21.815  0.00  0.00    +0.011 C 
ATOM     33  C   UNL     1      33.780 -18.597 -22.439  0.00  0.00    +0.011 C 
ATOM     34  C   UNL     1      34.768 -17.626 -22.605  0.00  0.00    +0.058 C 
ENDBRANCH  27  29
ENDBRANCH  26  27
ENDBRANCH  25  26
ENDBRANCH   9  25
TORSDOF 9
ENDMDL
MODEL 5
REMARK VINA RESULT:     -11.7      1.664      2.308
REMARK  Name = 9910098
REMARK  9 active torsions:
REMARK  status: ('A' for Active; 'I' for Inactive)
REMARK    1  A    between atoms: N_1  and  C1*_12
REMARK    2  A    between atoms: C_9  and  O_25
REMARK    3  A    between atoms: C2*_11  and  O2*_15
REMARK    4  A    between atoms: C3*_13  and  O3*_17
REMARK    5  A    between atoms: C4*_14  and  C5*_19
REMARK    6  A    between atoms: C5*_19  and  O5*_20
REMARK    7  A    between atoms: O_25  and  C_26
REMARK    8  A    between atoms: C_26  and  C_27
REMARK    9  A    between atoms: C_27  and  C_29
REMARK                            x       y       z     vdW  Elec       q    Type
REMARK                         _______ _______ _______ _____ _____    ______ ____
ROOT
ATOM      1  N   UNL     1      34.219 -23.517 -14.417  0.00  0.00    -0.236 N 
ATOM      2  N   UNL     1      32.533 -23.683 -12.964  0.00  0.00    -0.240 NA
ATOM      3  N   UNL     1      33.005 -22.738 -16.373  0.00  0.00    -0.294 NA
ATOM      4  N   UNL     1      30.622 -22.499 -15.902  0.00  0.00    -0.295 NA
ATOM      5  C   UNL     1      33.094 -23.135 -15.094  0.00  0.00    +0.223 C 
ATOM      6  C   UNL     1      33.828 -23.837 -13.143  0.00  0.00    +0.224 C 
ATOM      7  C   UNL     1      32.062 -23.244 -14.176  0.00  0.00    +0.167 C 
ATOM      8  C   UNL     1      30.787 -22.908 -14.621  0.00  0.00    +0.214 C 
ATOM      9  C   UNL     1      31.726 -22.441 -16.686  0.00  0.00    +0.313 C 
ATOM     10  N   UNL     1      29.680 -22.991 -13.758  0.00  0.00    -0.331 N 
ATOM     11  H   UNL     1      28.784 -22.750 -14.083  0.00  0.00    +0.145 HD
ATOM     12  H   UNL     1      29.804 -23.289 -12.827  0.00  0.00    +0.145 HD
ENDROOT
BRANCH   1  15
ATOM     13  O4* UNL     1      35.973 -24.965 -15.097  0.00  0.00    -0.333 OA
ATOM     14  C2* UNL     1      36.621 -22.904 -14.053  0.00  0.00    +0.187 C 
ATOM     15  C1* UNL     1      35.582 -23.584 -14.946  0.00  0.00    +0.226 C 
ATOM     16  C3* UNL     1      37.304 -24.077 -13.377  0.00  0.00    +0.171 C 
ATOM     17  C4* UNL     1      37.244 -25.148 -14.453  0.00  0.00    +0.175 C 
BRANCH  14  18
ATOM     18  O2* UNL     1      37.535 -22.172 -14.868  0.00  0.00    -0.378 OA
ATOM     19  H2* UNL     1      37.996 -21.513 -14.325  0.00  0.00    +0.211 HD
ENDBRANCH  14  18
BRANCH  16  20
ATOM     20  O3* UNL     1      38.629 -23.802 -12.974  0.00  0.00    -0.379 OA
ATOM     21  H3* UNL     1      38.681 -23.814 -12.006  0.00  0.00    +0.211 HD
ENDBRANCH  16  20
BRANCH  17  22
ATOM     22  C5* UNL     1      37.346 -26.561 -13.907  0.00  0.00    +0.169 C 
BRANCH  22  23
ATOM     23  O5* UNL     1      36.525 -26.663 -12.758  0.00  0.00    -0.379 OA
ATOM     24  H5* UNL     1      36.030 -25.838 -12.637  0.00  0.00    +0.211 HD
ENDBRANCH  22  23
ENDBRANCH  17  22
ENDBRANCH   1  15
BRANCH   9  25
ATOM     25  O   UNL     1      31.514 -22.015 -17.979  0.00  0.00    -0.399 OA
BRANCH  25  26
ATOM     26  C   UNL     1      32.672 -21.728 -18.750  0.00  0.00    +0.227 C 
BRANCH  26  27
ATOM     27  C   UNL     1      32.348 -20.659 -19.787  0.00  0.00    +0.075 C 
BRANCH  27  29
ATOM     28 CL   UNL     1      37.284 -18.059 -22.001  0.00  0.00    -0.082 Cl
ATOM     29  C   UNL     1      33.589 -20.004 -20.342  0.00  0.00    -0.018 C 
ATOM     30  C   UNL     1      33.471 -19.098 -21.385  0.00  0.00    -0.003 C 
ATOM     31  C   UNL     1      34.825 -20.321 -19.801  0.00  0.00    -0.003 C 
ATOM     32  C   UNL     1      34.618 -18.494 -21.899  0.00  0.00    +0.011 C 
ATOM     33  C   UNL     1      35.973 -19.717 -20.316  0.00  0.00    +0.011 C 
ATOM     34  C   UNL     1      35.868 -18.803 -21.365  0.00  0.00    +0.058 C 
ENDBRANCH  27  29
ENDBRANCH  26  27
ENDBRANCH  25  26
ENDBRANCH   9  25
TORSDOF 9
ENDMDL
MODEL 6
REMARK VINA RESULT:     -11.2      6.019     11.095
REMARK  Name = 9910098
REMARK  9 active torsions:
REMARK  status: ('A' for Active; 'I' for Inactive)
REMARK    1  A    between atoms: N_1  and  C1*_12
REMARK    2  A    between atoms: C_9  and  O_25
REMARK    3  A    between atoms: C2*_11  and  O2*_15
REMARK    4  A    between atoms: C3*_13  and  O3*_17
REMARK    5  A    between atoms: C4*_14  and  C5*_19
REMARK    6  A    between atoms: C5*_19  and  O5*_20
REMARK    7  A    between atoms: O_25  and  C_26
REMARK    8  A    between atoms: C_26  and  C_27
REMARK    9  A    between atoms: C_27  and  C_29
REMARK                            x       y       z     vdW  Elec       q    Type
REMARK                         _______ _______ _______ _____ _____    ______ ____
ROOT
ATOM      1  N   UNL     1      33.754 -14.577 -23.571  0.00  0.00    -0.236 N 
ATOM      2  N   UNL     1      33.119 -16.062 -25.110  0.00  0.00    -0.240 NA
ATOM      3  N   UNL     1      34.729 -16.076 -21.926  0.00  0.00    -0.294 NA
ATOM      4  N   UNL     1      34.588 -18.403 -22.651  0.00  0.00    -0.295 NA
ATOM      5  C   UNL     1      34.116 -15.804 -23.088  0.00  0.00    +0.223 C 
ATOM      6  C   UNL     1      33.159 -14.787 -24.787  0.00  0.00    +0.224 C 
ATOM      7  C   UNL     1      33.715 -16.710 -24.057  0.00  0.00    +0.167 C 
ATOM      8  C   UNL     1      33.971 -18.054 -23.805  0.00  0.00    +0.214 C 
ATOM      9  C   UNL     1      34.922 -17.406 -21.795  0.00  0.00    +0.313 C 
ATOM     10  N   UNL     1      33.596 -19.042 -24.733  0.00  0.00    -0.331 N 
ATOM     11  H   UNL     1      33.783 -19.989 -24.544  0.00  0.00    +0.145 HD
ATOM     12  H   UNL     1      33.148 -18.785 -25.571  0.00  0.00    +0.145 HD
ENDROOT
BRANCH   1  15
ATOM     13  O4* UNL     1      33.556 -13.377 -21.532  0.00  0.00    -0.333 OA
ATOM     14  C2* UNL     1      33.150 -12.145 -23.551  0.00  0.00    +0.187 C 
ATOM     15  C1* UNL     1      33.952 -13.283 -22.917  0.00  0.00    +0.226 C 
ATOM     16  C3* UNL     1      32.003 -11.958 -22.576  0.00  0.00    +0.171 C 
ATOM     17  C4* UNL     1      32.652 -12.298 -21.246  0.00  0.00    +0.175 C 
BRANCH  14  18
ATOM     18  O2* UNL     1      33.965 -10.976 -23.620  0.00  0.00    -0.378 OA
ATOM     19  H2* UNL     1      34.771 -11.174 -24.123  0.00  0.00    +0.211 HD
ENDBRANCH  14  18
BRANCH  16  20
ATOM     20  O3* UNL     1      31.462 -10.655 -22.587  0.00  0.00    -0.379 OA
ATOM     21  H3* UNL     1      32.120 -10.029 -22.246  0.00  0.00    +0.211 HD
ENDBRANCH  16  20
BRANCH  17  22
ATOM     22  C5* UNL     1      31.658 -12.728 -20.181  0.00  0.00    +0.169 C 
BRANCH  22  23
ATOM     23  O5* UNL     1      31.875 -14.096 -19.883  0.00  0.00    -0.379 OA
ATOM     24  H5* UNL     1      31.098 -14.456 -19.428  0.00  0.00    +0.211 HD
ENDBRANCH  22  23
ENDBRANCH  17  22
ENDBRANCH   1  15
BRANCH   9  25
ATOM     25  O   UNL     1      35.552 -17.805 -20.636  0.00  0.00    -0.399 OA
BRANCH  25  26
ATOM     26  C   UNL     1      36.026 -19.144 -20.601  0.00  0.00    +0.227 C 
BRANCH  26  27
ATOM     27  C   UNL     1      34.850 -20.102 -20.444  0.00  0.00    +0.075 C 
BRANCH  27  29
ATOM     28 CL   UNL     1      35.073 -23.161 -15.286  0.00  0.00    -0.082 Cl
ATOM     29  C   UNL     1      34.907 -20.873 -19.148  0.00  0.00    -0.018 C 
ATOM     30  C   UNL     1      33.783 -21.560 -18.717  0.00  0.00    -0.003 C 
ATOM     31  C   UNL     1      36.081 -20.878 -18.412  0.00  0.00    -0.003 C 
ATOM     32  C   UNL     1      33.835 -22.271 -17.518  0.00  0.00    +0.011 C 
ATOM     33  C   UNL     1      36.132 -21.589 -17.212  0.00  0.00    +0.011 C 
ATOM     34  C   UNL     1      35.009 -22.285 -16.766  0.00  0.00    +0.058 C 
ENDBRANCH  27  29
ENDBRANCH  26  27
ENDBRANCH  25  26
ENDBRANCH   9  25
TORSDOF 9
ENDMDL
MODEL 7
REMARK VINA RESULT:     -11.0      2.505      4.121
REMARK  Name = 9910098
REMARK  9 active torsions:
REMARK  status: ('A' for Active; 'I' for Inactive)
REMARK    1  A    between atoms: N_1  and  C1*_12
REMARK    2  A    between atoms: C_9  and  O_25
REMARK    3  A    between atoms: C2*_11  and  O2*_15
REMARK    4  A    between atoms: C3*_13  and  O3*_17
REMARK    5  A    between atoms: C4*_14  and  C5*_19
REMARK    6  A    between atoms: C5*_19  and  O5*_20
REMARK    7  A    between atoms: O_25  and  C_26
REMARK    8  A    between atoms: C_26  and  C_27
REMARK    9  A    between atoms: C_27  and  C_29
REMARK                            x       y       z     vdW  Elec       q    Type
REMARK                         _______ _______ _______ _____ _____    ______ ____
ROOT
ATOM      1  N   UNL     1      34.329 -23.063 -14.986  0.00  0.00    -0.236 N 
ATOM      2  N   UNL     1      36.206 -21.988 -14.435  0.00  0.00    -0.240 NA
ATOM      3  N   UNL     1      34.156 -22.421 -17.323  0.00  0.00    -0.294 NA
ATOM      4  N   UNL     1      36.005 -20.971 -17.986  0.00  0.00    -0.295 NA
ATOM      5  C   UNL     1      34.745 -22.418 -16.118  0.00  0.00    +0.223 C 
ATOM      6  C   UNL     1      35.240 -22.772 -14.003  0.00  0.00    +0.224 C 
ATOM      7  C   UNL     1      35.909 -21.759 -15.755  0.00  0.00    +0.167 C 
ATOM      8  C   UNL     1      36.544 -21.014 -16.744  0.00  0.00    +0.214 C 
ATOM      9  C   UNL     1      34.860 -21.667 -18.194  0.00  0.00    +0.313 C 
ATOM     10  N   UNL     1      37.729 -20.312 -16.463  0.00  0.00    -0.331 N 
ATOM     11  H   UNL     1      38.170 -19.789 -17.171  0.00  0.00    +0.145 HD
ATOM     12  H   UNL     1      38.118 -20.345 -15.559  0.00  0.00    +0.145 HD
ENDROOT
BRANCH   1  15
ATOM     13  O4* UNL     1      32.232 -23.643 -15.936  0.00  0.00    -0.333 OA
ATOM     14  C2* UNL     1      32.370 -23.651 -13.540  0.00  0.00    +0.187 C 
ATOM     15  C1* UNL     1      33.137 -23.899 -14.840  0.00  0.00    +0.226 C 
ATOM     16  C3* UNL     1      31.186 -22.822 -14.000  0.00  0.00    +0.171 C 
ATOM     17  C4* UNL     1      30.931 -23.371 -15.393  0.00  0.00    +0.175 C 
BRANCH  14  18
ATOM     18  O2* UNL     1      31.946 -24.902 -12.998  0.00  0.00    -0.378 OA
ATOM     19  H2* UNL     1      32.600 -25.585 -13.214  0.00  0.00    +0.211 HD
ENDBRANCH  14  18
BRANCH  16  20
ATOM     20  O3* UNL     1      30.054 -22.945 -13.165  0.00  0.00    -0.379 OA
ATOM     21  H3* UNL     1      30.120 -22.307 -12.437  0.00  0.00    +0.211 HD
ENDBRANCH  16  20
BRANCH  17  22
ATOM     22  C5* UNL     1      30.189 -22.403 -16.298  0.00  0.00    +0.169 C 
BRANCH  22  23
ATOM     23  O5* UNL     1      31.034 -22.054 -17.380  0.00  0.00    -0.379 OA
ATOM     24  H5* UNL     1      30.501 -21.692 -18.104  0.00  0.00    +0.211 HD
ENDBRANCH  22  23
ENDBRANCH  17  22
ENDBRANCH   1  15
BRANCH   9  25
ATOM     25  O   UNL     1      34.350 -21.600 -19.472  0.00  0.00    -0.399 OA
BRANCH  25  26
ATOM     26  C   UNL     1      34.007 -20.308 -19.950  0.00  0.00    +0.227 C 
BRANCH  26  27
ATOM     27  C   UNL     1      35.218 -19.669 -20.621  0.00  0.00    +0.075 C 
BRANCH  27  29
ATOM     28 CL   UNL     1      33.666 -15.505 -24.656  0.00  0.00    -0.082 Cl
ATOM     29  C   UNL     1      34.826 -18.621 -21.634  0.00  0.00    -0.018 C 
ATOM     30  C   UNL     1      34.238 -19.016 -22.826  0.00  0.00    -0.003 C 
ATOM     31  C   UNL     1      35.063 -17.284 -21.357  0.00  0.00    -0.003 C 
ATOM     32  C   UNL     1      33.877 -18.048 -23.764  0.00  0.00    +0.011 C 
ATOM     33  C   UNL     1      34.703 -16.316 -22.295  0.00  0.00    +0.011 C 
ATOM     34  C   UNL     1      34.109 -16.699 -23.498  0.00  0.00    +0.058 C 
ENDBRANCH  27  29
ENDBRANCH  26  27
ENDBRANCH  25  26
ENDBRANCH   9  25
TORSDOF 9
ENDMDL
MODEL 8
REMARK VINA RESULT:     -10.9      2.016      3.048
REMARK  Name = 9910098
REMARK  9 active torsions:
REMARK  status: ('A' for Active; 'I' for Inactive)
REMARK    1  A    between atoms: N_1  and  C1*_12
REMARK    2  A    between atoms: C_9  and  O_25
REMARK    3  A    between atoms: C2*_11  and  O2*_15
REMARK    4  A    between atoms: C3*_13  and  O3*_17
REMARK    5  A    between atoms: C4*_14  and  C5*_19
REMARK    6  A    between atoms: C5*_19  and  O5*_20
REMARK    7  A    between atoms: O_25  and  C_26
REMARK    8  A    between atoms: C_26  and  C_27
REMARK    9  A    between atoms: C_27  and  C_29
REMARK                            x       y       z     vdW  Elec       q    Type
REMARK                         _______ _______ _______ _____ _____    ______ ____
ROOT
ATOM      1  N   UNL     1      33.973 -22.496 -17.213  0.00  0.00    -0.236 N 
ATOM      2  N   UNL     1      31.944 -21.995 -17.995  0.00  0.00    -0.240 NA
ATOM      3  N   UNL     1      35.342 -21.234 -18.774  0.00  0.00    -0.294 NA
ATOM      4  N   UNL     1      33.966 -20.051 -20.407  0.00  0.00    -0.295 NA
ATOM      5  C   UNL     1      34.171 -21.668 -18.283  0.00  0.00    +0.223 C 
ATOM      6  C   UNL     1      32.618 -22.662 -17.083  0.00  0.00    +0.224 C 
ATOM      7  C   UNL     1      32.902 -21.369 -18.752  0.00  0.00    +0.167 C 
ATOM      8  C   UNL     1      32.823 -20.527 -19.857  0.00  0.00    +0.214 C 
ATOM      9  C   UNL     1      35.137 -20.430 -19.839  0.00  0.00    +0.313 C 
ATOM     10  N   UNL     1      31.576 -20.173 -20.402  0.00  0.00    -0.331 N 
ATOM     11  H   UNL     1      31.533 -19.576 -21.183  0.00  0.00    +0.145 HD
ATOM     12  H   UNL     1      30.747 -20.520 -20.000  0.00  0.00    +0.145 HD
ENDROOT
BRANCH   1  15
ATOM     13  O4* UNL     1      34.409 -24.124 -15.541  0.00  0.00    -0.333 OA
ATOM     14  C2* UNL     1      35.700 -22.104 -15.441  0.00  0.00    +0.187 C 
ATOM     15  C1* UNL     1      35.003 -23.101 -16.368  0.00  0.00    +0.226 C 
ATOM     16  C3* UNL     1      35.062 -22.392 -14.095  0.00  0.00    +0.171 C 
ATOM     17  C4* UNL     1      34.795 -23.885 -14.178  0.00  0.00    +0.175 C 
BRANCH  14  18
ATOM     18  O2* UNL     1      37.100 -22.381 -15.418  0.00  0.00    -0.378 OA
ATOM     19  H2* UNL     1      37.527 -21.832 -14.743  0.00  0.00    +0.211 HD
ENDBRANCH  14  18
BRANCH  16  20
ATOM     20  O3* UNL     1      35.885 -22.058 -12.999  0.00  0.00    -0.379 OA
ATOM     21  H3* UNL     1      35.364 -21.575 -12.338  0.00  0.00    +0.211 HD
ENDBRANCH  16  20
BRANCH  17  22
ATOM     22  C5* UNL     1      33.697 -24.356 -13.242  0.00  0.00    +0.169 C 
BRANCH  22  23
ATOM     23  O5* UNL     1      34.241 -24.506 -11.942  0.00  0.00    -0.379 OA
ATOM     24  H5* UNL     1      35.142 -24.859 -12.007  0.00  0.00    +0.211 HD
ENDBRANCH  22  23
ENDBRANCH  17  22
ENDBRANCH   1  15
BRANCH   9  25
ATOM     25  O   UNL     1      36.274 -19.919 -20.427  0.00  0.00    -0.399 OA
BRANCH  25  26
ATOM     26  C   UNL     1      36.249 -18.539 -20.760  0.00  0.00    +0.227 C 
BRANCH  26  27
ATOM     27  C   UNL     1      35.514 -18.343 -22.082  0.00  0.00    +0.075 C 
BRANCH  27  29
ATOM     28 CL   UNL     1      32.995 -12.912 -22.508  0.00  0.00    -0.082 Cl
ATOM     29  C   UNL     1      34.883 -16.976 -22.190  0.00  0.00    -0.018 C 
ATOM     30  C   UNL     1      34.600 -16.266 -21.034  0.00  0.00    -0.003 C 
ATOM     31  C   UNL     1      34.595 -16.457 -23.442  0.00  0.00    -0.003 C 
ATOM     32  C   UNL     1      34.014 -15.004 -21.132  0.00  0.00    +0.011 C 
ATOM     33  C   UNL     1      34.009 -15.195 -23.541  0.00  0.00    +0.011 C 
ATOM     34  C   UNL     1      33.719 -14.468 -22.386  0.00  0.00    +0.058 C 
ENDBRANCH  27  29
ENDBRANCH  26  27
ENDBRANCH  25  26
ENDBRANCH   9  25
TORSDOF 9
ENDMDL
MODEL 9
REMARK VINA RESULT:     -10.8      3.988      6.269
REMARK  Name = 9910098
REMARK  9 active torsions:
REMARK  status: ('A' for Active; 'I' for Inactive)
REMARK    1  A    between atoms: N_1  and  C1*_12
REMARK    2  A    between atoms: C_9  and  O_25
REMARK    3  A    between atoms: C2*_11  and  O2*_15
REMARK    4  A    between atoms: C3*_13  and  O3*_17
REMARK    5  A    between atoms: C4*_14  and  C5*_19
REMARK    6  A    between atoms: C5*_19  and  O5*_20
REMARK    7  A    between atoms: O_25  and  C_26
REMARK    8  A    between atoms: C_26  and  C_27
REMARK    9  A    between atoms: C_27  and  C_29
REMARK                            x       y       z     vdW  Elec       q    Type
REMARK                         _______ _______ _______ _____ _____    ______ ____
ROOT
ATOM      1  N   UNL     1      36.101 -22.719 -15.597  0.00  0.00    -0.236 N 
ATOM      2  N   UNL     1      36.208 -21.540 -17.489  0.00  0.00    -0.240 NA
ATOM      3  N   UNL     1      33.728 -23.240 -15.567  0.00  0.00    -0.294 NA
ATOM      4  N   UNL     1      32.587 -22.296 -17.507  0.00  0.00    -0.295 NA
ATOM      5  C   UNL     1      34.829 -22.683 -16.096  0.00  0.00    +0.223 C 
ATOM      6  C   UNL     1      36.892 -22.017 -16.470  0.00  0.00    +0.224 C 
ATOM      7  C   UNL     1      34.917 -21.950 -17.268  0.00  0.00    +0.167 C 
ATOM      8  C   UNL     1      33.738 -21.762 -17.982  0.00  0.00    +0.214 C 
ATOM      9  C   UNL     1      32.653 -22.990 -16.345  0.00  0.00    +0.313 C 
ATOM     10  N   UNL     1      33.734 -21.028 -19.181  0.00  0.00    -0.331 N 
ATOM     11  H   UNL     1      32.894 -20.903 -19.678  0.00  0.00    +0.145 HD
ATOM     12  H   UNL     1      34.572 -20.642 -19.524  0.00  0.00    +0.145 HD
ENDROOT
BRANCH   1  15
ATOM     13  O4* UNL     1      37.977 -23.247 -14.240  0.00  0.00    -0.333 OA
ATOM     14  C2* UNL     1      36.200 -24.860 -14.300  0.00  0.00    +0.187 C 
ATOM     15  C1* UNL     1      36.543 -23.371 -14.364  0.00  0.00    +0.226 C 
ATOM     16  C3* UNL     1      37.531 -25.525 -14.599  0.00  0.00    +0.171 C 
ATOM     17  C4* UNL     1      38.522 -24.552 -13.987  0.00  0.00    +0.175 C 
BRANCH  14  18
ATOM     18  O2* UNL     1      35.745 -25.183 -12.987  0.00  0.00    -0.378 OA
ATOM     19  H2* UNL     1      34.784 -25.313 -13.001  0.00  0.00    +0.211 HD
ENDBRANCH  14  18
BRANCH  16  20
ATOM     20  O3* UNL     1      37.649 -26.820 -14.051  0.00  0.00    -0.379 OA
ATOM     21  H3* UNL     1      36.781 -27.254 -14.057  0.00  0.00    +0.211 HD
ENDBRANCH  16  20
BRANCH  17  22
ATOM     22  C5* UNL     1      39.915 -24.651 -14.584  0.00  0.00    +0.169 C 
BRANCH  22  23
ATOM     23  O5* UNL     1      39.849 -25.433 -15.763  0.00  0.00    -0.379 OA
ATOM     24  H5* UNL     1      40.088 -24.888 -16.528  0.00  0.00    +0.211 HD
ENDBRANCH  22  23
ENDBRANCH  17  22
ENDBRANCH   1  15
BRANCH   9  25
ATOM     25  O   UNL     1      31.461 -23.520 -15.901  0.00  0.00    -0.399 OA
BRANCH  25  26
ATOM     26  C   UNL     1      31.416 -23.926 -14.541  0.00  0.00    +0.227 C 
BRANCH  26  27
ATOM     27  C   UNL     1      29.987 -24.299 -14.162  0.00  0.00    +0.075 C 
BRANCH  27  29
ATOM     28 CL   UNL     1      25.908 -21.319 -17.403  0.00  0.00    -0.082 Cl
ATOM     29  C   UNL     1      28.963 -23.549 -14.978  0.00  0.00    -0.018 C 
ATOM     30  C   UNL     1      28.630 -22.251 -14.624  0.00  0.00    -0.003 C 
ATOM     31  C   UNL     1      28.372 -24.173 -16.066  0.00  0.00    -0.003 C 
ATOM     32  C   UNL     1      27.682 -21.558 -15.377  0.00  0.00    +0.011 C 
ATOM     33  C   UNL     1      27.423 -23.480 -16.819  0.00  0.00    +0.011 C 
ATOM     34  C   UNL     1      27.079 -22.173 -16.475  0.00  0.00    +0.058 C 
ENDBRANCH  27  29
ENDBRANCH  26  27
ENDBRANCH  25  26
ENDBRANCH   9  25
TORSDOF 9
ENDMDL
