MODEL 1
REMARK VINA RESULT:     -11.2      0.000      0.000
REMARK  Name = 25058141
REMARK  4 active torsions:
REMARK  status: ('A' for Active; 'I' for Inactive)
REMARK    1  A    between atoms: C_3  and  C_8
REMARK    2  A    between atoms: C_7  and  C_15
REMARK    3  A    between atoms: C_16  and  O_21
REMARK    4  A    between atoms: C_20  and  O_23
REMARK                            x       y       z     vdW  Elec       q    Type
REMARK                         _______ _______ _______ _____ _____    ______ ____
ROOT
ATOM      1  O   UNL     1      35.157 -16.692 -20.401  0.00  0.00    -0.270 OA
ATOM      2  N   UNL     1      34.366 -17.577 -22.404  0.00  0.00    -0.274 N 
ATOM      3  C   UNL     1      34.828 -18.952 -22.179  0.00  0.00    +0.098 C 
ATOM      4  C   UNL     1      34.672 -19.623 -23.549  0.00  0.00    +0.026 C 
ATOM      5  C   UNL     1      33.509 -18.871 -24.191  0.00  0.00    +0.024 C 
ATOM      6  C   UNL     1      33.717 -17.443 -23.709  0.00  0.00    +0.094 C 
ATOM      7  C   UNL     1      34.609 -16.559 -21.493  0.00  0.00    +0.252 C 
ENDROOT
BRANCH   3   8
ATOM      8  C   UNL     1      34.075 -19.687 -21.086  0.00  0.00    -0.008 C 
ATOM      9  C   UNL     1      34.757 -20.362 -20.073  0.00  0.00    -0.024 C 
ATOM     10  C   UNL     1      32.679 -19.684 -21.104  0.00  0.00    -0.003 C 
ATOM     11  C   UNL     1      34.045 -21.032 -19.079  0.00  0.00    -0.005 C 
ATOM     12  C   UNL     1      36.250 -20.380 -20.034  0.00  0.00    +0.031 C 
ATOM     13  C   UNL     1      31.968 -20.354 -20.109  0.00  0.00    -0.000 C 
ATOM     14  C   UNL     1      32.650 -21.028 -19.097  0.00  0.00    -0.000 C 
ENDBRANCH   3   8
BRANCH   7  15
ATOM     15  C   UNL     1      34.154 -15.210 -21.856  0.00  0.00    +0.087 C 
ATOM     16  C   UNL     1      33.599 -14.359 -20.900  0.00  0.00    +0.141 C 
ATOM     17  C   UNL     1      34.285 -14.783 -23.177  0.00  0.00    +0.011 C 
ATOM     18  C   UNL     1      33.174 -13.082 -21.266  0.00  0.00    +0.073 C 
ATOM     19  C   UNL     1      33.860 -13.505 -23.543  0.00  0.00    +0.037 C 
ATOM     20  C   UNL     1      33.304 -12.656 -22.587  0.00  0.00    +0.137 C 
BRANCH  16  21
ATOM     21  O   UNL     1      33.463 -14.758 -19.603  0.00  0.00    -0.505 OA
ATOM     22  H   UNL     1      34.214 -15.040 -19.119  0.00  0.00    +0.292 HD
ENDBRANCH  16  21
BRANCH  20  23
ATOM     23  O   UNL     1      32.890 -11.409 -22.944  0.00  0.00    -0.505 OA
ATOM     24  H   UNL     1      32.694 -11.220 -23.840  0.00  0.00    +0.292 HD
ENDBRANCH  20  23
ENDBRANCH   7  15
TORSDOF 4
ENDMDL
MODEL 2
REMARK VINA RESULT:     -10.7      0.875      1.439
REMARK  Name = 25058141
REMARK  4 active torsions:
REMARK  status: ('A' for Active; 'I' for Inactive)
REMARK    1  A    between atoms: C_3  and  C_8
REMARK    2  A    between atoms: C_7  and  C_15
REMARK    3  A    between atoms: C_16  and  O_21
REMARK    4  A    between atoms: C_20  and  O_23
REMARK                            x       y       z     vdW  Elec       q    Type
REMARK                         _______ _______ _______ _____ _____    ______ ____
ROOT
ATOM      1  O   UNL     1      35.133 -16.622 -20.387  0.00  0.00    -0.270 OA
ATOM      2  N   UNL     1      34.238 -17.455 -22.368  0.00  0.00    -0.274 N 
ATOM      3  C   UNL     1      34.759 -18.820 -22.231  0.00  0.00    +0.098 C 
ATOM      4  C   UNL     1      34.533 -19.442 -23.616  0.00  0.00    +0.026 C 
ATOM      5  C   UNL     1      33.305 -18.707 -24.146  0.00  0.00    +0.024 C 
ATOM      6  C   UNL     1      33.498 -17.293 -23.620  0.00  0.00    +0.094 C 
ATOM      7  C   UNL     1      34.508 -16.465 -21.433  0.00  0.00    +0.252 C 
ENDROOT
BRANCH   3   8
ATOM      8  C   UNL     1      34.107 -19.624 -21.123  0.00  0.00    -0.008 C 
ATOM      9  C   UNL     1      34.878 -20.284 -20.166  0.00  0.00    -0.024 C 
ATOM     10  C   UNL     1      32.715 -19.700 -21.069  0.00  0.00    -0.003 C 
ATOM     11  C   UNL     1      34.258 -21.019 -19.156  0.00  0.00    -0.005 C 
ATOM     12  C   UNL     1      36.370 -20.219 -20.203  0.00  0.00    +0.031 C 
ATOM     13  C   UNL     1      32.095 -20.434 -20.058  0.00  0.00    -0.000 C 
ATOM     14  C   UNL     1      32.866 -21.094 -19.102  0.00  0.00    -0.000 C 
ENDBRANCH   3   8
BRANCH   7  15
ATOM     15  C   UNL     1      33.985 -15.120 -21.709  0.00  0.00    +0.087 C 
ATOM     16  C   UNL     1      34.283 -14.467 -22.905  0.00  0.00    +0.141 C 
ATOM     17  C   UNL     1      33.182 -14.496 -20.755  0.00  0.00    +0.011 C 
ATOM     18  C   UNL     1      33.778 -13.190 -23.147  0.00  0.00    +0.073 C 
ATOM     19  C   UNL     1      32.675 -13.218 -20.998  0.00  0.00    +0.037 C 
ATOM     20  C   UNL     1      32.974 -12.566 -22.193  0.00  0.00    +0.137 C 
BRANCH  16  21
ATOM     21  O   UNL     1      35.067 -15.060 -23.849  0.00  0.00    -0.505 OA
ATOM     22  H   UNL     1      34.790 -15.859 -24.254  0.00  0.00    +0.292 HD
ENDBRANCH  16  21
BRANCH  20  23
ATOM     23  O   UNL     1      32.479 -11.320 -22.429  0.00  0.00    -0.505 OA
ATOM     24  H   UNL     1      32.229 -10.772 -21.712  0.00  0.00    +0.292 HD
ENDBRANCH  20  23
ENDBRANCH   7  15
TORSDOF 4
ENDMDL
MODEL 3
REMARK VINA RESULT:      -9.5      5.005      9.758
REMARK  Name = 25058141
REMARK  4 active torsions:
REMARK  status: ('A' for Active; 'I' for Inactive)
REMARK    1  A    between atoms: C_3  and  C_8
REMARK    2  A    between atoms: C_7  and  C_15
REMARK    3  A    between atoms: C_16  and  O_21
REMARK    4  A    between atoms: C_20  and  O_23
REMARK                            x       y       z     vdW  Elec       q    Type
REMARK                         _______ _______ _______ _____ _____    ______ ____
ROOT
ATOM      1  O   UNL     1      34.155  -9.870 -23.761  0.00  0.00    -0.270 OA
ATOM      2  N   UNL     1      32.218 -10.132 -22.496  0.00  0.00    -0.274 N 
ATOM      3  C   UNL     1      32.197  -8.778 -21.932  0.00  0.00    +0.098 C 
ATOM      4  C   UNL     1      31.152  -8.860 -20.811  0.00  0.00    +0.026 C 
ATOM      5  C   UNL     1      30.189  -9.940 -21.294  0.00  0.00    +0.024 C 
ATOM      6  C   UNL     1      31.108 -10.937 -21.985  0.00  0.00    +0.094 C 
ATOM      7  C   UNL     1      33.230 -10.563 -23.343  0.00  0.00    +0.252 C 
ENDROOT
BRANCH   3   8
ATOM      8  C   UNL     1      31.878  -7.691 -22.941  0.00  0.00    -0.008 C 
ATOM      9  C   UNL     1      32.764  -6.637 -23.165  0.00  0.00    -0.024 C 
ATOM     10  C   UNL     1      30.677  -7.755 -23.649  0.00  0.00    -0.003 C 
ATOM     11  C   UNL     1      32.450  -5.648 -24.097  0.00  0.00    -0.005 C 
ATOM     12  C   UNL     1      34.054  -6.546 -22.418  0.00  0.00    +0.031 C 
ATOM     13  C   UNL     1      30.365  -6.766 -24.582  0.00  0.00    -0.000 C 
ATOM     14  C   UNL     1      31.250  -5.713 -24.806  0.00  0.00    -0.000 C 
ENDBRANCH   3   8
BRANCH   7  15
ATOM     15  C   UNL     1      33.179 -11.960 -23.794  0.00  0.00    +0.087 C 
ATOM     16  C   UNL     1      33.609 -12.997 -22.965  0.00  0.00    +0.141 C 
ATOM     17  C   UNL     1      32.692 -12.244 -25.070  0.00  0.00    +0.011 C 
ATOM     18  C   UNL     1      33.553 -14.316 -23.413  0.00  0.00    +0.073 C 
ATOM     19  C   UNL     1      32.635 -13.564 -25.517  0.00  0.00    +0.037 C 
ATOM     20  C   UNL     1      33.066 -14.600 -24.688  0.00  0.00    +0.137 C 
BRANCH  16  21
ATOM     21  O   UNL     1      34.089 -12.740 -21.715  0.00  0.00    -0.505 OA
ATOM     22  H   UNL     1      34.042 -13.399 -21.051  0.00  0.00    +0.292 HD
ENDBRANCH  16  21
BRANCH  20  23
ATOM     23  O   UNL     1      33.011 -15.888 -25.125  0.00  0.00    -0.505 OA
ATOM     24  H   UNL     1      33.797 -16.392 -25.197  0.00  0.00    +0.292 HD
ENDBRANCH  20  23
ENDBRANCH   7  15
TORSDOF 4
ENDMDL
MODEL 4
REMARK VINA RESULT:      -9.5      8.543     10.552
REMARK  Name = 25058141
REMARK  4 active torsions:
REMARK  status: ('A' for Active; 'I' for Inactive)
REMARK    1  A    between atoms: C_3  and  C_8
REMARK    2  A    between atoms: C_7  and  C_15
REMARK    3  A    between atoms: C_16  and  O_21
REMARK    4  A    between atoms: C_20  and  O_23
REMARK                            x       y       z     vdW  Elec       q    Type
REMARK                         _______ _______ _______ _____ _____    ______ ____
ROOT
ATOM      1  O   UNL     1      32.540 -23.426 -12.838  0.00  0.00    -0.270 OA
ATOM      2  N   UNL     1      33.514 -22.856 -14.875  0.00  0.00    -0.274 N 
ATOM      3  C   UNL     1      34.867 -22.621 -14.359  0.00  0.00    +0.098 C 
ATOM      4  C   UNL     1      35.589 -21.924 -15.519  0.00  0.00    +0.026 C 
ATOM      5  C   UNL     1      34.890 -22.469 -16.761  0.00  0.00    +0.024 C 
ATOM      6  C   UNL     1      33.442 -22.593 -16.313  0.00  0.00    +0.094 C 
ATOM      7  C   UNL     1      32.459 -23.209 -14.045  0.00  0.00    +0.252 C 
ENDROOT
BRANCH   3   8
ATOM      8  C   UNL     1      35.584 -23.879 -13.905  0.00  0.00    -0.008 C 
ATOM      9  C   UNL     1      36.156 -23.961 -12.635  0.00  0.00    -0.024 C 
ATOM     10  C   UNL     1      35.668 -24.964 -14.779  0.00  0.00    -0.003 C 
ATOM     11  C   UNL     1      36.811 -25.127 -12.239  0.00  0.00    -0.005 C 
ATOM     12  C   UNL     1      36.079 -22.813 -11.683  0.00  0.00    +0.031 C 
ATOM     13  C   UNL     1      36.323 -26.130 -14.381  0.00  0.00    -0.000 C 
ATOM     14  C   UNL     1      36.895 -26.212 -13.112  0.00  0.00    -0.000 C 
ENDBRANCH   3   8
BRANCH   7  15
ATOM     15  C   UNL     1      31.135 -23.355 -14.666  0.00  0.00    +0.087 C 
ATOM     16  C   UNL     1      30.317 -24.443 -14.361  0.00  0.00    +0.141 C 
ATOM     17  C   UNL     1      30.700 -22.387 -15.571  0.00  0.00    +0.011 C 
ATOM     18  C   UNL     1      29.064 -24.563 -14.962  0.00  0.00    +0.073 C 
ATOM     19  C   UNL     1      29.446 -22.507 -16.172  0.00  0.00    +0.037 C 
ATOM     20  C   UNL     1      28.629 -23.595 -15.867  0.00  0.00    +0.137 C 
BRANCH  16  21
ATOM     21  O   UNL     1      30.724 -25.399 -13.479  0.00  0.00    -0.505 OA
ATOM     22  H   UNL     1      30.201 -26.166 -13.345  0.00  0.00    +0.292 HD
ENDBRANCH  16  21
BRANCH  20  23
ATOM     23  O   UNL     1      27.406 -23.712 -16.453  0.00  0.00    -0.505 OA
ATOM     24  H   UNL     1      27.058 -24.560 -16.646  0.00  0.00    +0.292 HD
ENDBRANCH  20  23
ENDBRANCH   7  15
TORSDOF 4
ENDMDL
MODEL 5
REMARK VINA RESULT:      -9.4      2.472      6.623
REMARK  Name = 25058141
REMARK  4 active torsions:
REMARK  status: ('A' for Active; 'I' for Inactive)
REMARK    1  A    between atoms: C_3  and  C_8
REMARK    2  A    between atoms: C_7  and  C_15
REMARK    3  A    between atoms: C_16  and  O_21
REMARK    4  A    between atoms: C_20  and  O_23
REMARK                            x       y       z     vdW  Elec       q    Type
REMARK                         _______ _______ _______ _____ _____    ______ ____
ROOT
ATOM      1  O   UNL     1      32.652 -19.226 -21.555  0.00  0.00    -0.270 OA
ATOM      2  N   UNL     1      34.945 -18.950 -21.260  0.00  0.00    -0.274 N 
ATOM      3  C   UNL     1      35.148 -18.008 -22.366  0.00  0.00    +0.098 C 
ATOM      4  C   UNL     1      36.673 -17.952 -22.529  0.00  0.00    +0.026 C 
ATOM      5  C   UNL     1      37.197 -18.237 -21.124  0.00  0.00    +0.024 C 
ATOM      6  C   UNL     1      36.209 -19.261 -20.590  0.00  0.00    +0.094 C 
ATOM      7  C   UNL     1      33.703 -19.501 -20.979  0.00  0.00    +0.252 C 
ENDROOT
BRANCH   3   8
ATOM      8  C   UNL     1      34.542 -16.637 -22.132  0.00  0.00    -0.008 C 
ATOM      9  C   UNL     1      34.079 -15.865 -23.198  0.00  0.00    -0.024 C 
ATOM     10  C   UNL     1      34.453 -16.149 -20.827  0.00  0.00    -0.003 C 
ATOM     11  C   UNL     1      33.525 -14.608 -22.960  0.00  0.00    -0.005 C 
ATOM     12  C   UNL     1      34.165 -16.366 -24.603  0.00  0.00    +0.031 C 
ATOM     13  C   UNL     1      33.899 -14.891 -20.590  0.00  0.00    -0.000 C 
ATOM     14  C   UNL     1      33.436 -14.120 -21.655  0.00  0.00    -0.000 C 
ENDBRANCH   3   8
BRANCH   7  15
ATOM     15  C   UNL     1      33.634 -20.482 -19.887  0.00  0.00    +0.087 C 
ATOM     16  C   UNL     1      32.440 -20.707 -19.200  0.00  0.00    +0.141 C 
ATOM     17  C   UNL     1      34.782 -21.193 -19.541  0.00  0.00    +0.011 C 
ATOM     18  C   UNL     1      32.396 -21.642 -18.167  0.00  0.00    +0.073 C 
ATOM     19  C   UNL     1      34.738 -22.129 -18.507  0.00  0.00    +0.037 C 
ATOM     20  C   UNL     1      33.545 -22.353 -17.821  0.00  0.00    +0.137 C 
BRANCH  16  21
ATOM     21  O   UNL     1      31.307 -20.021 -19.524  0.00  0.00    -0.505 OA
ATOM     22  H   UNL     1      31.054 -19.271 -19.022  0.00  0.00    +0.292 HD
ENDBRANCH  16  21
BRANCH  20  23
ATOM     23  O   UNL     1      33.502 -23.267 -16.812  0.00  0.00    -0.505 OA
ATOM     24  H   UNL     1      32.796 -23.252 -16.197  0.00  0.00    +0.292 HD
ENDBRANCH  20  23
ENDBRANCH   7  15
TORSDOF 4
ENDMDL
MODEL 6
REMARK VINA RESULT:      -9.1      5.332     10.438
REMARK  Name = 25058141
REMARK  4 active torsions:
REMARK  status: ('A' for Active; 'I' for Inactive)
REMARK    1  A    between atoms: C_3  and  C_8
REMARK    2  A    between atoms: C_7  and  C_15
REMARK    3  A    between atoms: C_16  and  O_21
REMARK    4  A    between atoms: C_20  and  O_23
REMARK                            x       y       z     vdW  Elec       q    Type
REMARK                         _______ _______ _______ _____ _____    ______ ____
ROOT
ATOM      1  O   UNL     1      30.520  -9.571 -22.463  0.00  0.00    -0.270 OA
ATOM      2  N   UNL     1      32.602  -8.785 -23.146  0.00  0.00    -0.274 N 
ATOM      3  C   UNL     1      32.177  -7.415 -23.453  0.00  0.00    +0.098 C 
ATOM      4  C   UNL     1      33.363  -6.824 -24.225  0.00  0.00    +0.026 C 
ATOM      5  C   UNL     1      34.568  -7.577 -23.669  0.00  0.00    +0.024 C 
ATOM      6  C   UNL     1      34.022  -8.978 -23.443  0.00  0.00    +0.094 C 
ATOM      7  C   UNL     1      31.711  -9.753 -22.705  0.00  0.00    +0.252 C 
ENDROOT
BRANCH   3   8
ATOM      8  C   UNL     1      31.815  -6.591 -22.231  0.00  0.00    -0.008 C 
ATOM      9  C   UNL     1      30.928  -5.518 -22.327  0.00  0.00    -0.024 C 
ATOM     10  C   UNL     1      32.383  -6.918 -21.000  0.00  0.00    -0.003 C 
ATOM     11  C   UNL     1      30.609  -4.774 -21.192  0.00  0.00    -0.005 C 
ATOM     12  C   UNL     1      30.308  -5.148 -23.635  0.00  0.00    +0.031 C 
ATOM     13  C   UNL     1      32.063  -6.173 -19.865  0.00  0.00    -0.000 C 
ATOM     14  C   UNL     1      31.177  -5.101 -19.960  0.00  0.00    -0.000 C 
ENDBRANCH   3   8
BRANCH   7  15
ATOM     15  C   UNL     1      32.240 -11.107 -22.492  0.00  0.00    +0.087 C 
ATOM     16  C   UNL     1      32.077 -11.756 -21.268  0.00  0.00    +0.141 C 
ATOM     17  C   UNL     1      32.912 -11.745 -23.535  0.00  0.00    +0.011 C 
ATOM     18  C   UNL     1      32.587 -13.041 -21.086  0.00  0.00    +0.073 C 
ATOM     19  C   UNL     1      33.422 -13.031 -23.353  0.00  0.00    +0.037 C 
ATOM     20  C   UNL     1      33.259 -13.678 -22.128  0.00  0.00    +0.137 C 
BRANCH  16  21
ATOM     21  O   UNL     1      31.423 -11.149 -20.236  0.00  0.00    -0.505 OA
ATOM     22  H   UNL     1      30.773 -11.620 -19.753  0.00  0.00    +0.292 HD
ENDBRANCH  16  21
BRANCH  20  23
ATOM     23  O   UNL     1      33.757 -14.933 -21.952  0.00  0.00    -0.505 OA
ATOM     24  H   UNL     1      33.906 -15.486 -22.693  0.00  0.00    +0.292 HD
ENDBRANCH  20  23
ENDBRANCH   7  15
TORSDOF 4
ENDMDL
MODEL 7
REMARK VINA RESULT:      -9.0      2.817      4.998
REMARK  Name = 25058141
REMARK  4 active torsions:
REMARK  status: ('A' for Active; 'I' for Inactive)
REMARK    1  A    between atoms: C_3  and  C_8
REMARK    2  A    between atoms: C_7  and  C_15
REMARK    3  A    between atoms: C_16  and  O_21
REMARK    4  A    between atoms: C_20  and  O_23
REMARK                            x       y       z     vdW  Elec       q    Type
REMARK                         _______ _______ _______ _____ _____    ______ ____
ROOT
ATOM      1  O   UNL     1      36.265 -21.105 -20.356  0.00  0.00    -0.270 OA
ATOM      2  N   UNL     1      34.059 -20.947 -19.629  0.00  0.00    -0.274 N 
ATOM      3  C   UNL     1      34.088 -22.112 -18.738  0.00  0.00    +0.098 C 
ATOM      4  C   UNL     1      32.611 -22.358 -18.403  0.00  0.00    +0.026 C 
ATOM      5  C   UNL     1      31.984 -20.970 -18.492  0.00  0.00    +0.024 C 
ATOM      6  C   UNL     1      32.733 -20.329 -19.651  0.00  0.00    +0.094 C 
ATOM      7  C   UNL     1      35.159 -20.571 -20.388  0.00  0.00    +0.252 C 
ENDROOT
BRANCH   3   8
ATOM      8  C   UNL     1      34.938 -21.921 -17.496  0.00  0.00    -0.008 C 
ATOM      9  C   UNL     1      34.559 -22.477 -16.274  0.00  0.00    -0.024 C 
ATOM     10  C   UNL     1      36.114 -21.175 -17.587  0.00  0.00    -0.003 C 
ATOM     11  C   UNL     1      35.355 -22.289 -15.144  0.00  0.00    -0.005 C 
ATOM     12  C   UNL     1      33.304 -23.279 -16.151  0.00  0.00    +0.031 C 
ATOM     13  C   UNL     1      36.909 -20.987 -16.457  0.00  0.00    -0.000 C 
ATOM     14  C   UNL     1      36.530 -21.543 -15.236  0.00  0.00    -0.000 C 
ENDBRANCH   3   8
BRANCH   7  15
ATOM     15  C   UNL     1      34.991 -19.426 -21.293  0.00  0.00    +0.087 C 
ATOM     16  C   UNL     1      35.802 -18.296 -21.178  0.00  0.00    +0.141 C 
ATOM     17  C   UNL     1      34.005 -19.478 -22.278  0.00  0.00    +0.011 C 
ATOM     18  C   UNL     1      35.626 -17.220 -22.046  0.00  0.00    +0.073 C 
ATOM     19  C   UNL     1      33.830 -18.401 -23.147  0.00  0.00    +0.037 C 
ATOM     20  C   UNL     1      34.640 -17.272 -23.031  0.00  0.00    +0.137 C 
BRANCH  16  21
ATOM     21  O   UNL     1      36.772 -18.226 -20.221  0.00  0.00    -0.505 OA
ATOM     22  H   UNL     1      37.358 -18.947 -20.095  0.00  0.00    +0.292 HD
ENDBRANCH  16  21
BRANCH  20  23
ATOM     23  O   UNL     1      34.469 -16.222 -23.879  0.00  0.00    -0.505 OA
ATOM     24  H   UNL     1      34.282 -15.369 -23.538  0.00  0.00    +0.292 HD
ENDBRANCH  20  23
ENDBRANCH   7  15
TORSDOF 4
ENDMDL
MODEL 8
REMARK VINA RESULT:      -8.2      7.720     11.052
REMARK  Name = 25058141
REMARK  4 active torsions:
REMARK  status: ('A' for Active; 'I' for Inactive)
REMARK    1  A    between atoms: C_3  and  C_8
REMARK    2  A    between atoms: C_7  and  C_15
REMARK    3  A    between atoms: C_16  and  O_21
REMARK    4  A    between atoms: C_20  and  O_23
REMARK                            x       y       z     vdW  Elec       q    Type
REMARK                         _______ _______ _______ _____ _____    ______ ____
ROOT
ATOM      1  O   UNL     1      29.877  -7.166 -23.780  0.00  0.00    -0.270 OA
ATOM      2  N   UNL     1      31.662  -6.566 -22.410  0.00  0.00    -0.274 N 
ATOM      3  C   UNL     1      31.329  -7.458 -21.293  0.00  0.00    +0.098 C 
ATOM      4  C   UNL     1      32.228  -6.970 -20.150  0.00  0.00    +0.026 C 
ATOM      5  C   UNL     1      33.448  -6.400 -20.867  0.00  0.00    +0.024 C 
ATOM      6  C   UNL     1      32.849  -5.763 -22.112  0.00  0.00    +0.094 C 
ATOM      7  C   UNL     1      30.872  -6.482 -23.548  0.00  0.00    +0.252 C 
ENDROOT
BRANCH   3   8
ATOM      8  C   UNL     1      31.529  -8.931 -21.597  0.00  0.00    -0.008 C 
ATOM      9  C   UNL     1      31.156  -9.911 -20.676  0.00  0.00    -0.024 C 
ATOM     10  C   UNL     1      32.096  -9.302 -22.817  0.00  0.00    -0.003 C 
ATOM     11  C   UNL     1      31.350 -11.259 -20.975  0.00  0.00    -0.005 C 
ATOM     12  C   UNL     1      30.549  -9.539 -19.363  0.00  0.00    +0.031 C 
ATOM     13  C   UNL     1      32.289 -10.650 -23.115  0.00  0.00    -0.000 C 
ATOM     14  C   UNL     1      31.916 -11.629 -22.195  0.00  0.00    -0.000 C 
ENDBRANCH   3   8
BRANCH   7  15
ATOM     15  C   UNL     1      31.270  -5.507 -24.572  0.00  0.00    +0.087 C 
ATOM     16  C   UNL     1      30.856  -4.176 -24.494  0.00  0.00    +0.141 C 
ATOM     17  C   UNL     1      32.072  -5.926 -25.633  0.00  0.00    +0.011 C 
ATOM     18  C   UNL     1      31.244  -3.266 -25.476  0.00  0.00    +0.073 C 
ATOM     19  C   UNL     1      32.462  -5.014 -26.615  0.00  0.00    +0.037 C 
ATOM     20  C   UNL     1      32.047  -3.685 -26.536  0.00  0.00    +0.137 C 
BRANCH  16  21
ATOM     21  O   UNL     1      30.071  -3.748 -23.465  0.00  0.00    -0.505 OA
ATOM     22  H   UNL     1      29.478  -3.033 -23.594  0.00  0.00    +0.292 HD
ENDBRANCH  16  21
BRANCH  20  23
ATOM     23  O   UNL     1      32.427  -2.797 -27.495  0.00  0.00    -0.505 OA
ATOM     24  H   UNL     1      33.037  -3.055 -28.158  0.00  0.00    +0.292 HD
ENDBRANCH  20  23
ENDBRANCH   7  15
TORSDOF 4
ENDMDL
