MODEL 1
REMARK VINA RESULT:     -10.2      0.000      0.000
REMARK  Name = 73333
REMARK  7 active torsions:
REMARK  status: ('A' for Active; 'I' for Inactive)
REMARK    1  A    between atoms: C_1  and  C_2
REMARK    2  A    between atoms: C_1  and  C_17
REMARK    3  A    between atoms: C_2  and  C_3
REMARK    4  A    between atoms: C_3  and  N_5
REMARK    5  A    between atoms: N_7  and  C_15
REMARK    6  A    between atoms: C_17  and  C_19
REMARK    7  A    between atoms: C_17  and  C_26
REMARK                            x       y       z     vdW  Elec       q    Type
REMARK                         _______ _______ _______ _____ _____    ______ ____
ROOT
ATOM      1  C   UNL     1      33.783 -23.853 -14.385  0.00  0.00    +0.007 C 
ENDROOT
BRANCH   1   2
ATOM      2  C   UNL     1      33.332 -23.914 -12.918  0.00  0.00    -0.022 C 
BRANCH   2   3
ATOM      3  C   UNL     1      31.847 -23.580 -12.786  0.00  0.00    -0.077 C 
BRANCH   3   5
ATOM      4  O   UNL     1      27.196 -24.371 -16.963  0.00  0.00    -0.253 OA
ATOM      5  N   UNL     1      31.213 -23.557 -14.104  0.00  0.00    +0.389 N 
ATOM      6  N   UNL     1      29.035 -23.365 -15.973  0.00  0.00    -0.269 N 
ATOM      7  N   UNL     1      27.311 -22.078 -16.961  0.00  0.00    -0.289 N 
ATOM      8  C   UNL     1      30.551 -22.268 -14.336  0.00  0.00    -0.055 C 
ATOM      9  C   UNL     1      30.240 -24.651 -14.228  0.00  0.00    -0.055 C 
ATOM     10  C   UNL     1      29.909 -22.209 -15.724  0.00  0.00    +0.072 C 
ATOM     11  C   UNL     1      29.623 -24.660 -15.623  0.00  0.00    +0.072 C 
ATOM     12  C   UNL     1      27.803 -23.341 -16.651  0.00  0.00    +0.304 C 
ATOM     13  H   UNL     1      31.938 -23.684 -14.809  0.00  0.00    -0.080 HD
ATOM     14  H   UNL     1      27.837 -21.291 -16.688  0.00  0.00    +0.151 HD
BRANCH   7  15
ATOM     15  C   UNL     1      26.064 -21.865 -17.664  0.00  0.00    +0.091 C 
ATOM     16  C   UNL     1      25.569 -20.443 -17.497  0.00  0.00    +0.023 C 
ENDBRANCH   7  15
ENDBRANCH   3   5
ENDBRANCH   2   3
ENDBRANCH   1   2
BRANCH   1  17
ATOM     17  C   UNL     1      35.073 -23.015 -14.580  0.00  0.00    +0.044 C 
BRANCH  17  19
ATOM     18  F   UNL     1      39.806 -25.768 -13.179  0.00  0.00    -0.204 F 
ATOM     19  C   UNL     1      36.349 -23.758 -14.202  0.00  0.00    -0.018 C 
ATOM     20  C   UNL     1      36.695 -24.934 -14.868  0.00  0.00    -0.002 C 
ATOM     21  C   UNL     1      37.171 -23.262 -13.191  0.00  0.00    -0.002 C 
ATOM     22  C   UNL     1      37.863 -25.613 -14.522  0.00  0.00    +0.029 C 
ATOM     23  C   UNL     1      38.339 -23.940 -12.845  0.00  0.00    +0.029 C 
ATOM     24  C   UNL     1      38.685 -25.117 -13.511  0.00  0.00    +0.140 C 
ENDBRANCH  17  19
BRANCH  17  26
ATOM     25  F   UNL     1      35.483 -20.743 -19.742  0.00  0.00    -0.204 F 
ATOM     26  C   UNL     1      35.184 -22.402 -15.973  0.00  0.00    -0.018 C 
ATOM     27  C   UNL     1      36.344 -21.724 -16.347  0.00  0.00    -0.002 C 
ATOM     28  C   UNL     1      34.124 -22.519 -16.873  0.00  0.00    -0.002 C 
ATOM     29  C   UNL     1      36.445 -21.163 -17.620  0.00  0.00    +0.029 C 
ATOM     30  C   UNL     1      34.225 -21.959 -18.146  0.00  0.00    +0.029 C 
ATOM     31  C   UNL     1      35.386 -21.281 -18.520  0.00  0.00    +0.140 C 
ENDBRANCH  17  26
ENDBRANCH   1  17
TORSDOF 7
ENDMDL
MODEL 2
REMARK VINA RESULT:     -10.0      5.012      7.075
REMARK  Name = 73333
REMARK  7 active torsions:
REMARK  status: ('A' for Active; 'I' for Inactive)
REMARK    1  A    between atoms: C_1  and  C_2
REMARK    2  A    between atoms: C_1  and  C_17
REMARK    3  A    between atoms: C_2  and  C_3
REMARK    4  A    between atoms: C_3  and  N_5
REMARK    5  A    between atoms: N_7  and  C_15
REMARK    6  A    between atoms: C_17  and  C_19
REMARK    7  A    between atoms: C_17  and  C_26
REMARK                            x       y       z     vdW  Elec       q    Type
REMARK                         _______ _______ _______ _____ _____    ______ ____
ROOT
ATOM      1  C   UNL     1      35.350 -21.666 -16.559  0.00  0.00    +0.007 C 
ENDROOT
BRANCH   1   2
ATOM      2  C   UNL     1      35.365 -21.542 -18.090  0.00  0.00    -0.022 C 
BRANCH   2   3
ATOM      3  C   UNL     1      36.216 -20.352 -18.536  0.00  0.00    -0.077 C 
BRANCH   3   5
ATOM      4  O   UNL     1      33.027 -18.159 -23.509  0.00  0.00    -0.253 OA
ATOM      5  N   UNL     1      35.975 -20.058 -19.948  0.00  0.00    +0.389 N 
ATOM      6  N   UNL     1      34.874 -18.627 -22.187  0.00  0.00    -0.269 N 
ATOM      7  N   UNL     1      34.748 -16.640 -23.467  0.00  0.00    -0.289 N 
ATOM      8  C   UNL     1      36.477 -18.721 -20.288  0.00  0.00    -0.055 C 
ATOM      9  C   UNL     1      34.543 -20.151 -20.258  0.00  0.00    -0.055 C 
ATOM     10  C   UNL     1      36.266 -18.404 -21.771  0.00  0.00    +0.072 C 
ATOM     11  C   UNL     1      34.302 -19.900 -21.744  0.00  0.00    +0.072 C 
ATOM     12  C   UNL     1      34.139 -17.827 -23.081  0.00  0.00    +0.304 C 
ATOM     13  H   UNL     1      36.476 -20.747 -20.507  0.00  0.00    -0.080 HD
ATOM     14  H   UNL     1      35.635 -16.425 -23.095  0.00  0.00    +0.151 HD
BRANCH   7  15
ATOM     15  C   UNL     1      34.142 -15.701 -24.387  0.00  0.00    +0.091 C 
ATOM     16  C   UNL     1      33.537 -14.520 -23.656  0.00  0.00    +0.023 C 
ENDBRANCH   7  15
ENDBRANCH   3   5
ENDBRANCH   2   3
ENDBRANCH   1   2
BRANCH   1  17
ATOM     17  C   UNL     1      34.733 -23.002 -16.073  0.00  0.00    +0.044 C 
BRANCH  17  19
ATOM     18  F   UNL     1      37.817 -25.630 -12.132  0.00  0.00    -0.204 F 
ATOM     19  C   UNL     1      35.564 -23.710 -15.011  0.00  0.00    -0.018 C 
ATOM     20  C   UNL     1      35.542 -25.103 -14.920  0.00  0.00    -0.002 C 
ATOM     21  C   UNL     1      36.347 -22.967 -14.127  0.00  0.00    -0.002 C 
ATOM     22  C   UNL     1      36.303 -25.751 -13.948  0.00  0.00    +0.029 C 
ATOM     23  C   UNL     1      37.108 -23.615 -13.155  0.00  0.00    +0.029 C 
ATOM     24  C   UNL     1      37.086 -25.008 -13.066  0.00  0.00    +0.140 C 
ENDBRANCH  17  19
BRANCH  17  26
ATOM     25  F   UNL     1      29.341 -22.495 -14.447  0.00  0.00    -0.204 F 
ATOM     26  C   UNL     1      33.278 -22.865 -15.634  0.00  0.00    -0.018 C 
ATOM     27  C   UNL     1      32.958 -22.843 -14.277  0.00  0.00    -0.002 C 
ATOM     28  C   UNL     1      32.268 -22.762 -16.591  0.00  0.00    -0.002 C 
ATOM     29  C   UNL     1      31.627 -22.718 -13.876  0.00  0.00    +0.029 C 
ATOM     30  C   UNL     1      30.937 -22.636 -16.190  0.00  0.00    +0.029 C 
ATOM     31  C   UNL     1      30.618 -22.614 -14.832  0.00  0.00    +0.140 C 
ENDBRANCH  17  26
ENDBRANCH   1  17
TORSDOF 7
ENDMDL
MODEL 3
REMARK VINA RESULT:      -9.9      4.603      7.601
REMARK  Name = 73333
REMARK  7 active torsions:
REMARK  status: ('A' for Active; 'I' for Inactive)
REMARK    1  A    between atoms: C_1  and  C_2
REMARK    2  A    between atoms: C_1  and  C_17
REMARK    3  A    between atoms: C_2  and  C_3
REMARK    4  A    between atoms: C_3  and  N_5
REMARK    5  A    between atoms: N_7  and  C_15
REMARK    6  A    between atoms: C_17  and  C_19
REMARK    7  A    between atoms: C_17  and  C_26
REMARK                            x       y       z     vdW  Elec       q    Type
REMARK                         _______ _______ _______ _____ _____    ______ ____
ROOT
ATOM      1  C   UNL     1      34.087 -22.556 -16.070  0.00  0.00    +0.007 C 
ENDROOT
BRANCH   1   2
ATOM      2  C   UNL     1      32.937 -22.849 -17.044  0.00  0.00    -0.022 C 
BRANCH   2   3
ATOM      3  C   UNL     1      33.430 -22.852 -18.491  0.00  0.00    -0.077 C 
BRANCH   3   5
ATOM      4  O   UNL     1      36.204 -18.473 -22.073  0.00  0.00    -0.253 OA
ATOM      5  N   UNL     1      33.802 -21.499 -18.904  0.00  0.00    +0.389 N 
ATOM      6  N   UNL     1      34.557 -19.426 -20.748  0.00  0.00    -0.269 N 
ATOM      7  N   UNL     1      34.009 -18.047 -22.592  0.00  0.00    -0.289 N 
ATOM      8  C   UNL     1      32.819 -20.962 -19.851  0.00  0.00    -0.055 C 
ATOM      9  C   UNL     1      35.140 -21.494 -19.509  0.00  0.00    -0.055 C 
ATOM     10  C   UNL     1      33.171 -19.532 -20.272  0.00  0.00    +0.072 C 
ATOM     11  C   UNL     1      35.549 -20.073 -19.887  0.00  0.00    +0.072 C 
ATOM     12  C   UNL     1      35.005 -18.639 -21.825  0.00  0.00    +0.304 C 
ATOM     13  H   UNL     1      33.817 -20.907 -18.075  0.00  0.00    -0.080 HD
ATOM     14  H   UNL     1      33.069 -18.213 -22.349  0.00  0.00    +0.151 HD
BRANCH   7  15
ATOM     15  C   UNL     1      34.287 -17.198 -23.731  0.00  0.00    +0.091 C 
ATOM     16  C   UNL     1      34.372 -15.740 -23.329  0.00  0.00    +0.023 C 
ENDBRANCH   7  15
ENDBRANCH   3   5
ENDBRANCH   2   3
ENDBRANCH   1   2
BRANCH   1  17
ATOM     17  C   UNL     1      33.675 -22.734 -14.586  0.00  0.00    +0.044 C 
BRANCH  17  19
ATOM     18  F   UNL     1      28.345 -24.491 -13.907  0.00  0.00    -0.204 F 
ATOM     19  C   UNL     1      32.237 -23.207 -14.403  0.00  0.00    -0.018 C 
ATOM     20  C   UNL     1      31.178 -22.330 -14.637  0.00  0.00    -0.002 C 
ATOM     21  C   UNL     1      31.981 -24.518 -14.000  0.00  0.00    -0.002 C 
ATOM     22  C   UNL     1      29.863 -22.764 -14.470  0.00  0.00    +0.029 C 
ATOM     23  C   UNL     1      30.666 -24.952 -13.833  0.00  0.00    +0.029 C 
ATOM     24  C   UNL     1      29.607 -24.074 -14.068  0.00  0.00    +0.140 C 
ENDBRANCH  17  19
BRANCH  17  26
ATOM     25  F   UNL     1      37.278 -25.955 -11.652  0.00  0.00    -0.204 F 
ATOM     26  C   UNL     1      34.646 -23.603 -13.794  0.00  0.00    -0.018 C 
ATOM     27  C   UNL     1      34.690 -23.512 -12.403  0.00  0.00    -0.002 C 
ATOM     28  C   UNL     1      35.493 -24.488 -14.462  0.00  0.00    -0.002 C 
ATOM     29  C   UNL     1      35.578 -24.307 -11.679  0.00  0.00    +0.029 C 
ATOM     30  C   UNL     1      36.382 -25.283 -13.738  0.00  0.00    +0.029 C 
ATOM     31  C   UNL     1      36.424 -25.193 -12.347  0.00  0.00    +0.140 C 
ENDBRANCH  17  26
ENDBRANCH   1  17
TORSDOF 7
ENDMDL
MODEL 4
REMARK VINA RESULT:      -9.9      5.288      8.056
REMARK  Name = 73333
REMARK  7 active torsions:
REMARK  status: ('A' for Active; 'I' for Inactive)
REMARK    1  A    between atoms: C_1  and  C_2
REMARK    2  A    between atoms: C_1  and  C_17
REMARK    3  A    between atoms: C_2  and  C_3
REMARK    4  A    between atoms: C_3  and  N_5
REMARK    5  A    between atoms: N_7  and  C_15
REMARK    6  A    between atoms: C_17  and  C_19
REMARK    7  A    between atoms: C_17  and  C_26
REMARK                            x       y       z     vdW  Elec       q    Type
REMARK                         _______ _______ _______ _____ _____    ______ ____
ROOT
ATOM      1  C   UNL     1      33.987 -22.529 -18.134  0.00  0.00    +0.007 C 
ENDROOT
BRANCH   1   2
ATOM      2  C   UNL     1      34.032 -21.260 -18.998  0.00  0.00    -0.022 C 
BRANCH   2   3
ATOM      3  C   UNL     1      35.474 -20.855 -19.302  0.00  0.00    -0.077 C 
BRANCH   3   5
ATOM      4  O   UNL     1      33.332 -17.095 -23.882  0.00  0.00    -0.253 OA
ATOM      5  N   UNL     1      35.536 -20.101 -20.554  0.00  0.00    +0.389 N 
ATOM      6  N   UNL     1      34.865 -17.994 -22.392  0.00  0.00    -0.269 N 
ATOM      7  N   UNL     1      34.886 -15.691 -22.940  0.00  0.00    -0.289 N 
ATOM      8  C   UNL     1      36.004 -18.732 -20.308  0.00  0.00    -0.055 C 
ATOM      9  C   UNL     1      34.221 -20.075 -21.205  0.00  0.00    -0.055 C 
ATOM     10  C   UNL     1      36.108 -17.934 -21.611  0.00  0.00    +0.072 C 
ATOM     11  C   UNL     1      34.301 -19.337 -22.539  0.00  0.00    +0.072 C 
ATOM     12  C   UNL     1      34.293 -16.935 -23.121  0.00  0.00    +0.304 C 
ATOM     13  H   UNL     1      36.198 -20.567 -21.173  0.00  0.00    -0.080 HD
ATOM     14  H   UNL     1      35.649 -15.621 -22.321  0.00  0.00    +0.151 HD
BRANCH   7  15
ATOM     15  C   UNL     1      34.435 -14.494 -23.617  0.00  0.00    +0.091 C 
ATOM     16  C   UNL     1      33.746 -13.542 -22.661  0.00  0.00    +0.023 C 
ENDBRANCH   7  15
ENDBRANCH   3   5
ENDBRANCH   2   3
ENDBRANCH   1   2
BRANCH   1  17
ATOM     17  C   UNL     1      34.026 -22.221 -16.615  0.00  0.00    +0.044 C 
BRANCH  17  19
ATOM     18  F   UNL     1      29.165 -23.319 -13.946  0.00  0.00    -0.204 F 
ATOM     19  C   UNL     1      32.716 -22.517 -15.895  0.00  0.00    -0.018 C 
ATOM     20  C   UNL     1      31.549 -22.728 -16.630  0.00  0.00    -0.002 C 
ATOM     21  C   UNL     1      32.682 -22.575 -14.502  0.00  0.00    -0.002 C 
ATOM     22  C   UNL     1      30.350 -23.000 -15.972  0.00  0.00    +0.029 C 
ATOM     23  C   UNL     1      31.483 -22.846 -13.844  0.00  0.00    +0.029 C 
ATOM     24  C   UNL     1      30.317 -23.059 -14.579  0.00  0.00    +0.140 C 
ENDBRANCH  17  19
BRANCH  17  26
ATOM     25  F   UNL     1      38.400 -24.640 -13.970  0.00  0.00    -0.204 F 
ATOM     26  C   UNL     1      35.206 -22.874 -15.901  0.00  0.00    -0.018 C 
ATOM     27  C   UNL     1      35.053 -24.122 -15.297  0.00  0.00    -0.002 C 
ATOM     28  C   UNL     1      36.439 -22.222 -15.852  0.00  0.00    -0.002 C 
ATOM     29  C   UNL     1      36.132 -24.719 -14.645  0.00  0.00    +0.029 C 
ATOM     30  C   UNL     1      37.518 -22.820 -15.200  0.00  0.00    +0.029 C 
ATOM     31  C   UNL     1      37.364 -24.067 -14.597  0.00  0.00    +0.140 C 
ENDBRANCH  17  26
ENDBRANCH   1  17
TORSDOF 7
ENDMDL
MODEL 5
REMARK VINA RESULT:      -9.7     13.932     17.224
REMARK  Name = 73333
REMARK  7 active torsions:
REMARK  status: ('A' for Active; 'I' for Inactive)
REMARK    1  A    between atoms: C_1  and  C_2
REMARK    2  A    between atoms: C_1  and  C_17
REMARK    3  A    between atoms: C_2  and  C_3
REMARK    4  A    between atoms: C_3  and  N_5
REMARK    5  A    between atoms: N_7  and  C_15
REMARK    6  A    between atoms: C_17  and  C_19
REMARK    7  A    between atoms: C_17  and  C_26
REMARK                            x       y       z     vdW  Elec       q    Type
REMARK                         _______ _______ _______ _____ _____    ______ ____
ROOT
ATOM      1  C   UNL     1      31.916  -8.858 -23.458  0.00  0.00    +0.007 C 
ENDROOT
BRANCH   1   2
ATOM      2  C   UNL     1      31.661  -9.573 -22.123  0.00  0.00    -0.022 C 
BRANCH   2   3
ATOM      3  C   UNL     1      31.303 -11.042 -22.347  0.00  0.00    -0.077 C 
BRANCH   3   5
ATOM      4  O   UNL     1      34.528 -16.138 -20.521  0.00  0.00    -0.253 OA
ATOM      5  N   UNL     1      32.485 -11.885 -22.168  0.00  0.00    +0.389 N 
ATOM      6  N   UNL     1      33.937 -14.350 -21.874  0.00  0.00    -0.269 N 
ATOM      7  N   UNL     1      34.661 -16.406 -22.797  0.00  0.00    -0.289 N 
ATOM      8  C   UNL     1      32.657 -12.782 -23.317  0.00  0.00    -0.055 C 
ATOM      9  C   UNL     1      32.376 -12.669 -20.931  0.00  0.00    -0.055 C 
ATOM     10  C   UNL     1      33.907 -13.651 -23.167  0.00  0.00    +0.072 C 
ATOM     11  C   UNL     1      33.635 -13.505 -20.717  0.00  0.00    +0.072 C 
ATOM     12  C   UNL     1      34.382 -15.667 -21.654  0.00  0.00    +0.304 C 
ATOM     13  H   UNL     1      33.301 -11.279 -22.100  0.00  0.00    -0.080 HD
ATOM     14  H   UNL     1      34.527 -15.980 -23.675  0.00  0.00    +0.151 HD
BRANCH   7  15
ATOM     15  C   UNL     1      35.137 -17.773 -22.759  0.00  0.00    +0.091 C 
ATOM     16  C   UNL     1      34.049 -18.750 -23.153  0.00  0.00    +0.023 C 
ENDBRANCH   7  15
ENDBRANCH   3   5
ENDBRANCH   2   3
ENDBRANCH   1   2
BRANCH   1  17
ATOM     17  C   UNL     1      32.604  -7.480 -23.277  0.00  0.00    +0.044 C 
BRANCH  17  19
ATOM     18  F   UNL     1      33.861  -4.909 -28.152  0.00  0.00    -0.204 F 
ATOM     19  C   UNL     1      32.943  -6.788 -24.592  0.00  0.00    -0.018 C 
ATOM     20  C   UNL     1      31.954  -6.604 -25.559  0.00  0.00    -0.002 C 
ATOM     21  C   UNL     1      34.241  -6.337 -24.828  0.00  0.00    -0.002 C 
ATOM     22  C   UNL     1      32.265  -5.970 -26.762  0.00  0.00    +0.029 C 
ATOM     23  C   UNL     1      34.552  -5.702 -26.030  0.00  0.00    +0.029 C 
ATOM     24  C   UNL     1      33.563  -5.519 -26.997  0.00  0.00    +0.140 C 
ENDBRANCH  17  19
BRANCH  17  26
ATOM     25  F   UNL     1      29.766  -4.022 -19.818  0.00  0.00    -0.204 F 
ATOM     26  C   UNL     1      31.838  -6.547 -22.344  0.00  0.00    -0.018 C 
ATOM     27  C   UNL     1      32.345  -6.258 -21.077  0.00  0.00    -0.002 C 
ATOM     28  C   UNL     1      30.631  -5.984 -22.758  0.00  0.00    -0.002 C 
ATOM     29  C   UNL     1      31.645  -5.404 -20.224  0.00  0.00    +0.029 C 
ATOM     30  C   UNL     1      29.931  -5.130 -21.904  0.00  0.00    +0.029 C 
ATOM     31  C   UNL     1      30.438  -4.841 -20.638  0.00  0.00    +0.140 C 
ENDBRANCH  17  26
ENDBRANCH   1  17
TORSDOF 7
ENDMDL
MODEL 6
REMARK VINA RESULT:      -9.7      4.681      6.612
REMARK  Name = 73333
REMARK  7 active torsions:
REMARK  status: ('A' for Active; 'I' for Inactive)
REMARK    1  A    between atoms: C_1  and  C_2
REMARK    2  A    between atoms: C_1  and  C_17
REMARK    3  A    between atoms: C_2  and  C_3
REMARK    4  A    between atoms: C_3  and  N_5
REMARK    5  A    between atoms: N_7  and  C_15
REMARK    6  A    between atoms: C_17  and  C_19
REMARK    7  A    between atoms: C_17  and  C_26
REMARK                            x       y       z     vdW  Elec       q    Type
REMARK                         _______ _______ _______ _____ _____    ______ ____
ROOT
ATOM      1  C   UNL     1      35.760 -21.368 -15.848  0.00  0.00    +0.007 C 
ENDROOT
BRANCH   1   2
ATOM      2  C   UNL     1      36.556 -21.176 -17.148  0.00  0.00    -0.022 C 
BRANCH   2   3
ATOM      3  C   UNL     1      35.744 -21.629 -18.361  0.00  0.00    -0.077 C 
BRANCH   3   5
ATOM      4  O   UNL     1      35.276 -17.475 -23.076  0.00  0.00    -0.253 OA
ATOM      5  N   UNL     1      35.210 -20.470 -19.076  0.00  0.00    +0.389 N 
ATOM      6  N   UNL     1      34.549 -18.872 -21.374  0.00  0.00    -0.269 N 
ATOM      7  N   UNL     1      33.285 -18.585 -23.355  0.00  0.00    -0.289 N 
ATOM      8  C   UNL     1      34.112 -20.872 -19.963  0.00  0.00    -0.055 C 
ATOM      9  C   UNL     1      36.268 -19.811 -19.853  0.00  0.00    -0.055 C 
ATOM     10  C   UNL     1      33.516 -19.669 -20.697  0.00  0.00    +0.072 C 
ATOM     11  C   UNL     1      35.721 -18.569 -20.552  0.00  0.00    +0.072 C 
ATOM     12  C   UNL     1      34.429 -18.260 -22.635  0.00  0.00    +0.304 C 
ATOM     13  H   UNL     1      34.850 -19.809 -18.388  0.00  0.00    -0.080 HD
ATOM     14  H   UNL     1      32.643 -19.216 -22.956  0.00  0.00    +0.151 HD
BRANCH   7  15
ATOM     15  C   UNL     1      32.994 -18.042 -24.665  0.00  0.00    +0.091 C 
ATOM     16  C   UNL     1      31.638 -18.495 -25.164  0.00  0.00    +0.023 C 
ENDBRANCH   7  15
ENDBRANCH   3   5
ENDBRANCH   2   3
ENDBRANCH   1   2
BRANCH   1  17
ATOM     17  C   UNL     1      35.164 -22.793 -15.717  0.00  0.00    +0.044 C 
BRANCH  17  19
ATOM     18  F   UNL     1      37.635 -25.929 -11.715  0.00  0.00    -0.204 F 
ATOM     19  C   UNL     1      35.831 -23.638 -14.638  0.00  0.00    -0.018 C 
ATOM     20  C   UNL     1      36.461 -23.020 -13.557  0.00  0.00    -0.002 C 
ATOM     21  C   UNL     1      35.812 -25.030 -14.731  0.00  0.00    -0.002 C 
ATOM     22  C   UNL     1      37.070 -23.795 -12.570  0.00  0.00    +0.029 C 
ATOM     23  C   UNL     1      36.421 -25.804 -13.744  0.00  0.00    +0.029 C 
ATOM     24  C   UNL     1      37.050 -25.185 -12.663  0.00  0.00    +0.140 C 
ENDBRANCH  17  19
BRANCH  17  26
ATOM     25  F   UNL     1      29.540 -22.804 -15.137  0.00  0.00    -0.204 F 
ATOM     26  C   UNL     1      33.647 -22.795 -15.560  0.00  0.00    -0.018 C 
ATOM     27  C   UNL     1      33.076 -22.909 -14.292  0.00  0.00    -0.002 C 
ATOM     28  C   UNL     1      32.829 -22.685 -16.685  0.00  0.00    -0.002 C 
ATOM     29  C   UNL     1      31.689 -22.912 -14.149  0.00  0.00    +0.029 C 
ATOM     30  C   UNL     1      31.442 -22.687 -16.542  0.00  0.00    +0.029 C 
ATOM     31  C   UNL     1      30.872 -22.800 -15.274  0.00  0.00    +0.140 C 
ENDBRANCH  17  26
ENDBRANCH   1  17
TORSDOF 7
ENDMDL
MODEL 7
REMARK VINA RESULT:      -9.5      4.809      7.640
REMARK  Name = 73333
REMARK  7 active torsions:
REMARK  status: ('A' for Active; 'I' for Inactive)
REMARK    1  A    between atoms: C_1  and  C_2
REMARK    2  A    between atoms: C_1  and  C_17
REMARK    3  A    between atoms: C_2  and  C_3
REMARK    4  A    between atoms: C_3  and  N_5
REMARK    5  A    between atoms: N_7  and  C_15
REMARK    6  A    between atoms: C_17  and  C_19
REMARK    7  A    between atoms: C_17  and  C_26
REMARK                            x       y       z     vdW  Elec       q    Type
REMARK                         _______ _______ _______ _____ _____    ______ ____
ROOT
ATOM      1  C   UNL     1      34.479 -22.404 -16.702  0.00  0.00    +0.007 C 
ENDROOT
BRANCH   1   2
ATOM      2  C   UNL     1      35.641 -21.434 -16.961  0.00  0.00    -0.022 C 
BRANCH   2   3
ATOM      3  C   UNL     1      36.042 -21.440 -18.436  0.00  0.00    -0.077 C 
BRANCH   3   5
ATOM      4  O   UNL     1      35.189 -17.281 -23.092  0.00  0.00    -0.253 OA
ATOM      5  N   UNL     1      35.392 -20.337 -19.143  0.00  0.00    +0.389 N 
ATOM      6  N   UNL     1      34.596 -18.784 -21.429  0.00  0.00    -0.269 N 
ATOM      7  N   UNL     1      33.347 -18.608 -23.432  0.00  0.00    -0.289 N 
ATOM      8  C   UNL     1      34.365 -20.847 -20.060  0.00  0.00    -0.055 C 
ATOM      9  C   UNL     1      36.382 -19.547 -19.886  0.00  0.00    -0.055 C 
ATOM     10  C   UNL     1      33.648 -19.707 -20.788  0.00  0.00    +0.072 C 
ATOM     11  C   UNL     1      35.709 -18.363 -20.577  0.00  0.00    +0.072 C 
ATOM     12  C   UNL     1      34.430 -18.166 -22.682  0.00  0.00    +0.304 C 
ATOM     13  H   UNL     1      34.945 -19.736 -18.453  0.00  0.00    -0.080 HD
ATOM     14  H   UNL     1      32.774 -19.316 -23.057  0.00  0.00    +0.151 HD
BRANCH   7  15
ATOM     15  C   UNL     1      33.020 -18.077 -24.739  0.00  0.00    +0.091 C 
ATOM     16  C   UNL     1      31.658 -18.550 -25.205  0.00  0.00    +0.023 C 
ENDBRANCH   7  15
ENDBRANCH   3   5
ENDBRANCH   2   3
ENDBRANCH   1   2
BRANCH   1  17
ATOM     17  C   UNL     1      34.161 -22.567 -15.193  0.00  0.00    +0.044 C 
BRANCH  17  19
ATOM     18  F   UNL     1      28.946 -24.491 -14.164  0.00  0.00    -0.204 F 
ATOM     19  C   UNL     1      32.755 -23.086 -14.916  0.00  0.00    -0.018 C 
ATOM     20  C   UNL     1      32.485 -23.769 -13.729  0.00  0.00    -0.002 C 
ATOM     21  C   UNL     1      31.739 -22.880 -15.848  0.00  0.00    -0.002 C 
ATOM     22  C   UNL     1      31.198 -24.243 -13.476  0.00  0.00    +0.029 C 
ATOM     23  C   UNL     1      30.452 -23.354 -15.594  0.00  0.00    +0.029 C 
ATOM     24  C   UNL     1      30.182 -24.036 -14.407  0.00  0.00    +0.140 C 
ENDBRANCH  17  19
BRANCH  17  26
ATOM     25  F   UNL     1      38.042 -25.605 -12.421  0.00  0.00    -0.204 F 
ATOM     26  C   UNL     1      35.208 -23.387 -14.446  0.00  0.00    -0.018 C 
ATOM     27  C   UNL     1      35.575 -24.648 -14.916  0.00  0.00    -0.002 C 
ATOM     28  C   UNL     1      35.799 -22.876 -13.290  0.00  0.00    -0.002 C 
ATOM     29  C   UNL     1      36.532 -25.397 -14.233  0.00  0.00    +0.029 C 
ATOM     30  C   UNL     1      36.757 -23.625 -12.606  0.00  0.00    +0.029 C 
ATOM     31  C   UNL     1      37.123 -24.885 -13.078  0.00  0.00    +0.140 C 
ENDBRANCH  17  26
ENDBRANCH   1  17
TORSDOF 7
ENDMDL
MODEL 8
REMARK VINA RESULT:      -9.4     14.575     17.758
REMARK  Name = 73333
REMARK  7 active torsions:
REMARK  status: ('A' for Active; 'I' for Inactive)
REMARK    1  A    between atoms: C_1  and  C_2
REMARK    2  A    between atoms: C_1  and  C_17
REMARK    3  A    between atoms: C_2  and  C_3
REMARK    4  A    between atoms: C_3  and  N_5
REMARK    5  A    between atoms: N_7  and  C_15
REMARK    6  A    between atoms: C_17  and  C_19
REMARK    7  A    between atoms: C_17  and  C_26
REMARK                            x       y       z     vdW  Elec       q    Type
REMARK                         _______ _______ _______ _____ _____    ______ ____
ROOT
ATOM      1  C   UNL     1      33.922  -7.872 -23.376  0.00  0.00    +0.007 C 
ENDROOT
BRANCH   1   2
ATOM      2  C   UNL     1      33.704  -9.363 -23.673  0.00  0.00    -0.022 C 
BRANCH   2   3
ATOM      3  C   UNL     1      32.485  -9.899 -22.923  0.00  0.00    -0.077 C 
BRANCH   3   5
ATOM      4  O   UNL     1      34.205 -15.622 -24.922  0.00  0.00    -0.253 OA
ATOM      5  N   UNL     1      32.343 -11.338 -23.148  0.00  0.00    +0.389 N 
ATOM      6  N   UNL     1      33.243 -14.043 -23.523  0.00  0.00    -0.269 N 
ATOM      7  N   UNL     1      34.311 -15.969 -22.655  0.00  0.00    -0.289 N 
ATOM      8  C   UNL     1      32.900 -12.093 -22.019  0.00  0.00    -0.055 C 
ATOM      9  C   UNL     1      33.009 -11.733 -24.395  0.00  0.00    -0.055 C 
ATOM     10  C   UNL     1      32.732 -13.601 -22.218  0.00  0.00    +0.072 C 
ATOM     11  C   UNL     1      32.810 -13.223 -24.656  0.00  0.00    +0.072 C 
ATOM     12  C   UNL     1      33.942 -15.237 -23.778  0.00  0.00    +0.304 C 
ATOM     13  H   UNL     1      31.349 -11.551 -23.226  0.00  0.00    -0.080 HD
ATOM     14  H   UNL     1      34.075 -15.616 -21.766  0.00  0.00    +0.151 HD
BRANCH   7  15
ATOM     15  C   UNL     1      35.026 -17.225 -22.730  0.00  0.00    +0.091 C 
ATOM     16  C   UNL     1      35.486 -17.684 -21.362  0.00  0.00    +0.023 C 
ENDBRANCH   7  15
ENDBRANCH   3   5
ENDBRANCH   2   3
ENDBRANCH   1   2
BRANCH   1  17
ATOM     17  C   UNL     1      32.791  -6.977 -23.945  0.00  0.00    +0.044 C 
BRANCH  17  19
ATOM     18  F   UNL     1      29.849  -4.231 -19.975  0.00  0.00    -0.204 F 
ATOM     19  C   UNL     1      31.998  -6.237 -22.875  0.00  0.00    -0.018 C 
ATOM     20  C   UNL     1      32.466  -6.199 -21.561  0.00  0.00    -0.002 C 
ATOM     21  C   UNL     1      30.804  -5.599 -23.208  0.00  0.00    -0.002 C 
ATOM     22  C   UNL     1      31.740  -5.521 -20.582  0.00  0.00    +0.029 C 
ATOM     23  C   UNL     1      30.078  -4.921 -22.229  0.00  0.00    +0.029 C 
ATOM     24  C   UNL     1      30.547  -4.882 -20.915  0.00  0.00    +0.140 C 
ENDBRANCH  17  19
BRANCH  17  26
ATOM     25  F   UNL     1      34.580  -3.437 -27.976  0.00  0.00    -0.204 F 
ATOM     26  C   UNL     1      33.273  -6.022 -25.033  0.00  0.00    -0.018 C 
ATOM     27  C   UNL     1      32.721  -6.085 -26.312  0.00  0.00    -0.002 C 
ATOM     28  C   UNL     1      34.267  -5.086 -24.748  0.00  0.00    -0.002 C 
ATOM     29  C   UNL     1      33.162  -5.212 -27.307  0.00  0.00    +0.029 C 
ATOM     30  C   UNL     1      34.708  -4.212 -25.742  0.00  0.00    +0.029 C 
ATOM     31  C   UNL     1      34.156  -4.275 -27.021  0.00  0.00    +0.140 C 
ENDBRANCH  17  26
ENDBRANCH   1  17
TORSDOF 7
ENDMDL
MODEL 9
REMARK VINA RESULT:      -9.3     14.133     17.558
REMARK  Name = 73333
REMARK  7 active torsions:
REMARK  status: ('A' for Active; 'I' for Inactive)
REMARK    1  A    between atoms: C_1  and  C_2
REMARK    2  A    between atoms: C_1  and  C_17
REMARK    3  A    between atoms: C_2  and  C_3
REMARK    4  A    between atoms: C_3  and  N_5
REMARK    5  A    between atoms: N_7  and  C_15
REMARK    6  A    between atoms: C_17  and  C_19
REMARK    7  A    between atoms: C_17  and  C_26
REMARK                            x       y       z     vdW  Elec       q    Type
REMARK                         _______ _______ _______ _____ _____    ______ ____
ROOT
ATOM      1  C   UNL     1      31.653  -8.670 -23.844  0.00  0.00    +0.007 C 
ENDROOT
BRANCH   1   2
ATOM      2  C   UNL     1      31.937  -9.821 -22.868  0.00  0.00    -0.022 C 
BRANCH   2   3
ATOM      3  C   UNL     1      33.186 -10.598 -23.284  0.00  0.00    -0.077 C 
BRANCH   3   5
ATOM      4  O   UNL     1      34.017 -16.670 -24.746  0.00  0.00    -0.253 OA
ATOM      5  N   UNL     1      32.933 -12.037 -23.219  0.00  0.00    +0.389 N 
ATOM      6  N   UNL     1      33.583 -14.833 -23.400  0.00  0.00    -0.269 N 
ATOM      7  N   UNL     1      34.801 -16.693 -22.588  0.00  0.00    -0.289 N 
ATOM      8  C   UNL     1      33.784 -12.664 -22.200  0.00  0.00    -0.055 C 
ATOM      9  C   UNL     1      33.171 -12.662 -24.526  0.00  0.00    -0.055 C 
ATOM     10  C   UNL     1      33.512 -14.167 -22.092  0.00  0.00    +0.072 C 
ATOM     11  C   UNL     1      32.852 -14.153 -24.471  0.00  0.00    +0.072 C 
ATOM     12  C   UNL     1      34.130 -16.104 -23.653  0.00  0.00    +0.304 C 
ATOM     13  H   UNL     1      31.957 -12.178 -22.962  0.00  0.00    -0.080 HD
ATOM     14  H   UNL     1      34.861 -16.197 -21.739  0.00  0.00    +0.151 HD
BRANCH   7  15
ATOM     15  C   UNL     1      35.416 -18.001 -22.667  0.00  0.00    +0.091 C 
ATOM     16  C   UNL     1      36.349 -18.247 -21.499  0.00  0.00    +0.023 C 
ENDBRANCH   7  15
ENDBRANCH   3   5
ENDBRANCH   2   3
ENDBRANCH   1   2
BRANCH   1  17
ATOM     17  C   UNL     1      32.473  -7.395 -23.520  0.00  0.00    +0.044 C 
BRANCH  17  19
ATOM     18  F   UNL     1      34.218  -4.590 -28.108  0.00  0.00    -0.204 F 
ATOM     19  C   UNL     1      32.944  -6.638 -24.757  0.00  0.00    -0.018 C 
ATOM     20  C   UNL     1      34.279  -6.250 -24.872  0.00  0.00    -0.002 C 
ATOM     21  C   UNL     1      32.039  -6.333 -25.774  0.00  0.00    -0.002 C 
ATOM     22  C   UNL     1      34.709  -5.559 -26.004  0.00  0.00    +0.029 C 
ATOM     23  C   UNL     1      32.470  -5.641 -26.906  0.00  0.00    +0.029 C 
ATOM     24  C   UNL     1      33.805  -5.254 -27.021  0.00  0.00    +0.140 C 
ENDBRANCH  17  19
BRANCH  17  26
ATOM     25  F   UNL     1      29.864  -3.939 -19.883  0.00  0.00    -0.204 F 
ATOM     26  C   UNL     1      31.769  -6.463 -22.539  0.00  0.00    -0.018 C 
ATOM     27  C   UNL     1      30.510  -5.947 -22.847  0.00  0.00    -0.002 C 
ATOM     28  C   UNL     1      32.385  -6.125 -21.334  0.00  0.00    -0.002 C 
ATOM     29  C   UNL     1      29.866  -5.095 -21.949  0.00  0.00    +0.029 C 
ATOM     30  C   UNL     1      31.741  -5.273 -20.436  0.00  0.00    +0.029 C 
ATOM     31  C   UNL     1      30.482  -4.758 -20.744  0.00  0.00    +0.140 C 
ENDBRANCH  17  26
ENDBRANCH   1  17
TORSDOF 7
ENDMDL
