MODEL 1
REMARK VINA RESULT:     -11.0      0.000      0.000
REMARK  Name = 25150856
REMARK  7 active torsions:
REMARK  status: ('A' for Active; 'I' for Inactive)
REMARK    1  A    between atoms: C_2  and  C_10
REMARK    2  A    between atoms: C_3  and  C_18
REMARK    3  A    between atoms: C_5  and  O_26
REMARK    4  A    between atoms: N_17  and  C_20
REMARK    5  A    between atoms: C_20  and  C_21
REMARK    6  A    between atoms: C_21  and  C_23
REMARK    7  A    between atoms: C_23  and  O_24
REMARK                            x       y       z     vdW  Elec       q    Type
REMARK                         _______ _______ _______ _____ _____    ______ ____
ROOT
ATOM      1  I   UNL     1      30.108 -23.722 -15.019  0.00  0.00    -0.039 I 
ATOM      2  C   UNL     1      33.487 -22.186 -17.266  0.00  0.00    +0.003 C 
ATOM      3  C   UNL     1      34.448 -23.346 -15.377  0.00  0.00    +0.087 C 
ATOM      4  C   UNL     1      34.607 -22.601 -16.545  0.00  0.00    +0.008 C 
ATOM      5  C   UNL     1      33.169 -23.675 -14.927  0.00  0.00    +0.143 C 
ATOM      6  C   UNL     1      32.207 -22.515 -16.816  0.00  0.00    +0.009 C 
ATOM      7  C   UNL     1      32.049 -23.260 -15.648  0.00  0.00    +0.064 C 
ENDROOT
BRANCH   2  10
ATOM      8  F   UNL     1      36.018 -21.618 -18.345  0.00  0.00    -0.204 F 
ATOM      9  F   UNL     1      34.109 -19.206 -21.937  0.00  0.00    -0.204 F 
ATOM     10  C   UNL     1      33.652 -21.414 -18.477  0.00  0.00    +0.028 C 
ATOM     11  C   UNL     1      34.928 -21.156 -18.977  0.00  0.00    +0.142 C 
ATOM     12  C   UNL     1      32.529 -20.925 -19.147  0.00  0.00    +0.005 C 
ATOM     13  C   UNL     1      35.083 -20.411 -20.146  0.00  0.00    +0.059 C 
ATOM     14  C   UNL     1      32.684 -20.180 -20.316  0.00  0.00    +0.030 C 
ATOM     15  C   UNL     1      33.961 -19.923 -20.816  0.00  0.00    +0.142 C 
ENDBRANCH   2  10
BRANCH   3  18
ATOM     16  O   UNL     1      36.361 -24.670 -15.085  0.00  0.00    -0.270 OA
ATOM     17  N   UNL     1      35.915 -23.092 -13.445  0.00  0.00    -0.300 N 
ATOM     18  C   UNL     1      35.657 -23.774 -14.627  0.00  0.00    +0.249 C 
ATOM     19  H   UNL     1      35.290 -22.387 -13.159  0.00  0.00    +0.150 HD
BRANCH  17  20
ATOM     20  C   UNL     1      37.060 -23.374 -12.620  0.00  0.00    +0.101 C 
BRANCH  20  21
ATOM     21  C   UNL     1      36.799 -24.522 -11.653  0.00  0.00    +0.131 C 
BRANCH  21  23
ATOM     22  O   UNL     1      35.803 -23.751  -9.567  0.00  0.00    -0.250 OA
ATOM     23  C   UNL     1      35.675 -24.232 -10.683  0.00  0.00    +0.316 C 
BRANCH  23  24
ATOM     24  O   UNL     1      34.468 -24.570 -11.211  0.00  0.00    -0.480 OA
ATOM     25  H   UNL     1      33.826 -24.995 -10.678  0.00  0.00    +0.295 HD
ENDBRANCH  23  24
ENDBRANCH  21  23
ENDBRANCH  20  21
ENDBRANCH  17  20
ENDBRANCH   3  18
BRANCH   5  26
ATOM     26  O   UNL     1      33.037 -24.403 -13.781  0.00  0.00    -0.505 OA
ATOM     27  H   UNL     1      33.721 -24.985 -13.513  0.00  0.00    +0.292 HD
ENDBRANCH   5  26
TORSDOF 7
ENDMDL
MODEL 2
REMARK VINA RESULT:     -11.0      1.861      2.650
REMARK  Name = 25150856
REMARK  7 active torsions:
REMARK  status: ('A' for Active; 'I' for Inactive)
REMARK    1  A    between atoms: C_2  and  C_10
REMARK    2  A    between atoms: C_3  and  C_18
REMARK    3  A    between atoms: C_5  and  O_26
REMARK    4  A    between atoms: N_17  and  C_20
REMARK    5  A    between atoms: C_20  and  C_21
REMARK    6  A    between atoms: C_21  and  C_23
REMARK    7  A    between atoms: C_23  and  O_24
REMARK                            x       y       z     vdW  Elec       q    Type
REMARK                         _______ _______ _______ _____ _____    ______ ____
ROOT
ATOM      1  I   UNL     1      29.814 -23.721 -14.771  0.00  0.00    -0.039 I 
ATOM      2  C   UNL     1      33.476 -22.542 -16.774  0.00  0.00    +0.003 C 
ATOM      3  C   UNL     1      34.184 -23.796 -14.834  0.00  0.00    +0.087 C 
ATOM      4  C   UNL     1      34.496 -23.071 -15.984  0.00  0.00    +0.008 C 
ATOM      5  C   UNL     1      32.850 -23.991 -14.474  0.00  0.00    +0.143 C 
ATOM      6  C   UNL     1      32.142 -22.736 -16.415  0.00  0.00    +0.009 C 
ATOM      7  C   UNL     1      31.830 -23.462 -15.265  0.00  0.00    +0.064 C 
ENDROOT
BRANCH   2  10
ATOM      8  F   UNL     1      36.125 -21.912 -17.470  0.00  0.00    -0.204 F 
ATOM      9  F   UNL     1      34.717 -19.642 -21.372  0.00  0.00    -0.204 F 
ATOM     10  C   UNL     1      33.802 -21.790 -17.967  0.00  0.00    +0.028 C 
ATOM     11  C   UNL     1      35.131 -21.500 -18.272  0.00  0.00    +0.142 C 
ATOM     12  C   UNL     1      32.781 -21.354 -18.812  0.00  0.00    +0.005 C 
ATOM     13  C   UNL     1      35.441 -20.775 -19.423  0.00  0.00    +0.059 C 
ATOM     14  C   UNL     1      33.091 -20.629 -19.962  0.00  0.00    +0.030 C 
ATOM     15  C   UNL     1      34.420 -20.339 -20.268  0.00  0.00    +0.142 C 
ENDBRANCH   2  10
BRANCH   3  18
ATOM     16  O   UNL     1      35.318 -24.103 -12.805  0.00  0.00    -0.270 OA
ATOM     17  N   UNL     1      36.215 -25.137 -14.678  0.00  0.00    -0.300 N 
ATOM     18  C   UNL     1      35.288 -24.348 -14.008  0.00  0.00    +0.249 C 
ATOM     19  H   UNL     1      36.107 -25.275 -15.646  0.00  0.00    +0.150 HD
BRANCH  17  20
ATOM     20  C   UNL     1      37.327 -25.761 -14.012  0.00  0.00    +0.101 C 
BRANCH  20  21
ATOM     21  C   UNL     1      38.556 -24.861 -13.983  0.00  0.00    +0.131 C 
BRANCH  21  23
ATOM     22  O   UNL     1      40.619 -26.127 -13.702  0.00  0.00    -0.250 OA
ATOM     23  C   UNL     1      39.815 -25.567 -14.433  0.00  0.00    +0.316 C 
BRANCH  23  24
ATOM     24  O   UNL     1      39.954 -25.516 -15.784  0.00  0.00    -0.480 OA
ATOM     25  H   UNL     1      39.999 -26.309 -16.282  0.00  0.00    +0.295 HD
ENDBRANCH  23  24
ENDBRANCH  21  23
ENDBRANCH  20  21
ENDBRANCH  17  20
ENDBRANCH   3  18
BRANCH   5  26
ATOM     26  O   UNL     1      32.566 -24.703 -13.345  0.00  0.00    -0.505 OA
ATOM     27  H   UNL     1      31.721 -24.631 -12.945  0.00  0.00    +0.292 HD
ENDBRANCH   5  26
TORSDOF 7
ENDMDL
MODEL 3
REMARK VINA RESULT:     -10.7      3.380      5.482
REMARK  Name = 25150856
REMARK  7 active torsions:
REMARK  status: ('A' for Active; 'I' for Inactive)
REMARK    1  A    between atoms: C_2  and  C_10
REMARK    2  A    between atoms: C_3  and  C_18
REMARK    3  A    between atoms: C_5  and  O_26
REMARK    4  A    between atoms: N_17  and  C_20
REMARK    5  A    between atoms: C_20  and  C_21
REMARK    6  A    between atoms: C_21  and  C_23
REMARK    7  A    between atoms: C_23  and  O_24
REMARK                            x       y       z     vdW  Elec       q    Type
REMARK                         _______ _______ _______ _____ _____    ______ ____
ROOT
ATOM      1  I   UNL     1      36.111 -24.612 -13.935  0.00  0.00    -0.039 I 
ATOM      2  C   UNL     1      33.670 -22.459 -16.804  0.00  0.00    +0.003 C 
ATOM      3  C   UNL     1      32.123 -23.291 -15.144  0.00  0.00    +0.087 C 
ATOM      4  C   UNL     1      32.367 -22.583 -16.321  0.00  0.00    +0.008 C 
ATOM      5  C   UNL     1      33.183 -23.876 -14.450  0.00  0.00    +0.143 C 
ATOM      6  C   UNL     1      34.730 -23.045 -16.110  0.00  0.00    +0.009 C 
ATOM      7  C   UNL     1      34.486 -23.753 -14.933  0.00  0.00    +0.064 C 
ENDROOT
BRANCH   2  10
ATOM      8  F   UNL     1      36.268 -21.800 -17.646  0.00  0.00    -0.204 F 
ATOM      9  F   UNL     1      34.625 -19.627 -21.511  0.00  0.00    -0.204 F 
ATOM     10  C   UNL     1      33.922 -21.725 -18.024  0.00  0.00    +0.028 C 
ATOM     11  C   UNL     1      35.228 -21.420 -18.403  0.00  0.00    +0.142 C 
ATOM     12  C   UNL     1      32.851 -21.321 -18.823  0.00  0.00    +0.005 C 
ATOM     13  C   UNL     1      35.467 -20.711 -19.581  0.00  0.00    +0.059 C 
ATOM     14  C   UNL     1      33.090 -20.612 -20.001  0.00  0.00    +0.030 C 
ATOM     15  C   UNL     1      34.397 -20.308 -20.380  0.00  0.00    +0.142 C 
ENDBRANCH   2  10
BRANCH   3  18
ATOM     16  O   UNL     1      30.506 -23.327 -13.447  0.00  0.00    -0.270 OA
ATOM     17  N   UNL     1      29.750 -23.587 -15.624  0.00  0.00    -0.300 N 
ATOM     18  C   UNL     1      30.727 -23.409 -14.652  0.00  0.00    +0.249 C 
ATOM     19  H   UNL     1      30.026 -23.642 -16.567  0.00  0.00    +0.150 HD
BRANCH  17  20
ATOM     20  C   UNL     1      28.351 -23.695 -15.308  0.00  0.00    +0.101 C 
BRANCH  20  21
ATOM     21  C   UNL     1      27.643 -22.347 -15.378  0.00  0.00    +0.131 C 
BRANCH  21  23
ATOM     22  O   UNL     1      26.411 -21.067 -17.046  0.00  0.00    -0.250 OA
ATOM     23  C   UNL     1      27.031 -22.073 -16.735  0.00  0.00    +0.316 C 
BRANCH  23  24
ATOM     24  O   UNL     1      27.262 -23.098 -17.597  0.00  0.00    -0.480 OA
ATOM     25  H   UNL     1      28.052 -23.119 -18.100  0.00  0.00    +0.295 HD
ENDBRANCH  23  24
ENDBRANCH  21  23
ENDBRANCH  20  21
ENDBRANCH  17  20
ENDBRANCH   3  18
BRANCH   5  26
ATOM     26  O   UNL     1      32.922 -24.565 -13.301  0.00  0.00    -0.505 OA
ATOM     27  H   UNL     1      33.119 -24.182 -12.469  0.00  0.00    +0.292 HD
ENDBRANCH   5  26
TORSDOF 7
ENDMDL
MODEL 4
REMARK VINA RESULT:     -10.5      3.919      7.266
REMARK  Name = 25150856
REMARK  7 active torsions:
REMARK  status: ('A' for Active; 'I' for Inactive)
REMARK    1  A    between atoms: C_2  and  C_10
REMARK    2  A    between atoms: C_3  and  C_18
REMARK    3  A    between atoms: C_5  and  O_26
REMARK    4  A    between atoms: N_17  and  C_20
REMARK    5  A    between atoms: C_20  and  C_21
REMARK    6  A    between atoms: C_21  and  C_23
REMARK    7  A    between atoms: C_23  and  O_24
REMARK                            x       y       z     vdW  Elec       q    Type
REMARK                         _______ _______ _______ _____ _____    ______ ____
ROOT
ATOM      1  I   UNL     1      29.949 -23.172 -14.494  0.00  0.00    -0.039 I 
ATOM      2  C   UNL     1      34.139 -23.469 -15.580  0.00  0.00    +0.003 C 
ATOM      3  C   UNL     1      33.083 -22.302 -17.414  0.00  0.00    +0.087 C 
ATOM      4  C   UNL     1      34.226 -22.843 -16.824  0.00  0.00    +0.008 C 
ATOM      5  C   UNL     1      31.854 -22.387 -16.760  0.00  0.00    +0.143 C 
ATOM      6  C   UNL     1      32.909 -23.555 -14.927  0.00  0.00    +0.009 C 
ATOM      7  C   UNL     1      31.767 -23.013 -15.517  0.00  0.00    +0.064 C 
ENDROOT
BRANCH   2  10
ATOM      8  F   UNL     1      36.173 -21.858 -14.502  0.00  0.00    -0.204 F 
ATOM      9  F   UNL     1      38.702 -25.646 -13.229  0.00  0.00    -0.204 F 
ATOM     10  C   UNL     1      35.324 -24.030 -14.969  0.00  0.00    +0.028 C 
ATOM     11  C   UNL     1      36.308 -23.192 -14.447  0.00  0.00    +0.142 C 
ATOM     12  C   UNL     1      35.480 -25.415 -14.904  0.00  0.00    +0.005 C 
ATOM     13  C   UNL     1      37.449 -23.737 -13.859  0.00  0.00    +0.059 C 
ATOM     14  C   UNL     1      36.622 -25.960 -14.315  0.00  0.00    +0.030 C 
ATOM     15  C   UNL     1      37.606 -25.122 -13.792  0.00  0.00    +0.142 C 
ENDBRANCH   2  10
BRANCH   3  18
ATOM     16  O   UNL     1      32.262 -21.704 -19.527  0.00  0.00    -0.270 OA
ATOM     17  N   UNL     1      34.394 -20.970 -18.982  0.00  0.00    -0.300 N 
ATOM     18  C   UNL     1      33.203 -21.642 -18.740  0.00  0.00    +0.249 C 
ATOM     19  H   UNL     1      35.091 -20.977 -18.287  0.00  0.00    +0.150 HD
BRANCH  17  20
ATOM     20  C   UNL     1      34.650 -20.262 -20.208  0.00  0.00    +0.101 C 
BRANCH  20  21
ATOM     21  C   UNL     1      36.090 -19.773 -20.297  0.00  0.00    +0.131 C 
BRANCH  21  23
ATOM     22  O   UNL     1      35.469 -17.433 -20.575  0.00  0.00    -0.250 OA
ATOM     23  C   UNL     1      36.203 -18.370 -20.853  0.00  0.00    +0.316 C 
BRANCH  23  24
ATOM     24  O   UNL     1      37.248 -18.264 -21.715  0.00  0.00    -0.480 OA
ATOM     25  H   UNL     1      37.241 -17.604 -22.381  0.00  0.00    +0.295 HD
ENDBRANCH  23  24
ENDBRANCH  21  23
ENDBRANCH  20  21
ENDBRANCH  17  20
ENDBRANCH   3  18
BRANCH   5  26
ATOM     26  O   UNL     1      30.749 -21.852 -17.356  0.00  0.00    -0.505 OA
ATOM     27  H   UNL     1      30.087 -21.440 -16.835  0.00  0.00    +0.292 HD
ENDBRANCH   5  26
TORSDOF 7
ENDMDL
MODEL 5
REMARK VINA RESULT:     -10.2      4.185      7.228
REMARK  Name = 25150856
REMARK  7 active torsions:
REMARK  status: ('A' for Active; 'I' for Inactive)
REMARK    1  A    between atoms: C_2  and  C_10
REMARK    2  A    between atoms: C_3  and  C_18
REMARK    3  A    between atoms: C_5  and  O_26
REMARK    4  A    between atoms: N_17  and  C_20
REMARK    5  A    between atoms: C_20  and  C_21
REMARK    6  A    between atoms: C_21  and  C_23
REMARK    7  A    between atoms: C_23  and  O_24
REMARK                            x       y       z     vdW  Elec       q    Type
REMARK                         _______ _______ _______ _____ _____    ______ ____
ROOT
ATOM      1  I   UNL     1      37.593 -24.894 -13.220  0.00  0.00    -0.039 I 
ATOM      2  C   UNL     1      33.924 -23.386 -14.975  0.00  0.00    +0.003 C 
ATOM      3  C   UNL     1      35.708 -22.243 -16.139  0.00  0.00    +0.087 C 
ATOM      4  C   UNL     1      34.346 -22.472 -15.941  0.00  0.00    +0.008 C 
ATOM      5  C   UNL     1      36.648 -22.928 -15.369  0.00  0.00    +0.143 C 
ATOM      6  C   UNL     1      34.865 -24.071 -14.206  0.00  0.00    +0.009 C 
ATOM      7  C   UNL     1      36.227 -23.842 -14.403  0.00  0.00    +0.064 C 
ENDROOT
BRANCH   2  10
ATOM      8  F   UNL     1      31.976 -22.451 -16.771  0.00  0.00    -0.204 F 
ATOM      9  F   UNL     1      28.483 -24.303 -14.176  0.00  0.00    -0.204 F 
ATOM     10  C   UNL     1      32.512 -23.622 -14.772  0.00  0.00    +0.028 C 
ATOM     11  C   UNL     1      31.580 -23.139 -15.689  0.00  0.00    +0.142 C 
ATOM     12  C   UNL     1      32.083 -24.335 -13.652  0.00  0.00    +0.005 C 
ATOM     13  C   UNL     1      30.219 -23.369 -15.489  0.00  0.00    +0.059 C 
ATOM     14  C   UNL     1      30.722 -24.566 -13.451  0.00  0.00    +0.030 C 
ATOM     15  C   UNL     1      29.790 -24.083 -14.370  0.00  0.00    +0.142 C 
ENDBRANCH   2  10
BRANCH   3  18
ATOM     16  O   UNL     1      36.937 -20.387 -16.874  0.00  0.00    -0.270 OA
ATOM     17  N   UNL     1      35.580 -21.434 -18.436  0.00  0.00    -0.300 N 
ATOM     18  C   UNL     1      36.130 -21.263 -17.172  0.00  0.00    +0.249 C 
ATOM     19  H   UNL     1      34.939 -22.167 -18.578  0.00  0.00    +0.150 HD
BRANCH  17  20
ATOM     20  C   UNL     1      35.909 -20.581 -19.547  0.00  0.00    +0.101 C 
BRANCH  20  21
ATOM     21  C   UNL     1      34.666 -20.078 -20.270  0.00  0.00    +0.131 C 
BRANCH  21  23
ATOM     22  O   UNL     1      34.535 -18.722 -22.291  0.00  0.00    -0.250 OA
ATOM     23  C   UNL     1      34.941 -18.877 -21.149  0.00  0.00    +0.316 C 
BRANCH  23  24
ATOM     24  O   UNL     1      35.707 -17.958 -20.503  0.00  0.00    -0.480 OA
ATOM     25  H   UNL     1      35.673 -17.892 -19.569  0.00  0.00    +0.295 HD
ENDBRANCH  23  24
ENDBRANCH  21  23
ENDBRANCH  20  21
ENDBRANCH  17  20
ENDBRANCH   3  18
BRANCH   5  26
ATOM     26  O   UNL     1      37.976 -22.688 -15.578  0.00  0.00    -0.505 OA
ATOM     27  H   UNL     1      38.608 -23.352 -15.384  0.00  0.00    +0.292 HD
ENDBRANCH   5  26
TORSDOF 7
ENDMDL
MODEL 6
REMARK VINA RESULT:     -10.0      3.488      5.602
REMARK  Name = 25150856
REMARK  7 active torsions:
REMARK  status: ('A' for Active; 'I' for Inactive)
REMARK    1  A    between atoms: C_2  and  C_10
REMARK    2  A    between atoms: C_3  and  C_18
REMARK    3  A    between atoms: C_5  and  O_26
REMARK    4  A    between atoms: N_17  and  C_20
REMARK    5  A    between atoms: C_20  and  C_21
REMARK    6  A    between atoms: C_21  and  C_23
REMARK    7  A    between atoms: C_23  and  O_24
REMARK                            x       y       z     vdW  Elec       q    Type
REMARK                         _______ _______ _______ _____ _____    ______ ____
ROOT
ATOM      1  I   UNL     1      36.543 -23.989 -14.159  0.00  0.00    -0.039 I 
ATOM      2  C   UNL     1      33.812 -22.280 -17.065  0.00  0.00    +0.003 C 
ATOM      3  C   UNL     1      32.405 -23.326 -15.402  0.00  0.00    +0.087 C 
ATOM      4  C   UNL     1      32.542 -22.602 -16.587  0.00  0.00    +0.008 C 
ATOM      5  C   UNL     1      33.539 -23.730 -14.697  0.00  0.00    +0.143 C 
ATOM      6  C   UNL     1      34.946 -22.683 -16.359  0.00  0.00    +0.009 C 
ATOM      7  C   UNL     1      34.809 -23.407 -15.175  0.00  0.00    +0.064 C 
ENDROOT
BRANCH   2  10
ATOM      8  F   UNL     1      31.606 -21.153 -18.392  0.00  0.00    -0.204 F 
ATOM      9  F   UNL     1      34.370 -19.387 -21.799  0.00  0.00    -0.204 F 
ATOM     10  C   UNL     1      33.953 -21.528 -18.293  0.00  0.00    +0.028 C 
ATOM     11  C   UNL     1      32.830 -20.987 -18.917  0.00  0.00    +0.142 C 
ATOM     12  C   UNL     1      35.218 -21.347 -18.853  0.00  0.00    +0.005 C 
ATOM     13  C   UNL     1      32.970 -20.263 -20.101  0.00  0.00    +0.059 C 
ATOM     14  C   UNL     1      35.358 -20.623 -20.037  0.00  0.00    +0.030 C 
ATOM     15  C   UNL     1      34.235 -20.081 -20.661  0.00  0.00    +0.142 C 
ENDBRANCH   2  10
BRANCH   3  18
ATOM     16  O   UNL     1      30.911 -24.223 -13.834  0.00  0.00    -0.270 OA
ATOM     17  N   UNL     1      29.989 -23.272 -15.737  0.00  0.00    -0.300 N 
ATOM     18  C   UNL     1      31.041 -23.658 -14.916  0.00  0.00    +0.249 C 
ATOM     19  H   UNL     1      30.194 -22.823 -16.589  0.00  0.00    +0.150 HD
BRANCH  17  20
ATOM     20  C   UNL     1      28.612 -23.501 -15.393  0.00  0.00    +0.101 C 
BRANCH  20  21
ATOM     21  C   UNL     1      27.791 -22.218 -15.431  0.00  0.00    +0.131 C 
BRANCH  21  23
ATOM     22  O   UNL     1      25.718 -21.577 -16.540  0.00  0.00    -0.250 OA
ATOM     23  C   UNL     1      26.765 -22.208 -16.543  0.00  0.00    +0.316 C 
BRANCH  23  24
ATOM     24  O   UNL     1      27.152 -22.996 -17.580  0.00  0.00    -0.480 OA
ATOM     25  H   UNL     1      27.823 -22.704 -18.166  0.00  0.00    +0.295 HD
ENDBRANCH  23  24
ENDBRANCH  21  23
ENDBRANCH  20  21
ENDBRANCH  17  20
ENDBRANCH   3  18
BRANCH   5  26
ATOM     26  O   UNL     1      33.382 -24.438 -13.541  0.00  0.00    -0.505 OA
ATOM     27  H   UNL     1      32.996 -25.292 -13.563  0.00  0.00    +0.292 HD
ENDBRANCH   5  26
TORSDOF 7
ENDMDL
MODEL 7
REMARK VINA RESULT:      -9.9      3.855      6.504
REMARK  Name = 25150856
REMARK  7 active torsions:
REMARK  status: ('A' for Active; 'I' for Inactive)
REMARK    1  A    between atoms: C_2  and  C_10
REMARK    2  A    between atoms: C_3  and  C_18
REMARK    3  A    between atoms: C_5  and  O_26
REMARK    4  A    between atoms: N_17  and  C_20
REMARK    5  A    between atoms: C_20  and  C_21
REMARK    6  A    between atoms: C_21  and  C_23
REMARK    7  A    between atoms: C_23  and  O_24
REMARK                            x       y       z     vdW  Elec       q    Type
REMARK                         _______ _______ _______ _____ _____    ______ ____
ROOT
ATOM      1  I   UNL     1      35.823 -23.836 -10.959  0.00  0.00    -0.039 I 
ATOM      2  C   UNL     1      33.082 -23.200 -14.261  0.00  0.00    +0.003 C 
ATOM      3  C   UNL     1      35.253 -22.544 -15.095  0.00  0.00    +0.087 C 
ATOM      4  C   UNL     1      33.883 -22.713 -15.294  0.00  0.00    +0.008 C 
ATOM      5  C   UNL     1      35.823 -22.861 -13.862  0.00  0.00    +0.143 C 
ATOM      6  C   UNL     1      33.652 -23.517 -13.027  0.00  0.00    +0.009 C 
ATOM      7  C   UNL     1      35.022 -23.348 -12.828  0.00  0.00    +0.064 C 
ENDROOT
BRANCH   2  10
ATOM      8  F   UNL     1      31.609 -25.187 -12.927  0.00  0.00    -0.204 F 
ATOM      9  F   UNL     1      27.606 -23.865 -15.071  0.00  0.00    -0.204 F 
ATOM     10  C   UNL     1      31.662 -23.375 -14.468  0.00  0.00    +0.028 C 
ATOM     11  C   UNL     1      30.971 -24.375 -13.785  0.00  0.00    +0.142 C 
ATOM     12  C   UNL     1      30.982 -22.540 -15.356  0.00  0.00    +0.005 C 
ATOM     13  C   UNL     1      29.601 -24.541 -13.988  0.00  0.00    +0.059 C 
ATOM     14  C   UNL     1      29.612 -22.706 -15.559  0.00  0.00    +0.030 C 
ATOM     15  C   UNL     1      28.921 -23.706 -14.875  0.00  0.00    +0.142 C 
ENDBRANCH   2  10
BRANCH   3  18
ATOM     16  O   UNL     1      37.304 -21.997 -16.090  0.00  0.00    -0.270 OA
ATOM     17  N   UNL     1      35.392 -21.611 -17.344  0.00  0.00    -0.300 N 
ATOM     18  C   UNL     1      36.083 -22.022 -16.211  0.00  0.00    +0.249 C 
ATOM     19  H   UNL     1      34.410 -21.668 -17.347  0.00  0.00    +0.150 HD
BRANCH  17  20
ATOM     20  C   UNL     1      36.056 -21.105 -18.516  0.00  0.00    +0.101 C 
BRANCH  20  21
ATOM     21  C   UNL     1      35.120 -21.027 -19.716  0.00  0.00    +0.131 C 
BRANCH  21  23
ATOM     22  O   UNL     1      32.758 -20.694 -19.213  0.00  0.00    -0.250 OA
ATOM     23  C   UNL     1      33.704 -21.449 -19.387  0.00  0.00    +0.316 C 
BRANCH  23  24
ATOM     24  O   UNL     1      33.597 -22.801 -19.313  0.00  0.00    -0.480 OA
ATOM     25  H   UNL     1      32.915 -23.191 -18.800  0.00  0.00    +0.295 HD
ENDBRANCH  23  24
ENDBRANCH  21  23
ENDBRANCH  20  21
ENDBRANCH  17  20
ENDBRANCH   3  18
BRANCH   5  26
ATOM     26  O   UNL     1      37.165 -22.687 -13.688  0.00  0.00    -0.505 OA
ATOM     27  H   UNL     1      37.542 -22.760 -12.833  0.00  0.00    +0.292 HD
ENDBRANCH   5  26
TORSDOF 7
ENDMDL
MODEL 8
REMARK VINA RESULT:      -9.4      3.198      4.291
REMARK  Name = 25150856
REMARK  7 active torsions:
REMARK  status: ('A' for Active; 'I' for Inactive)
REMARK    1  A    between atoms: C_2  and  C_10
REMARK    2  A    between atoms: C_3  and  C_18
REMARK    3  A    between atoms: C_5  and  O_26
REMARK    4  A    between atoms: N_17  and  C_20
REMARK    5  A    between atoms: C_20  and  C_21
REMARK    6  A    between atoms: C_21  and  C_23
REMARK    7  A    between atoms: C_23  and  O_24
REMARK                            x       y       z     vdW  Elec       q    Type
REMARK                         _______ _______ _______ _____ _____    ______ ____
ROOT
ATOM      1  I   UNL     1      36.517 -22.971 -15.105  0.00  0.00    -0.039 I 
ATOM      2  C   UNL     1      34.106 -21.320 -18.311  0.00  0.00    +0.003 C 
ATOM      3  C   UNL     1      32.540 -22.415 -16.832  0.00  0.00    +0.087 C 
ATOM      4  C   UNL     1      32.797 -21.679 -17.989  0.00  0.00    +0.008 C 
ATOM      5  C   UNL     1      33.592 -22.791 -15.997  0.00  0.00    +0.143 C 
ATOM      6  C   UNL     1      35.159 -21.696 -17.476  0.00  0.00    +0.009 C 
ATOM      7  C   UNL     1      34.901 -22.431 -16.319  0.00  0.00    +0.064 C 
ENDROOT
BRANCH   2  10
ATOM      8  F   UNL     1      32.047 -20.404 -19.989  0.00  0.00    -0.204 F 
ATOM      9  F   UNL     1      35.145 -18.383 -22.936  0.00  0.00    -0.204 F 
ATOM     10  C   UNL     1      34.372 -20.557 -19.512  0.00  0.00    +0.028 C 
ATOM     11  C   UNL     1      33.318 -20.123 -20.315  0.00  0.00    +0.142 C 
ATOM     12  C   UNL     1      35.688 -20.257 -19.865  0.00  0.00    +0.005 C 
ATOM     13  C   UNL     1      33.578 -19.388 -21.471  0.00  0.00    +0.059 C 
ATOM     14  C   UNL     1      35.948 -19.522 -21.022  0.00  0.00    +0.030 C 
ATOM     15  C   UNL     1      34.894 -19.087 -21.825  0.00  0.00    +0.142 C 
ENDBRANCH   2  10
BRANCH   3  18
ATOM     16  O   UNL     1      30.221 -22.084 -16.930  0.00  0.00    -0.270 OA
ATOM     17  N   UNL     1      30.969 -23.946 -15.766  0.00  0.00    -0.300 N 
ATOM     18  C   UNL     1      31.138 -22.787 -16.513  0.00  0.00    +0.249 C 
ATOM     19  H   UNL     1      31.768 -24.443 -15.477  0.00  0.00    +0.150 HD
BRANCH  17  20
ATOM     20  C   UNL     1      29.673 -24.450 -15.399  0.00  0.00    +0.101 C 
BRANCH  20  21
ATOM     21  C   UNL     1      29.518 -24.585 -13.889  0.00  0.00    +0.131 C 
BRANCH  21  23
ATOM     22  O   UNL     1      30.888 -22.931 -12.737  0.00  0.00    -0.250 OA
ATOM     23  C   UNL     1      30.722 -24.077 -13.125  0.00  0.00    +0.316 C 
BRANCH  23  24
ATOM     24  O   UNL     1      31.622 -25.072 -12.905  0.00  0.00    -0.480 OA
ATOM     25  H   UNL     1      31.335 -25.901 -12.575  0.00  0.00    +0.295 HD
ENDBRANCH  23  24
ENDBRANCH  21  23
ENDBRANCH  20  21
ENDBRANCH  17  20
ENDBRANCH   3  18
BRANCH   5  26
ATOM     26  O   UNL     1      33.319 -23.511 -14.870  0.00  0.00    -0.505 OA
ATOM     27  H   UNL     1      33.191 -23.072 -14.052  0.00  0.00    +0.292 HD
ENDBRANCH   5  26
TORSDOF 7
ENDMDL
MODEL 9
REMARK VINA RESULT:      -9.3      5.081      8.222
REMARK  Name = 25150856
REMARK  7 active torsions:
REMARK  status: ('A' for Active; 'I' for Inactive)
REMARK    1  A    between atoms: C_2  and  C_10
REMARK    2  A    between atoms: C_3  and  C_18
REMARK    3  A    between atoms: C_5  and  O_26
REMARK    4  A    between atoms: N_17  and  C_20
REMARK    5  A    between atoms: C_20  and  C_21
REMARK    6  A    between atoms: C_21  and  C_23
REMARK    7  A    between atoms: C_23  and  O_24
REMARK                            x       y       z     vdW  Elec       q    Type
REMARK                         _______ _______ _______ _____ _____    ______ ____
ROOT
ATOM      1  I   UNL     1      36.821 -22.276 -15.646  0.00  0.00    -0.039 I 
ATOM      2  C   UNL     1      32.564 -22.746 -16.338  0.00  0.00    +0.003 C 
ATOM      3  C   UNL     1      33.405 -21.583 -18.283  0.00  0.00    +0.087 C 
ATOM      4  C   UNL     1      32.342 -22.150 -17.580  0.00  0.00    +0.008 C 
ATOM      5  C   UNL     1      34.691 -21.612 -17.744  0.00  0.00    +0.143 C 
ATOM      6  C   UNL     1      33.851 -22.775 -15.799  0.00  0.00    +0.009 C 
ATOM      7  C   UNL     1      34.914 -22.208 -16.502  0.00  0.00    +0.064 C 
ENDROOT
BRANCH   2  10
ATOM      8  F   UNL     1      32.955 -24.331 -14.051  0.00  0.00    -0.204 F 
ATOM      9  F   UNL     1      28.302 -25.005 -13.542  0.00  0.00    -0.204 F 
ATOM     10  C   UNL     1      31.461 -23.334 -15.610  0.00  0.00    +0.028 C 
ATOM     11  C   UNL     1      31.702 -24.114 -14.480  0.00  0.00    +0.142 C 
ATOM     12  C   UNL     1      30.152 -23.118 -16.043  0.00  0.00    +0.005 C 
ATOM     13  C   UNL     1      30.635 -24.678 -13.781  0.00  0.00    +0.059 C 
ATOM     14  C   UNL     1      29.085 -23.682 -15.343  0.00  0.00    +0.030 C 
ATOM     15  C   UNL     1      29.326 -24.462 -14.212  0.00  0.00    +0.142 C 
ENDBRANCH   2  10
BRANCH   3  18
ATOM     16  O   UNL     1      32.041 -21.102 -20.128  0.00  0.00    -0.270 OA
ATOM     17  N   UNL     1      34.180 -20.206 -20.140  0.00  0.00    -0.300 N 
ATOM     18  C   UNL     1      33.140 -20.953 -19.602  0.00  0.00    +0.249 C 
ATOM     19  H   UNL     1      35.027 -20.146 -19.642  0.00  0.00    +0.150 HD
BRANCH  17  20
ATOM     20  C   UNL     1      34.069 -19.515 -21.397  0.00  0.00    +0.101 C 
BRANCH  20  21
ATOM     21  C   UNL     1      34.665 -18.114 -21.335  0.00  0.00    +0.131 C 
BRANCH  21  23
ATOM     22  O   UNL     1      33.949 -17.750 -23.636  0.00  0.00    -0.250 OA
ATOM     23  C   UNL     1      34.568 -17.374 -22.652  0.00  0.00    +0.316 C 
BRANCH  23  24
ATOM     24  O   UNL     1      35.260 -16.205 -22.612  0.00  0.00    -0.480 OA
ATOM     25  H   UNL     1      35.799 -15.954 -23.337  0.00  0.00    +0.295 HD
ENDBRANCH  23  24
ENDBRANCH  21  23
ENDBRANCH  20  21
ENDBRANCH  17  20
ENDBRANCH   3  18
BRANCH   5  26
ATOM     26  O   UNL     1      35.717 -21.051 -18.448  0.00  0.00    -0.505 OA
ATOM     27  H   UNL     1      36.393 -20.582 -17.999  0.00  0.00    +0.292 HD
ENDBRANCH   5  26
TORSDOF 7
ENDMDL
