MODEL 1
REMARK VINA RESULT:     -11.9      0.000      0.000
REMARK  Name = 16752640
REMARK  7 active torsions:
REMARK  status: ('A' for Active; 'I' for Inactive)
REMARK    1  A    between atoms: C_1  and  N_4
REMARK    2  A    between atoms: C_1  and  C_18
REMARK    3  A    between atoms: C_1  and  C_21
REMARK    4  A    between atoms: C_11  and  C_14
REMARK    5  A    between atoms: C_14  and  O_15
REMARK    6  A    between atoms: C_18  and  O_19
REMARK    7  A    between atoms: C_21  and  C_22
REMARK                            x       y       z     vdW  Elec       q    Type
REMARK                         _______ _______ _______ _____ _____    ______ ____
ROOT
ATOM      1  C   UNL     1      33.080 -12.178 -22.661  0.00  0.00    +0.186 C 
ENDROOT
BRANCH   1   4
ATOM      2  O   UNL     1      34.073 -13.690 -20.287  0.00  0.00    -0.269 OA
ATOM      3  O   UNL     1      33.139 -14.266 -24.789  0.00  0.00    -0.269 OA
ATOM      4  N   UNL     1      33.489 -13.566 -22.567  0.00  0.00    -0.213 N 
ATOM      5  C   UNL     1      34.248 -15.540 -21.757  0.00  0.00    +0.059 C 
ATOM      6  C   UNL     1      33.937 -14.155 -21.404  0.00  0.00    +0.256 C 
ATOM      7  C   UNL     1      33.474 -14.442 -23.632  0.00  0.00    +0.256 C 
ATOM      8  C   UNL     1      33.968 -15.713 -23.104  0.00  0.00    +0.058 C 
ATOM      9  C   UNL     1      34.733 -16.566 -20.974  0.00  0.00    +0.011 C 
ATOM     10  C   UNL     1      34.158 -16.923 -23.739  0.00  0.00    +0.005 C 
ATOM     11  C   UNL     1      34.934 -17.802 -21.596  0.00  0.00    +0.076 C 
ATOM     12  C   UNL     1      34.650 -17.978 -22.966  0.00  0.00    +0.007 C 
BRANCH  11  14
ATOM     13  O   UNL     1      34.869 -20.005 -20.666  0.00  0.00    -0.245 OA
ATOM     14  C   UNL     1      35.443 -18.922 -20.821  0.00  0.00    +0.338 C 
BRANCH  14  15
ATOM     15  O   UNL     1      36.654 -18.659 -20.260  0.00  0.00    -0.477 OA
ATOM     16  H   UNL     1      37.224 -18.027 -20.651  0.00  0.00    +0.295 HD
ENDBRANCH  14  15
ENDBRANCH  11  14
ENDBRANCH   1   4
BRANCH   1  18
ATOM     17  O   UNL     1      34.141 -11.039 -24.513  0.00  0.00    -0.248 OA
ATOM     18  C   UNL     1      33.180 -11.676 -24.095  0.00  0.00    +0.333 C 
BRANCH  18  19
ATOM     19  O   UNL     1      32.125 -11.992 -24.883  0.00  0.00    -0.479 OA
ATOM     20  H   UNL     1      32.159 -11.819 -25.803  0.00  0.00    +0.295 HD
ENDBRANCH  18  19
ENDBRANCH   1  18
BRANCH   1  21
ATOM     21  C   UNL     1      31.653 -11.978 -22.134  0.00  0.00    +0.058 C 
BRANCH  21  22
ATOM     22  C   UNL     1      31.532 -10.802 -21.194  0.00  0.00    -0.020 C 
ATOM     23  C   UNL     1      31.406  -9.485 -21.664  0.00  0.00    -0.004 C 
ATOM     24  C   UNL     1      31.297  -8.426 -20.731  0.00  0.00    -0.000 C 
ATOM     25  C   UNL     1      31.550 -11.073 -19.826  0.00  0.00    -0.004 C 
ATOM     26  C   UNL     1      31.388  -9.194 -23.037  0.00  0.00    -0.000 C 
ATOM     27  C   UNL     1      31.315  -8.716 -19.357  0.00  0.00    -0.000 C 
ATOM     28  C   UNL     1      31.442 -10.031 -18.908  0.00  0.00    -0.000 C 
ATOM     29  C   UNL     1      31.171  -7.109 -21.200  0.00  0.00    -0.000 C 
ATOM     30  C   UNL     1      31.263  -7.880 -23.486  0.00  0.00    -0.000 C 
ATOM     31  C   UNL     1      31.155  -6.838 -22.569  0.00  0.00    -0.000 C 
ENDBRANCH  21  22
ENDBRANCH   1  21
TORSDOF 7
ENDMDL
MODEL 2
REMARK VINA RESULT:     -11.8      7.861     12.081
REMARK  Name = 16752640
REMARK  7 active torsions:
REMARK  status: ('A' for Active; 'I' for Inactive)
REMARK    1  A    between atoms: C_1  and  N_4
REMARK    2  A    between atoms: C_1  and  C_18
REMARK    3  A    between atoms: C_1  and  C_21
REMARK    4  A    between atoms: C_11  and  C_14
REMARK    5  A    between atoms: C_14  and  O_15
REMARK    6  A    between atoms: C_18  and  O_19
REMARK    7  A    between atoms: C_21  and  C_22
REMARK                            x       y       z     vdW  Elec       q    Type
REMARK                         _______ _______ _______ _____ _____    ______ ____
ROOT
ATOM      1  C   UNL     1      33.656 -22.949 -16.119  0.00  0.00    +0.186 C 
ENDROOT
BRANCH   1   4
ATOM      2  O   UNL     1      36.176 -21.711 -17.129  0.00  0.00    -0.269 OA
ATOM      3  O   UNL     1      31.674 -22.070 -18.166  0.00  0.00    -0.269 OA
ATOM      4  N   UNL     1      33.862 -22.130 -17.296  0.00  0.00    -0.213 N 
ATOM      5  C   UNL     1      34.842 -20.848 -18.886  0.00  0.00    +0.059 C 
ATOM      6  C   UNL     1      35.086 -21.608 -17.660  0.00  0.00    +0.256 C 
ATOM      7  C   UNL     1      32.857 -21.785 -18.176  0.00  0.00    +0.256 C 
ATOM      8  C   UNL     1      33.494 -20.955 -19.197  0.00  0.00    +0.058 C 
ATOM      9  C   UNL     1      35.716 -20.123 -19.669  0.00  0.00    +0.011 C 
ATOM     10  C   UNL     1      32.951 -20.344 -20.308  0.00  0.00    +0.005 C 
ATOM     11  C   UNL     1      35.188 -19.495 -20.800  0.00  0.00    +0.076 C 
ATOM     12  C   UNL     1      33.818 -19.603 -21.116  0.00  0.00    +0.007 C 
BRANCH  11  14
ATOM     13  O   UNL     1      35.872 -18.498 -22.865  0.00  0.00    -0.245 OA
ATOM     14  C   UNL     1      36.063 -18.717 -21.663  0.00  0.00    +0.338 C 
BRANCH  14  15
ATOM     15  O   UNL     1      37.150 -18.235 -21.004  0.00  0.00    -0.477 OA
ATOM     16  H   UNL     1      37.041 -17.610 -20.315  0.00  0.00    +0.295 HD
ENDBRANCH  14  15
ENDBRANCH  11  14
ENDBRANCH   1   4
BRANCH   1  18
ATOM     17  O   UNL     1      35.596 -24.302 -15.610  0.00  0.00    -0.248 OA
ATOM     18  C   UNL     1      34.978 -23.257 -15.430  0.00  0.00    +0.333 C 
BRANCH  18  19
ATOM     19  O   UNL     1      35.430 -22.284 -14.604  0.00  0.00    -0.479 OA
ATOM     20  H   UNL     1      36.349 -22.186 -14.455  0.00  0.00    +0.295 HD
ENDBRANCH  18  19
ENDBRANCH   1  18
BRANCH   1  21
ATOM     21  C   UNL     1      32.694 -22.276 -15.130  0.00  0.00    +0.058 C 
BRANCH  21  22
ATOM     22  C   UNL     1      31.650 -23.222 -14.587  0.00  0.00    -0.020 C 
ATOM     23  C   UNL     1      30.329 -23.224 -15.064  0.00  0.00    -0.004 C 
ATOM     24  C   UNL     1      29.398 -24.136 -14.513  0.00  0.00    -0.000 C 
ATOM     25  C   UNL     1      32.048 -24.105 -13.583  0.00  0.00    -0.004 C 
ATOM     26  C   UNL     1      29.912 -22.342 -16.073  0.00  0.00    -0.000 C 
ATOM     27  C   UNL     1      29.815 -25.019 -13.504  0.00  0.00    -0.000 C 
ATOM     28  C   UNL     1      31.131 -25.002 -13.042  0.00  0.00    -0.000 C 
ATOM     29  C   UNL     1      28.077 -24.139 -14.990  0.00  0.00    -0.000 C 
ATOM     30  C   UNL     1      28.596 -22.358 -16.534  0.00  0.00    -0.000 C 
ATOM     31  C   UNL     1      27.680 -23.255 -15.993  0.00  0.00    -0.000 C 
ENDBRANCH  21  22
ENDBRANCH   1  21
TORSDOF 7
ENDMDL
MODEL 3
REMARK VINA RESULT:     -11.6      6.056     11.693
REMARK  Name = 16752640
REMARK  7 active torsions:
REMARK  status: ('A' for Active; 'I' for Inactive)
REMARK    1  A    between atoms: C_1  and  N_4
REMARK    2  A    between atoms: C_1  and  C_18
REMARK    3  A    between atoms: C_1  and  C_21
REMARK    4  A    between atoms: C_11  and  C_14
REMARK    5  A    between atoms: C_14  and  O_15
REMARK    6  A    between atoms: C_18  and  O_19
REMARK    7  A    between atoms: C_21  and  C_22
REMARK                            x       y       z     vdW  Elec       q    Type
REMARK                         _______ _______ _______ _____ _____    ______ ____
ROOT
ATOM      1  C   UNL     1      33.439 -22.207 -18.361  0.00  0.00    +0.186 C 
ENDROOT
BRANCH   1   4
ATOM      2  O   UNL     1      31.909 -20.475 -20.249  0.00  0.00    -0.269 OA
ATOM      3  O   UNL     1      36.228 -21.223 -18.745  0.00  0.00    -0.269 OA
ATOM      4  N   UNL     1      33.925 -21.162 -19.240  0.00  0.00    -0.213 N 
ATOM      5  C   UNL     1      34.003 -19.503 -20.781  0.00  0.00    +0.059 C 
ATOM      6  C   UNL     1      33.113 -20.426 -20.076  0.00  0.00    +0.256 C 
ATOM      7  C   UNL     1      35.251 -20.795 -19.332  0.00  0.00    +0.256 C 
ATOM      8  C   UNL     1      35.296 -19.726 -20.331  0.00  0.00    +0.058 C 
ATOM      9  C   UNL     1      33.716 -18.548 -21.732  0.00  0.00    +0.011 C 
ATOM     10  C   UNL     1      36.370 -19.005 -20.809  0.00  0.00    +0.005 C 
ATOM     11  C   UNL     1      34.789 -17.804 -22.232  0.00  0.00    +0.076 C 
ATOM     12  C   UNL     1      36.103 -18.031 -21.776  0.00  0.00    +0.007 C 
BRANCH  11  14
ATOM     13  O   UNL     1      33.954 -16.956 -24.308  0.00  0.00    -0.245 OA
ATOM     14  C   UNL     1      34.547 -16.781 -23.238  0.00  0.00    +0.338 C 
BRANCH  14  15
ATOM     15  O   UNL     1      35.052 -15.570 -22.880  0.00  0.00    -0.477 OA
ATOM     16  H   UNL     1      35.796 -15.221 -23.330  0.00  0.00    +0.295 HD
ENDBRANCH  14  15
ENDBRANCH  11  14
ENDBRANCH   1   4
BRANCH   1  18
ATOM     17  O   UNL     1      33.883 -23.716 -20.200  0.00  0.00    -0.248 OA
ATOM     18  C   UNL     1      33.451 -23.558 -19.063  0.00  0.00    +0.333 C 
BRANCH  18  19
ATOM     19  O   UNL     1      32.951 -24.583 -18.332  0.00  0.00    -0.479 OA
ATOM     20  H   UNL     1      33.060 -24.591 -17.401  0.00  0.00    +0.295 HD
ENDBRANCH  18  19
ENDBRANCH   1  18
BRANCH   1  21
ATOM     21  C   UNL     1      34.264 -22.281 -17.069  0.00  0.00    +0.058 C 
BRANCH  21  22
ATOM     22  C   UNL     1      33.437 -22.661 -15.864  0.00  0.00    -0.020 C 
ATOM     23  C   UNL     1      34.024 -23.132 -14.679  0.00  0.00    -0.004 C 
ATOM     24  C   UNL     1      33.194 -23.472 -13.584  0.00  0.00    -0.000 C 
ATOM     25  C   UNL     1      32.053 -22.526 -15.970  0.00  0.00    -0.004 C 
ATOM     26  C   UNL     1      35.415 -23.275 -14.555  0.00  0.00    -0.000 C 
ATOM     27  C   UNL     1      31.802 -23.329 -13.707  0.00  0.00    -0.000 C 
ATOM     28  C   UNL     1      31.236 -22.860 -14.893  0.00  0.00    -0.000 C 
ATOM     29  C   UNL     1      33.780 -23.943 -12.398  0.00  0.00    -0.000 C 
ATOM     30  C   UNL     1      35.981 -23.746 -13.370  0.00  0.00    -0.000 C 
ATOM     31  C   UNL     1      35.165 -24.079 -12.294  0.00  0.00    -0.000 C 
ENDBRANCH  21  22
ENDBRANCH   1  21
TORSDOF 7
ENDMDL
MODEL 4
REMARK VINA RESULT:     -11.1      1.865      3.339
REMARK  Name = 16752640
REMARK  7 active torsions:
REMARK  status: ('A' for Active; 'I' for Inactive)
REMARK    1  A    between atoms: C_1  and  N_4
REMARK    2  A    between atoms: C_1  and  C_18
REMARK    3  A    between atoms: C_1  and  C_21
REMARK    4  A    between atoms: C_11  and  C_14
REMARK    5  A    between atoms: C_14  and  O_15
REMARK    6  A    between atoms: C_18  and  O_19
REMARK    7  A    between atoms: C_21  and  C_22
REMARK                            x       y       z     vdW  Elec       q    Type
REMARK                         _______ _______ _______ _____ _____    ______ ____
ROOT
ATOM      1  C   UNL     1      31.685 -10.532 -22.555  0.00  0.00    +0.186 C 
ENDROOT
BRANCH   1   4
ATOM      2  O   UNL     1      32.418 -12.447 -20.386  0.00  0.00    -0.269 OA
ATOM      3  O   UNL     1      32.682 -11.944 -24.985  0.00  0.00    -0.269 OA
ATOM      4  N   UNL     1      32.356 -11.813 -22.656  0.00  0.00    -0.213 N 
ATOM      5  C   UNL     1      33.324 -13.789 -22.116  0.00  0.00    +0.059 C 
ATOM      6  C   UNL     1      32.645 -12.613 -21.571  0.00  0.00    +0.256 C 
ATOM      7  C   UNL     1      32.775 -12.366 -23.848  0.00  0.00    +0.256 C 
ATOM      8  C   UNL     1      33.403 -13.639 -23.493  0.00  0.00    +0.058 C 
ATOM      9  C   UNL     1      33.830 -14.898 -21.473  0.00  0.00    +0.011 C 
ATOM     10  C   UNL     1      33.992 -14.591 -24.298  0.00  0.00    +0.005 C 
ATOM     11  C   UNL     1      34.433 -15.877 -22.268  0.00  0.00    +0.076 C 
ATOM     12  C   UNL     1      34.514 -15.724 -23.667  0.00  0.00    +0.007 C 
BRANCH  11  14
ATOM     13  O   UNL     1      35.302 -17.173 -20.455  0.00  0.00    -0.245 OA
ATOM     14  C   UNL     1      34.985 -17.069 -21.645  0.00  0.00    +0.338 C 
BRANCH  14  15
ATOM     15  O   UNL     1      35.126 -18.098 -22.523  0.00  0.00    -0.477 OA
ATOM     16  H   UNL     1      34.964 -18.978 -22.244  0.00  0.00    +0.295 HD
ENDBRANCH  14  15
ENDBRANCH  11  14
ENDBRANCH   1   4
BRANCH   1  18
ATOM     17  O   UNL     1      31.177  -9.878 -20.282  0.00  0.00    -0.248 OA
ATOM     18  C   UNL     1      30.825 -10.464 -21.301  0.00  0.00    +0.333 C 
BRANCH  18  19
ATOM     19  O   UNL     1      29.631 -11.096 -21.395  0.00  0.00    -0.479 OA
ATOM     20  H   UNL     1      29.430 -11.608 -22.154  0.00  0.00    +0.295 HD
ENDBRANCH  18  19
ENDBRANCH   1  18
BRANCH   1  21
ATOM     21  C   UNL     1      32.690  -9.372 -22.565  0.00  0.00    +0.058 C 
BRANCH  21  22
ATOM     22  C   UNL     1      32.073  -8.063 -22.996  0.00  0.00    -0.020 C 
ATOM     23  C   UNL     1      31.941  -6.978 -22.115  0.00  0.00    -0.004 C 
ATOM     24  C   UNL     1      31.354  -5.777 -22.580  0.00  0.00    -0.000 C 
ATOM     25  C   UNL     1      31.633  -7.968 -24.317  0.00  0.00    -0.004 C 
ATOM     26  C   UNL     1      32.377  -7.057 -20.783  0.00  0.00    -0.000 C 
ATOM     27  C   UNL     1      30.917  -5.697 -23.913  0.00  0.00    -0.000 C 
ATOM     28  C   UNL     1      31.056  -6.786 -24.774  0.00  0.00    -0.000 C 
ATOM     29  C   UNL     1      31.221  -4.692 -21.700  0.00  0.00    -0.000 C 
ATOM     30  C   UNL     1      32.237  -5.969 -19.921  0.00  0.00    -0.000 C 
ATOM     31  C   UNL     1      31.661  -4.788 -20.379  0.00  0.00    -0.000 C 
ENDBRANCH  21  22
ENDBRANCH   1  21
TORSDOF 7
ENDMDL
MODEL 5
REMARK VINA RESULT:     -10.9      6.213     11.361
REMARK  Name = 16752640
REMARK  7 active torsions:
REMARK  status: ('A' for Active; 'I' for Inactive)
REMARK    1  A    between atoms: C_1  and  N_4
REMARK    2  A    between atoms: C_1  and  C_18
REMARK    3  A    between atoms: C_1  and  C_21
REMARK    4  A    between atoms: C_11  and  C_14
REMARK    5  A    between atoms: C_14  and  O_15
REMARK    6  A    between atoms: C_18  and  O_19
REMARK    7  A    between atoms: C_21  and  C_22
REMARK                            x       y       z     vdW  Elec       q    Type
REMARK                         _______ _______ _______ _____ _____    ______ ____
ROOT
ATOM      1  C   UNL     1      33.343 -22.299 -18.110  0.00  0.00    +0.186 C 
ENDROOT
BRANCH   1   4
ATOM      2  O   UNL     1      31.832 -20.619 -20.059  0.00  0.00    -0.269 OA
ATOM      3  O   UNL     1      36.138 -21.339 -18.507  0.00  0.00    -0.269 OA
ATOM      4  N   UNL     1      33.839 -21.283 -19.017  0.00  0.00    -0.213 N 
ATOM      5  C   UNL     1      33.934 -19.674 -20.608  0.00  0.00    +0.059 C 
ATOM      6  C   UNL     1      33.035 -20.570 -19.881  0.00  0.00    +0.256 C 
ATOM      7  C   UNL     1      35.168 -20.925 -19.113  0.00  0.00    +0.256 C 
ATOM      8  C   UNL     1      35.223 -19.888 -20.143  0.00  0.00    +0.058 C 
ATOM      9  C   UNL     1      33.657 -18.747 -21.590  0.00  0.00    +0.011 C 
ATOM     10  C   UNL     1      36.303 -19.186 -20.637  0.00  0.00    +0.005 C 
ATOM     11  C   UNL     1      34.736 -18.023 -22.106  0.00  0.00    +0.076 C 
ATOM     12  C   UNL     1      36.046 -18.241 -21.635  0.00  0.00    +0.007 C 
BRANCH  11  14
ATOM     13  O   UNL     1      33.914 -17.235 -24.210  0.00  0.00    -0.245 OA
ATOM     14  C   UNL     1      34.504 -17.031 -23.144  0.00  0.00    +0.338 C 
BRANCH  14  15
ATOM     15  O   UNL     1      35.016 -15.812 -22.823  0.00  0.00    -0.477 OA
ATOM     16  H   UNL     1      35.617 -15.388 -23.404  0.00  0.00    +0.295 HD
ENDBRANCH  14  15
ENDBRANCH  11  14
ENDBRANCH   1   4
BRANCH   1  18
ATOM     17  O   UNL     1      32.961 -24.687 -18.203  0.00  0.00    -0.248 OA
ATOM     18  C   UNL     1      33.368 -23.674 -18.764  0.00  0.00    +0.333 C 
BRANCH  18  19
ATOM     19  O   UNL     1      33.867 -23.696 -20.022  0.00  0.00    -0.479 OA
ATOM     20  H   UNL     1      34.537 -23.090 -20.272  0.00  0.00    +0.295 HD
ENDBRANCH  18  19
ENDBRANCH   1  18
BRANCH   1  21
ATOM     21  C   UNL     1      34.150 -22.326 -16.805  0.00  0.00    +0.058 C 
BRANCH  21  22
ATOM     22  C   UNL     1      33.392 -22.951 -15.657  0.00  0.00    -0.020 C 
ATOM     23  C   UNL     1      31.992 -22.897 -15.574  0.00  0.00    -0.004 C 
ATOM     24  C   UNL     1      31.342 -23.503 -14.473  0.00  0.00    -0.000 C 
ATOM     25  C   UNL     1      34.142 -23.593 -14.671  0.00  0.00    -0.004 C 
ATOM     26  C   UNL     1      31.222 -22.254 -16.556  0.00  0.00    -0.000 C 
ATOM     27  C   UNL     1      32.111 -24.146 -13.489  0.00  0.00    -0.000 C 
ATOM     28  C   UNL     1      33.501 -24.190 -13.588  0.00  0.00    -0.000 C 
ATOM     29  C   UNL     1      29.941 -23.448 -14.388  0.00  0.00    -0.000 C 
ATOM     30  C   UNL     1      29.832 -22.209 -16.456  0.00  0.00    -0.000 C 
ATOM     31  C   UNL     1      29.192 -22.805 -15.374  0.00  0.00    -0.000 C 
ENDBRANCH  21  22
ENDBRANCH   1  21
TORSDOF 7
ENDMDL
MODEL 6
REMARK VINA RESULT:     -10.7     11.546     13.819
REMARK  Name = 16752640
REMARK  7 active torsions:
REMARK  status: ('A' for Active; 'I' for Inactive)
REMARK    1  A    between atoms: C_1  and  N_4
REMARK    2  A    between atoms: C_1  and  C_18
REMARK    3  A    between atoms: C_1  and  C_21
REMARK    4  A    between atoms: C_11  and  C_14
REMARK    5  A    between atoms: C_14  and  O_15
REMARK    6  A    between atoms: C_18  and  O_19
REMARK    7  A    between atoms: C_21  and  C_22
REMARK                            x       y       z     vdW  Elec       q    Type
REMARK                         _______ _______ _______ _____ _____    ______ ____
ROOT
ATOM      1  C   UNL     1      32.850 -23.943 -14.331  0.00  0.00    +0.186 C 
ENDROOT
BRANCH   1   4
ATOM      2  O   UNL     1      34.878 -25.373 -15.990  0.00  0.00    -0.269 OA
ATOM      3  O   UNL     1      34.456 -23.144 -11.950  0.00  0.00    -0.269 OA
ATOM      4  N   UNL     1      34.251 -24.189 -14.050  0.00  0.00    -0.213 N 
ATOM      5  C   UNL     1      36.394 -24.899 -14.232  0.00  0.00    +0.059 C 
ATOM      6  C   UNL     1      35.094 -24.872 -14.902  0.00  0.00    +0.256 C 
ATOM      7  C   UNL     1      34.886 -23.767 -12.902  0.00  0.00    +0.256 C 
ATOM      8  C   UNL     1      36.268 -24.231 -13.023  0.00  0.00    +0.058 C 
ATOM      9  C   UNL     1      37.588 -25.455 -14.638  0.00  0.00    +0.011 C 
ATOM     10  C   UNL     1      37.331 -24.085 -12.156  0.00  0.00    +0.005 C 
ATOM     11  C   UNL     1      38.680 -25.320 -13.776  0.00  0.00    +0.076 C 
ATOM     12  C   UNL     1      38.553 -24.642 -12.546  0.00  0.00    +0.007 C 
BRANCH  11  14
ATOM     13  O   UNL     1      40.750 -26.453 -13.383  0.00  0.00    -0.245 OA
ATOM     14  C   UNL     1      39.966 -25.886 -14.152  0.00  0.00    +0.338 C 
BRANCH  14  15
ATOM     15  O   UNL     1      40.237 -25.729 -15.475  0.00  0.00    -0.477 OA
ATOM     16  H   UNL     1      40.342 -24.870 -15.834  0.00  0.00    +0.295 HD
ENDBRANCH  14  15
ENDBRANCH  11  14
ENDBRANCH   1   4
BRANCH   1  18
ATOM     17  O   UNL     1      31.638 -25.266 -12.707  0.00  0.00    -0.248 OA
ATOM     18  C   UNL     1      31.999 -24.157 -13.087  0.00  0.00    +0.333 C 
BRANCH  18  19
ATOM     19  O   UNL     1      31.672 -23.024 -12.421  0.00  0.00    -0.479 OA
ATOM     20  H   UNL     1      32.132 -22.227 -12.597  0.00  0.00    +0.295 HD
ENDBRANCH  18  19
ENDBRANCH   1  18
BRANCH   1  21
ATOM     21  C   UNL     1      32.629 -22.528 -14.881  0.00  0.00    +0.058 C 
BRANCH  21  22
ATOM     22  C   UNL     1      33.183 -22.344 -16.274  0.00  0.00    -0.020 C 
ATOM     23  C   UNL     1      34.497 -21.903 -16.499  0.00  0.00    -0.004 C 
ATOM     24  C   UNL     1      34.956 -21.750 -17.828  0.00  0.00    -0.000 C 
ATOM     25  C   UNL     1      32.334 -22.631 -17.343  0.00  0.00    -0.004 C 
ATOM     26  C   UNL     1      35.364 -21.608 -15.434  0.00  0.00    -0.000 C 
ATOM     27  C   UNL     1      34.089 -22.045 -18.893  0.00  0.00    -0.000 C 
ATOM     28  C   UNL     1      32.787 -22.482 -18.651  0.00  0.00    -0.000 C 
ATOM     29  C   UNL     1      36.270 -21.309 -18.054  0.00  0.00    -0.000 C 
ATOM     30  C   UNL     1      36.666 -21.170 -15.677  0.00  0.00    -0.000 C 
ATOM     31  C   UNL     1      37.118 -21.021 -16.984  0.00  0.00    -0.000 C 
ENDBRANCH  21  22
ENDBRANCH   1  21
TORSDOF 7
ENDMDL
MODEL 7
REMARK VINA RESULT:     -10.7      5.257      8.692
REMARK  Name = 16752640
REMARK  7 active torsions:
REMARK  status: ('A' for Active; 'I' for Inactive)
REMARK    1  A    between atoms: C_1  and  N_4
REMARK    2  A    between atoms: C_1  and  C_18
REMARK    3  A    between atoms: C_1  and  C_21
REMARK    4  A    between atoms: C_11  and  C_14
REMARK    5  A    between atoms: C_14  and  O_15
REMARK    6  A    between atoms: C_18  and  O_19
REMARK    7  A    between atoms: C_21  and  C_22
REMARK                            x       y       z     vdW  Elec       q    Type
REMARK                         _______ _______ _______ _____ _____    ______ ____
ROOT
ATOM      1  C   UNL     1      33.811 -20.399 -20.396  0.00  0.00    +0.186 C 
ENDROOT
BRANCH   1   4
ATOM      2  O   UNL     1      36.439 -20.187 -18.998  0.00  0.00    -0.269 OA
ATOM      3  O   UNL     1      32.321 -22.279 -18.624  0.00  0.00    -0.269 OA
ATOM      4  N   UNL     1      34.251 -21.045 -19.175  0.00  0.00    -0.213 N 
ATOM      5  C   UNL     1      35.525 -21.701 -17.422  0.00  0.00    +0.059 C 
ATOM      6  C   UNL     1      35.502 -20.869 -18.624  0.00  0.00    +0.256 C 
ATOM      7  C   UNL     1      33.464 -21.904 -18.437  0.00  0.00    +0.256 C 
ATOM      8  C   UNL     1      34.293 -22.328 -17.309  0.00  0.00    +0.058 C 
ATOM      9  C   UNL     1      36.532 -21.900 -16.500  0.00  0.00    +0.011 C 
ATOM     10  C   UNL     1      34.002 -23.185 -16.268  0.00  0.00    +0.005 C 
ATOM     11  C   UNL     1      36.260 -22.764 -15.436  0.00  0.00    +0.076 C 
ATOM     12  C   UNL     1      35.008 -23.402 -15.322  0.00  0.00    +0.007 C 
BRANCH  11  14
ATOM     13  O   UNL     1      37.170 -22.782 -13.223  0.00  0.00    -0.245 OA
ATOM     14  C   UNL     1      37.283 -23.011 -14.432  0.00  0.00    +0.338 C 
BRANCH  14  15
ATOM     15  O   UNL     1      38.419 -23.536 -14.965  0.00  0.00    -0.477 OA
ATOM     16  H   UNL     1      39.147 -22.978 -15.160  0.00  0.00    +0.295 HD
ENDBRANCH  14  15
ENDBRANCH  11  14
ENDBRANCH   1   4
BRANCH   1  18
ATOM     17  O   UNL     1      31.596 -20.161 -21.342  0.00  0.00    -0.248 OA
ATOM     18  C   UNL     1      32.318 -20.106 -20.350  0.00  0.00    +0.333 C 
BRANCH  18  19
ATOM     19  O   UNL     1      31.838 -19.786 -19.125  0.00  0.00    -0.479 OA
ATOM     20  H   UNL     1      31.613 -18.898 -18.928  0.00  0.00    +0.295 HD
ENDBRANCH  18  19
ENDBRANCH   1  18
BRANCH   1  21
ATOM     21  C   UNL     1      34.591 -19.105 -20.657  0.00  0.00    +0.058 C 
BRANCH  21  22
ATOM     22  C   UNL     1      34.320 -18.518 -22.022  0.00  0.00    -0.020 C 
ATOM     23  C   UNL     1      34.197 -17.135 -22.226  0.00  0.00    -0.004 C 
ATOM     24  C   UNL     1      33.942 -16.648 -23.530  0.00  0.00    -0.000 C 
ATOM     25  C   UNL     1      34.194 -19.411 -23.087  0.00  0.00    -0.004 C 
ATOM     26  C   UNL     1      34.320 -16.223 -21.165  0.00  0.00    -0.000 C 
ATOM     27  C   UNL     1      33.819 -17.560 -24.592  0.00  0.00    -0.000 C 
ATOM     28  C   UNL     1      33.944 -18.931 -24.371  0.00  0.00    -0.000 C 
ATOM     29  C   UNL     1      33.819 -15.264 -23.735  0.00  0.00    -0.000 C 
ATOM     30  C   UNL     1      34.194 -14.851 -21.386  0.00  0.00    -0.000 C 
ATOM     31  C   UNL     1      33.944 -14.373 -22.669  0.00  0.00    -0.000 C 
ENDBRANCH  21  22
ENDBRANCH   1  21
TORSDOF 7
ENDMDL
MODEL 8
REMARK VINA RESULT:     -10.6      3.128      5.786
REMARK  Name = 16752640
REMARK  7 active torsions:
REMARK  status: ('A' for Active; 'I' for Inactive)
REMARK    1  A    between atoms: C_1  and  N_4
REMARK    2  A    between atoms: C_1  and  C_18
REMARK    3  A    between atoms: C_1  and  C_21
REMARK    4  A    between atoms: C_11  and  C_14
REMARK    5  A    between atoms: C_14  and  O_15
REMARK    6  A    between atoms: C_18  and  O_19
REMARK    7  A    between atoms: C_21  and  C_22
REMARK                            x       y       z     vdW  Elec       q    Type
REMARK                         _______ _______ _______ _____ _____    ______ ____
ROOT
ATOM      1  C   UNL     1      31.158  -7.563 -21.452  0.00  0.00    +0.186 C 
ENDROOT
BRANCH   1   4
ATOM      2  O   UNL     1      32.543  -8.975 -23.687  0.00  0.00    -0.269 OA
ATOM      3  O   UNL     1      30.689  -9.784 -19.518  0.00  0.00    -0.269 OA
ATOM      4  N   UNL     1      31.508  -8.965 -21.569  0.00  0.00    -0.213 N 
ATOM      5  C   UNL     1      32.296 -10.931 -22.373  0.00  0.00    +0.059 C 
ATOM      6  C   UNL     1      32.151  -9.504 -22.663  0.00  0.00    +0.256 C 
ATOM      7  C   UNL     1      31.234  -9.906 -20.599  0.00  0.00    +0.256 C 
ATOM      8  C   UNL     1      31.742 -11.173 -21.125  0.00  0.00    +0.058 C 
ATOM      9  C   UNL     1      32.864 -11.936 -23.127  0.00  0.00    +0.011 C 
ATOM     10  C   UNL     1      31.726 -12.434 -20.566  0.00  0.00    +0.005 C 
ATOM     11  C   UNL     1      32.860 -13.222 -22.581  0.00  0.00    +0.076 C 
ATOM     12  C   UNL     1      32.295 -13.470 -21.314  0.00  0.00    +0.007 C 
BRANCH  11  14
ATOM     13  O   UNL     1      34.468 -14.939 -23.017  0.00  0.00    -0.245 OA
ATOM     14  C   UNL     1      33.445 -14.323 -23.331  0.00  0.00    +0.338 C 
BRANCH  14  15
ATOM     15  O   UNL     1      32.736 -14.623 -24.453  0.00  0.00    -0.477 OA
ATOM     16  H   UNL     1      33.177 -14.716 -25.274  0.00  0.00    +0.295 HD
ENDBRANCH  14  15
ENDBRANCH  11  14
ENDBRANCH   1   4
BRANCH   1  18
ATOM     17  O   UNL     1      32.494  -6.144 -20.019  0.00  0.00    -0.248 OA
ATOM     18  C   UNL     1      32.377  -6.725 -21.094  0.00  0.00    +0.333 C 
BRANCH  18  19
ATOM     19  O   UNL     1      33.333  -6.672 -22.051  0.00  0.00    -0.479 OA
ATOM     20  H   UNL     1      33.520  -5.862 -22.482  0.00  0.00    +0.295 HD
ENDBRANCH  18  19
ENDBRANCH   1  18
BRANCH   1  21
ATOM     21  C   UNL     1      30.520  -7.036 -22.744  0.00  0.00    +0.058 C 
BRANCH  21  22
ATOM     22  C   UNL     1      30.541  -5.529 -22.838  0.00  0.00    -0.020 C 
ATOM     23  C   UNL     1      31.096  -4.860 -23.941  0.00  0.00    -0.004 C 
ATOM     24  C   UNL     1      31.085  -3.445 -23.969  0.00  0.00    -0.000 C 
ATOM     25  C   UNL     1      29.982  -4.814 -21.778  0.00  0.00    -0.004 C 
ATOM     26  C   UNL     1      31.664  -5.563 -25.016  0.00  0.00    -0.000 C 
ATOM     27  C   UNL     1      30.517  -2.741 -22.894  0.00  0.00    -0.000 C 
ATOM     28  C   UNL     1      29.971  -3.422 -21.806  0.00  0.00    -0.000 C 
ATOM     29  C   UNL     1      31.640  -2.776 -25.072  0.00  0.00    -0.000 C 
ATOM     30  C   UNL     1      32.211  -4.882 -26.103  0.00  0.00    -0.000 C 
ATOM     31  C   UNL     1      32.199  -3.491 -26.131  0.00  0.00    -0.000 C 
ENDBRANCH  21  22
ENDBRANCH   1  21
TORSDOF 7
ENDMDL
MODEL 9
REMARK VINA RESULT:     -10.5      6.318     11.667
REMARK  Name = 16752640
REMARK  7 active torsions:
REMARK  status: ('A' for Active; 'I' for Inactive)
REMARK    1  A    between atoms: C_1  and  N_4
REMARK    2  A    between atoms: C_1  and  C_18
REMARK    3  A    between atoms: C_1  and  C_21
REMARK    4  A    between atoms: C_11  and  C_14
REMARK    5  A    between atoms: C_14  and  O_15
REMARK    6  A    between atoms: C_18  and  O_19
REMARK    7  A    between atoms: C_21  and  C_22
REMARK                            x       y       z     vdW  Elec       q    Type
REMARK                         _______ _______ _______ _____ _____    ______ ____
ROOT
ATOM      1  C   UNL     1      32.582 -22.365 -18.305  0.00  0.00    +0.186 C 
ENDROOT
BRANCH   1   4
ATOM      2  O   UNL     1      31.447 -20.514 -20.352  0.00  0.00    -0.269 OA
ATOM      3  O   UNL     1      35.473 -21.640 -18.354  0.00  0.00    -0.269 OA
ATOM      4  N   UNL     1      33.260 -21.374 -19.116  0.00  0.00    -0.213 N 
ATOM      5  C   UNL     1      33.668 -19.739 -20.629  0.00  0.00    +0.059 C 
ATOM      6  C   UNL     1      32.622 -20.573 -20.039  0.00  0.00    +0.256 C 
ATOM      7  C   UNL     1      34.616 -21.128 -19.050  0.00  0.00    +0.256 C 
ATOM      8  C   UNL     1      34.874 -20.075 -20.032  0.00  0.00    +0.058 C 
ATOM      9  C   UNL     1      33.583 -18.767 -21.604  0.00  0.00    +0.011 C 
ATOM     10  C   UNL     1      36.057 -19.457 -20.377  0.00  0.00    +0.005 C 
ATOM     11  C   UNL     1      34.770 -18.126 -21.971  0.00  0.00    +0.076 C 
ATOM     12  C   UNL     1      35.995 -18.469 -21.364  0.00  0.00    +0.007 C 
BRANCH  11  14
ATOM     13  O   UNL     1      34.252 -17.215 -24.121  0.00  0.00    -0.245 OA
ATOM     14  C   UNL     1      34.741 -17.093 -22.994  0.00  0.00    +0.338 C 
BRANCH  14  15
ATOM     15  O   UNL     1      35.324 -15.935 -22.580  0.00  0.00    -0.477 OA
ATOM     16  H   UNL     1      35.315 -15.704 -21.673  0.00  0.00    +0.295 HD
ENDBRANCH  14  15
ENDBRANCH  11  14
ENDBRANCH   1   4
BRANCH   1  18
ATOM     17  O   UNL     1      33.397 -24.444 -19.237  0.00  0.00    -0.248 OA
ATOM     18  C   UNL     1      33.358 -23.675 -18.282  0.00  0.00    +0.333 C 
BRANCH  18  19
ATOM     19  O   UNL     1      34.012 -23.928 -17.124  0.00  0.00    -0.479 OA
ATOM     20  H   UNL     1      34.948 -23.976 -17.115  0.00  0.00    +0.295 HD
ENDBRANCH  18  19
ENDBRANCH   1  18
BRANCH   1  21
ATOM     21  C   UNL     1      32.361 -21.862 -16.872  0.00  0.00    +0.058 C 
BRANCH  21  22
ATOM     22  C   UNL     1      31.098 -22.402 -16.246  0.00  0.00    -0.020 C 
ATOM     23  C   UNL     1      31.124 -23.200 -15.091  0.00  0.00    -0.004 C 
ATOM     24  C   UNL     1      29.904 -23.676 -14.553  0.00  0.00    -0.000 C 
ATOM     25  C   UNL     1      29.889 -22.077 -16.862  0.00  0.00    -0.004 C 
ATOM     26  C   UNL     1      32.331 -23.538 -14.459  0.00  0.00    -0.000 C 
ATOM     27  C   UNL     1      28.696 -23.338 -15.184  0.00  0.00    -0.000 C 
ATOM     28  C   UNL     1      28.690 -22.545 -16.331  0.00  0.00    -0.000 C 
ATOM     29  C   UNL     1      29.929 -24.474 -13.397  0.00  0.00    -0.000 C 
ATOM     30  C   UNL     1      32.337 -24.332 -13.312  0.00  0.00    -0.000 C 
ATOM     31  C   UNL     1      31.139 -24.800 -12.783  0.00  0.00    -0.000 C 
ENDBRANCH  21  22
ENDBRANCH   1  21
TORSDOF 7
ENDMDL
