MODEL 1
REMARK VINA RESULT:     -11.3      0.000      0.000
REMARK  Name = 5279172
REMARK  3 active torsions:
REMARK  status: ('A' for Active; 'I' for Inactive)
REMARK    1  A    between atoms: C_5  and  N_15
REMARK    2  A    between atoms: C_6  and  C_27
REMARK    3  A    between atoms: N_16  and  C_21
REMARK                            x       y       z     vdW  Elec       q    Type
REMARK                         _______ _______ _______ _____ _____    ______ ____
ROOT
ATOM      1  O   UNL     1      30.451 -11.414 -22.263  0.00  0.00    -0.271 OA
ATOM      2  N   UNL     1      30.789  -9.473 -21.111  0.00  0.00    -0.281 N 
ATOM      3  N   UNL     1      32.679  -9.336 -23.462  0.00  0.00    -0.243 NA
ATOM      4  C   UNL     1      32.397  -7.658 -21.675  0.00  0.00    +0.031 C 
ATOM      5  C   UNL     1      32.623 -10.381 -22.464  0.00  0.00    +0.256 C 
ATOM      6  C   UNL     1      32.592  -8.106 -23.087  0.00  0.00    +0.079 C 
ATOM      7  C   UNL     1      31.475  -8.278 -20.815  0.00  0.00    +0.052 C 
ATOM      8  C   UNL     1      31.193 -10.477 -21.968  0.00  0.00    +0.268 C 
ATOM      9  C   UNL     1      33.082  -6.510 -21.244  0.00  0.00    +0.003 C 
ATOM     10  C   UNL     1      31.179  -7.675 -19.584  0.00  0.00    +0.015 C 
ATOM     11  C   UNL     1      32.813  -5.950 -19.996  0.00  0.00    +0.000 C 
ATOM     12  C   UNL     1      31.849  -6.523 -19.172  0.00  0.00    +0.001 C 
ATOM     13  H   UNL     1      29.925  -9.607 -20.656  0.00  0.00    +0.155 HD
ENDROOT
BRANCH   5  15
ATOM     14  O   UNL     1      33.382 -12.765 -21.068  0.00  0.00    -0.252 OA
ATOM     15  N   UNL     1      32.992 -11.641 -23.051  0.00  0.00    -0.264 N 
ATOM     16  N   UNL     1      33.656 -13.842 -23.136  0.00  0.00    -0.266 N 
ATOM     17  C   UNL     1      33.351 -12.767 -22.296  0.00  0.00    +0.306 C 
ATOM     18  H   UNL     1      32.990 -11.718 -24.033  0.00  0.00    +0.153 HD
ATOM     19  H   UNL     1      33.581 -13.670 -24.102  0.00  0.00    +0.156 HD
BRANCH  16  21
ATOM     20  F   UNL     1      33.951 -15.850 -25.030  0.00  0.00    -0.203 F 
ATOM     21  C   UNL     1      34.062 -15.144 -22.765  0.00  0.00    +0.079 C 
ATOM     22  C   UNL     1      34.197 -16.120 -23.740  0.00  0.00    +0.154 C 
ATOM     23  C   UNL     1      34.316 -15.419 -21.431  0.00  0.00    +0.017 C 
ATOM     24  C   UNL     1      34.598 -17.404 -23.371  0.00  0.00    +0.031 C 
ATOM     25  C   UNL     1      34.717 -16.703 -21.062  0.00  0.00    +0.001 C 
ATOM     26  C   UNL     1      34.858 -17.695 -22.032  0.00  0.00    +0.002 C 
ENDBRANCH  16  21
ENDBRANCH   5  15
BRANCH   6  27
ATOM     27  C   UNL     1      32.661  -7.074 -24.162  0.00  0.00    +0.017 C 
ATOM     28  C   UNL     1      33.898  -6.689 -24.664  0.00  0.00    +0.001 C 
ATOM     29  C   UNL     1      31.489  -6.510 -24.648  0.00  0.00    +0.001 C 
ATOM     30  C   UNL     1      33.963  -5.724 -25.669  0.00  0.00    +0.000 C 
ATOM     31  C   UNL     1      31.554  -5.545 -25.653  0.00  0.00    +0.000 C 
ATOM     32  C   UNL     1      32.791  -5.152 -26.163  0.00  0.00    +0.000 C 
ENDBRANCH   6  27
TORSDOF 3
ENDMDL
MODEL 2
REMARK VINA RESULT:     -10.7     13.019     16.132
REMARK  Name = 5279172
REMARK  3 active torsions:
REMARK  status: ('A' for Active; 'I' for Inactive)
REMARK    1  A    between atoms: C_5  and  N_15
REMARK    2  A    between atoms: C_6  and  C_27
REMARK    3  A    between atoms: N_16  and  C_21
REMARK                            x       y       z     vdW  Elec       q    Type
REMARK                         _______ _______ _______ _____ _____    ______ ____
ROOT
ATOM      1  O   UNL     1      34.262 -23.175 -11.464  0.00  0.00    -0.271 OA
ATOM      2  N   UNL     1      36.385 -23.648 -12.156  0.00  0.00    -0.281 N 
ATOM      3  N   UNL     1      34.830 -23.107 -14.688  0.00  0.00    -0.243 NA
ATOM      4  C   UNL     1      37.212 -23.722 -14.504  0.00  0.00    +0.031 C 
ATOM      5  C   UNL     1      34.516 -24.096 -13.681  0.00  0.00    +0.256 C 
ATOM      6  C   UNL     1      36.055 -22.961 -15.062  0.00  0.00    +0.079 C 
ATOM      7  C   UNL     1      37.367 -23.942 -13.125  0.00  0.00    +0.052 C 
ATOM      8  C   UNL     1      35.020 -23.580 -12.347  0.00  0.00    +0.268 C 
ATOM      9  C   UNL     1      38.227 -24.127 -15.388  0.00  0.00    +0.003 C 
ATOM     10  C   UNL     1      38.578 -24.465 -12.649  0.00  0.00    +0.015 C 
ATOM     11  C   UNL     1      39.405 -24.692 -14.903  0.00  0.00    +0.000 C 
ATOM     12  C   UNL     1      39.588 -24.844 -13.532  0.00  0.00    +0.001 C 
ATOM     13  H   UNL     1      36.710 -23.470 -11.244  0.00  0.00    +0.155 HD
ENDROOT
BRANCH   5  15
ATOM     14  O   UNL     1      32.532 -22.866 -15.342  0.00  0.00    -0.252 OA
ATOM     15  N   UNL     1      33.091 -24.275 -13.595  0.00  0.00    -0.264 N 
ATOM     16  N   UNL     1      30.871 -24.000 -14.131  0.00  0.00    -0.266 N 
ATOM     17  C   UNL     1      32.182 -23.635 -14.449  0.00  0.00    +0.306 C 
ATOM     18  H   UNL     1      32.736 -24.878 -12.903  0.00  0.00    +0.153 HD
ATOM     19  H   UNL     1      30.768 -24.630 -13.381  0.00  0.00    +0.156 HD
BRANCH  16  21
ATOM     20  F   UNL     1      29.441 -25.687 -15.809  0.00  0.00    -0.203 F 
ATOM     21  C   UNL     1      29.676 -23.573 -14.753  0.00  0.00    +0.079 C 
ATOM     22  C   UNL     1      28.991 -24.444 -15.584  0.00  0.00    +0.154 C 
ATOM     23  C   UNL     1      29.213 -22.288 -14.517  0.00  0.00    +0.017 C 
ATOM     24  C   UNL     1      27.811 -24.020 -16.196  0.00  0.00    +0.031 C 
ATOM     25  C   UNL     1      28.034 -21.864 -15.130  0.00  0.00    +0.001 C 
ATOM     26  C   UNL     1      27.333 -22.730 -15.969  0.00  0.00    +0.002 C 
ENDBRANCH  16  21
ENDBRANCH   5  15
BRANCH   6  27
ATOM     27  C   UNL     1      36.313 -21.929 -16.108  0.00  0.00    +0.017 C 
ATOM     28  C   UNL     1      37.221 -20.909 -15.854  0.00  0.00    +0.001 C 
ATOM     29  C   UNL     1      35.643 -22.000 -17.322  0.00  0.00    +0.001 C 
ATOM     30  C   UNL     1      37.462 -19.943 -16.832  0.00  0.00    +0.000 C 
ATOM     31  C   UNL     1      35.885 -21.035 -18.299  0.00  0.00    +0.000 C 
ATOM     32  C   UNL     1      36.794 -20.006 -18.054  0.00  0.00    +0.000 C 
ENDBRANCH   6  27
TORSDOF 3
ENDMDL
MODEL 3
REMARK VINA RESULT:      -9.2      2.157      2.891
REMARK  Name = 5279172
REMARK  3 active torsions:
REMARK  status: ('A' for Active; 'I' for Inactive)
REMARK    1  A    between atoms: C_5  and  N_15
REMARK    2  A    between atoms: C_6  and  C_27
REMARK    3  A    between atoms: N_16  and  C_21
REMARK                            x       y       z     vdW  Elec       q    Type
REMARK                         _______ _______ _______ _____ _____    ______ ____
ROOT
ATOM      1  O   UNL     1      30.031  -9.384 -22.616  0.00  0.00    -0.271 OA
ATOM      2  N   UNL     1      29.984  -7.105 -22.497  0.00  0.00    -0.281 N 
ATOM      3  N   UNL     1      32.699  -7.781 -23.632  0.00  0.00    -0.243 NA
ATOM      4  C   UNL     1      31.804  -5.535 -23.145  0.00  0.00    +0.031 C 
ATOM      5  C   UNL     1      32.150  -8.252 -22.380  0.00  0.00    +0.256 C 
ATOM      6  C   UNL     1      32.548  -6.543 -23.957  0.00  0.00    +0.079 C 
ATOM      7  C   UNL     1      30.562  -5.821 -22.553  0.00  0.00    +0.052 C 
ATOM      8  C   UNL     1      30.642  -8.319 -22.528  0.00  0.00    +0.268 C 
ATOM      9  C   UNL     1      32.320  -4.230 -23.073  0.00  0.00    +0.003 C 
ATOM     10  C   UNL     1      29.814  -4.774 -21.996  0.00  0.00    +0.015 C 
ATOM     11  C   UNL     1      31.586  -3.209 -22.472  0.00  0.00    +0.000 C 
ATOM     12  C   UNL     1      30.326  -3.477 -21.948  0.00  0.00    +0.001 C 
ATOM     13  H   UNL     1      29.001  -7.141 -22.429  0.00  0.00    +0.155 HD
ENDROOT
BRANCH   5  15
ATOM     14  O   UNL     1      32.260 -10.470 -24.190  0.00  0.00    -0.252 OA
ATOM     15  N   UNL     1      32.642  -9.573 -22.093  0.00  0.00    -0.264 N 
ATOM     16  N   UNL     1      33.194 -11.773 -22.475  0.00  0.00    -0.266 N 
ATOM     17  C   UNL     1      32.663 -10.609 -23.037  0.00  0.00    +0.306 C 
ATOM     18  H   UNL     1      32.982  -9.759 -21.188  0.00  0.00    +0.153 HD
ATOM     19  H   UNL     1      33.469 -11.710 -21.532  0.00  0.00    +0.156 HD
BRANCH  16  21
ATOM     20  F   UNL     1      34.314 -13.906 -21.095  0.00  0.00    -0.203 F 
ATOM     21  C   UNL     1      33.382 -13.029 -23.096  0.00  0.00    +0.079 C 
ATOM     22  C   UNL     1      33.945 -14.069 -22.373  0.00  0.00    +0.154 C 
ATOM     23  C   UNL     1      32.998 -13.194 -24.417  0.00  0.00    +0.017 C 
ATOM     24  C   UNL     1      34.128 -15.308 -22.989  0.00  0.00    +0.031 C 
ATOM     25  C   UNL     1      33.182 -14.432 -25.032  0.00  0.00    +0.001 C 
ATOM     26  C   UNL     1      33.746 -15.489 -24.318  0.00  0.00    +0.002 C 
ENDBRANCH  16  21
ENDBRANCH   5  15
BRANCH   6  27
ATOM     27  C   UNL     1      33.142  -6.118 -25.258  0.00  0.00    +0.017 C 
ATOM     28  C   UNL     1      34.509  -5.891 -25.345  0.00  0.00    +0.001 C 
ATOM     29  C   UNL     1      32.320  -5.952 -26.365  0.00  0.00    +0.001 C 
ATOM     30  C   UNL     1      35.065  -5.493 -26.562  0.00  0.00    +0.000 C 
ATOM     31  C   UNL     1      32.876  -5.554 -27.581  0.00  0.00    +0.000 C 
ATOM     32  C   UNL     1      34.247  -5.325 -27.679  0.00  0.00    +0.000 C 
ENDBRANCH   6  27
TORSDOF 3
ENDMDL
MODEL 4
REMARK VINA RESULT:      -8.6      8.490     14.074
REMARK  Name = 5279172
REMARK  3 active torsions:
REMARK  status: ('A' for Active; 'I' for Inactive)
REMARK    1  A    between atoms: C_5  and  N_15
REMARK    2  A    between atoms: C_6  and  C_27
REMARK    3  A    between atoms: N_16  and  C_21
REMARK                            x       y       z     vdW  Elec       q    Type
REMARK                         _______ _______ _______ _____ _____    ______ ____
ROOT
ATOM      1  O   UNL     1      33.624 -23.429 -19.666  0.00  0.00    -0.271 OA
ATOM      2  N   UNL     1      33.950 -23.753 -17.430  0.00  0.00    -0.281 N 
ATOM      3  N   UNL     1      31.395 -22.156 -17.632  0.00  0.00    -0.243 NA
ATOM      4  C   UNL     1      32.509 -22.933 -15.572  0.00  0.00    +0.031 C 
ATOM      5  C   UNL     1      32.685 -21.785 -18.167  0.00  0.00    +0.256 C 
ATOM      6  C   UNL     1      31.329 -22.661 -16.447  0.00  0.00    +0.079 C 
ATOM      7  C   UNL     1      33.683 -23.528 -16.064  0.00  0.00    +0.052 C 
ATOM      8  C   UNL     1      33.435 -23.059 -18.506  0.00  0.00    +0.268 C 
ATOM      9  C   UNL     1      32.383 -22.685 -14.195  0.00  0.00    +0.003 C 
ATOM     10  C   UNL     1      34.661 -23.959 -15.156  0.00  0.00    +0.015 C 
ATOM     11  C   UNL     1      33.387 -23.075 -13.310  0.00  0.00    +0.000 C 
ATOM     12  C   UNL     1      34.518 -23.728 -13.788  0.00  0.00    +0.001 C 
ATOM     13  H   UNL     1      34.572 -24.488 -17.639  0.00  0.00    +0.155 HD
ENDROOT
BRANCH   5  15
ATOM     14  O   UNL     1      34.557 -19.936 -19.302  0.00  0.00    -0.252 OA
ATOM     15  N   UNL     1      32.515 -21.018 -19.373  0.00  0.00    -0.264 N 
ATOM     16  N   UNL     1      33.041 -19.532 -21.048  0.00  0.00    -0.266 N 
ATOM     17  C   UNL     1      33.483 -20.131 -19.865  0.00  0.00    +0.306 C 
ATOM     18  H   UNL     1      31.676 -21.122 -19.879  0.00  0.00    +0.153 HD
ATOM     19  H   UNL     1      32.148 -19.802 -21.362  0.00  0.00    +0.156 HD
BRANCH  16  21
ATOM     20  F   UNL     1      32.612 -19.389 -23.787  0.00  0.00    -0.203 F 
ATOM     21  C   UNL     1      33.720 -18.584 -21.847  0.00  0.00    +0.079 C 
ATOM     22  C   UNL     1      33.480 -18.545 -23.211  0.00  0.00    +0.154 C 
ATOM     23  C   UNL     1      34.615 -17.712 -21.248  0.00  0.00    +0.017 C 
ATOM     24  C   UNL     1      34.151 -17.607 -23.996  0.00  0.00    +0.031 C 
ATOM     25  C   UNL     1      35.286 -16.776 -22.033  0.00  0.00    +0.001 C 
ATOM     26  C   UNL     1      35.054 -16.723 -23.408  0.00  0.00    +0.002 C 
ENDBRANCH  16  21
ENDBRANCH   5  15
BRANCH   6  27
ATOM     27  C   UNL     1      29.970 -23.019 -15.949  0.00  0.00    +0.017 C 
ATOM     28  C   UNL     1      29.776 -24.230 -15.298  0.00  0.00    +0.001 C 
ATOM     29  C   UNL     1      28.914 -22.137 -16.143  0.00  0.00    +0.001 C 
ATOM     30  C   UNL     1      28.504 -24.565 -14.833  0.00  0.00    +0.000 C 
ATOM     31  C   UNL     1      27.643 -22.473 -15.678  0.00  0.00    +0.000 C 
ATOM     32  C   UNL     1      27.438 -23.686 -15.023  0.00  0.00    +0.000 C 
ENDBRANCH   6  27
TORSDOF 3
ENDMDL
MODEL 5
REMARK VINA RESULT:      -8.4      2.591      3.782
REMARK  Name = 5279172
REMARK  3 active torsions:
REMARK  status: ('A' for Active; 'I' for Inactive)
REMARK    1  A    between atoms: C_5  and  N_15
REMARK    2  A    between atoms: C_6  and  C_27
REMARK    3  A    between atoms: N_16  and  C_21
REMARK                            x       y       z     vdW  Elec       q    Type
REMARK                         _______ _______ _______ _____ _____    ______ ____
ROOT
ATOM      1  O   UNL     1      29.287  -8.175 -23.610  0.00  0.00    -0.271 OA
ATOM      2  N   UNL     1      29.607  -5.977 -23.084  0.00  0.00    -0.281 N 
ATOM      3  N   UNL     1      31.925  -6.705 -24.878  0.00  0.00    -0.243 NA
ATOM      4  C   UNL     1      31.487  -4.519 -23.821  0.00  0.00    +0.031 C 
ATOM      5  C   UNL     1      31.559  -7.356 -23.640  0.00  0.00    +0.256 C 
ATOM      6  C   UNL     1      31.903  -5.418 -24.939  0.00  0.00    +0.079 C 
ATOM      7  C   UNL     1      30.351  -4.780 -23.036  0.00  0.00    +0.052 C 
ATOM      8  C   UNL     1      30.057  -7.224 -23.469  0.00  0.00    +0.268 C 
ATOM      9  C   UNL     1      32.198  -3.322 -23.633  0.00  0.00    +0.003 C 
ATOM     10  C   UNL     1      29.889  -3.791 -22.156  0.00  0.00    +0.015 C 
ATOM     11  C   UNL     1      31.754  -2.370 -22.718  0.00  0.00    +0.000 C 
ATOM     12  C   UNL     1      30.589  -2.597 -21.991  0.00  0.00    +0.001 C 
ATOM     13  H   UNL     1      28.662  -5.916 -22.814  0.00  0.00    +0.155 HD
ENDROOT
BRANCH   5  15
ATOM     14  O   UNL     1      31.777  -9.166 -21.430  0.00  0.00    -0.252 OA
ATOM     15  N   UNL     1      31.892  -8.754 -23.703  0.00  0.00    -0.264 N 
ATOM     16  N   UNL     1      32.317 -10.882 -22.939  0.00  0.00    -0.266 N 
ATOM     17  C   UNL     1      31.978  -9.577 -22.571  0.00  0.00    +0.306 C 
ATOM     18  H   UNL     1      32.067  -9.155 -24.585  0.00  0.00    +0.153 HD
ATOM     19  H   UNL     1      32.445 -11.040 -23.902  0.00  0.00    +0.156 HD
BRANCH  16  21
ATOM     20  F   UNL     1      34.236 -12.807 -23.503  0.00  0.00    -0.203 F 
ATOM     21  C   UNL     1      32.502 -12.001 -22.095  0.00  0.00    +0.079 C 
ATOM     22  C   UNL     1      33.470 -12.941 -22.411  0.00  0.00    +0.154 C 
ATOM     23  C   UNL     1      31.709 -12.135 -20.967  0.00  0.00    +0.017 C 
ATOM     24  C   UNL     1      33.650 -14.044 -21.576  0.00  0.00    +0.031 C 
ATOM     25  C   UNL     1      31.889 -13.239 -20.133  0.00  0.00    +0.001 C 
ATOM     26  C   UNL     1      32.860 -14.193 -20.437  0.00  0.00    +0.002 C 
ENDBRANCH  16  21
ENDBRANCH   5  15
BRANCH   6  27
ATOM     27  C   UNL     1      32.297  -4.806 -26.241  0.00  0.00    +0.017 C 
ATOM     28  C   UNL     1      33.041  -5.547 -27.150  0.00  0.00    +0.001 C 
ATOM     29  C   UNL     1      31.916  -3.501 -26.528  0.00  0.00    +0.001 C 
ATOM     30  C   UNL     1      33.409  -4.974 -28.368  0.00  0.00    +0.000 C 
ATOM     31  C   UNL     1      32.285  -2.929 -27.746  0.00  0.00    +0.000 C 
ATOM     32  C   UNL     1      33.031  -3.665 -28.665  0.00  0.00    +0.000 C 
ENDBRANCH   6  27
TORSDOF 3
ENDMDL
MODEL 6
REMARK VINA RESULT:      -8.3     10.412     15.258
REMARK  Name = 5279172
REMARK  3 active torsions:
REMARK  status: ('A' for Active; 'I' for Inactive)
REMARK    1  A    between atoms: C_5  and  N_15
REMARK    2  A    between atoms: C_6  and  C_27
REMARK    3  A    between atoms: N_16  and  C_21
REMARK                            x       y       z     vdW  Elec       q    Type
REMARK                         _______ _______ _______ _____ _____    ______ ____
ROOT
ATOM      1  O   UNL     1      38.001 -22.992 -16.721  0.00  0.00    -0.271 OA
ATOM      2  N   UNL     1      37.609 -23.618 -14.561  0.00  0.00    -0.281 N 
ATOM      3  N   UNL     1      35.129 -22.119 -15.411  0.00  0.00    -0.243 NA
ATOM      4  C   UNL     1      35.576 -23.134 -13.207  0.00  0.00    +0.031 C 
ATOM      5  C   UNL     1      36.486 -21.620 -15.435  0.00  0.00    +0.256 C 
ATOM      6  C   UNL     1      34.726 -22.791 -14.387  0.00  0.00    +0.079 C 
ATOM      7  C   UNL     1      36.894 -23.602 -13.346  0.00  0.00    +0.052 C 
ATOM      8  C   UNL     1      37.414 -22.799 -15.655  0.00  0.00    +0.268 C 
ATOM      9  C   UNL     1      34.988 -23.092 -11.932  0.00  0.00    +0.003 C 
ATOM     10  C   UNL     1      37.557 -24.117 -12.223  0.00  0.00    +0.015 C 
ATOM     11  C   UNL     1      35.679 -23.561 -10.816  0.00  0.00    +0.000 C 
ATOM     12  C   UNL     1      36.957 -24.089 -10.964  0.00  0.00    +0.001 C 
ATOM     13  H   UNL     1      38.327 -24.288 -14.637  0.00  0.00    +0.155 HD
ENDROOT
BRANCH   5  15
ATOM     14  O   UNL     1      35.143 -21.701 -17.965  0.00  0.00    -0.252 OA
ATOM     15  N   UNL     1      36.650 -20.697 -16.527  0.00  0.00    -0.264 N 
ATOM     16  N   UNL     1      36.316 -19.771 -18.606  0.00  0.00    -0.266 N 
ATOM     17  C   UNL     1      35.953 -20.805 -17.738  0.00  0.00    +0.306 C 
ATOM     18  H   UNL     1      37.284 -19.952 -16.418  0.00  0.00    +0.153 HD
ATOM     19  H   UNL     1      36.984 -19.135 -18.263  0.00  0.00    +0.156 HD
BRANCH  16  21
ATOM     20  F   UNL     1      33.744 -20.497 -19.358  0.00  0.00    -0.203 F 
ATOM     21  C   UNL     1      35.841 -19.530 -19.915  0.00  0.00    +0.079 C 
ATOM     22  C   UNL     1      34.551 -19.908 -20.253  0.00  0.00    +0.154 C 
ATOM     23  C   UNL     1      36.677 -18.920 -20.836  0.00  0.00    +0.017 C 
ATOM     24  C   UNL     1      34.085 -19.668 -21.545  0.00  0.00    +0.031 C 
ATOM     25  C   UNL     1      36.211 -18.681 -22.129  0.00  0.00    +0.001 C 
ATOM     26  C   UNL     1      34.914 -19.055 -22.483  0.00  0.00    +0.002 C 
ENDBRANCH  16  21
ENDBRANCH   5  15
BRANCH   6  27
ATOM     27  C   UNL     1      33.316 -23.274 -14.419  0.00  0.00    +0.017 C 
ATOM     28  C   UNL     1      32.447 -22.789 -15.388  0.00  0.00    +0.001 C 
ATOM     29  C   UNL     1      32.887 -24.201 -13.478  0.00  0.00    +0.001 C 
ATOM     30  C   UNL     1      31.127 -23.241 -15.418  0.00  0.00    +0.000 C 
ATOM     31  C   UNL     1      31.568 -24.653 -13.508  0.00  0.00    +0.000 C 
ATOM     32  C   UNL     1      30.688 -24.173 -14.477  0.00  0.00    +0.000 C 
ENDBRANCH   6  27
TORSDOF 3
ENDMDL
